MODEL 1
REMARK VINA RESULT:      -7.7      0.000      0.000
REMARK  Name = 
REMARK  10 active torsions:
REMARK  status: ('A' for Active; 'I' for Inactive)
REMARK    1  A    between atoms: C_1  and  C_2
REMARK    2  A    between atoms: C_2  and  C_3
REMARK    3  A    between atoms: C_3  and  O_4
REMARK    4  A    between atoms: O_4  and  C_5
REMARK    5  A    between atoms: C_5  and  C_7
REMARK    6  A    between atoms: C_13  and  C_14
REMARK    7  A    between atoms: C_14  and  O_16
REMARK    8  A    between atoms: O_16  and  C_17
REMARK    9  A    between atoms: C_17  and  C_18
REMARK   10  A    between atoms: C_18  and  C_20
REMARK                            x       y       z     vdW  Elec       q    Type
REMARK                         _______ _______ _______ _____ _____    ______ ____
ROOT
ATOM      1  C   UNL     1       2.885   5.067  20.004  0.00  0.00    +0.000 C 
ATOM      2  C   UNL     1       1.830   4.704  21.077  0.00  0.00    +0.000 C 
ATOM      3  C   UNL     1       2.172   3.373  21.732  0.00  0.00    +0.000 C 
ATOM      4  C   UNL     1       1.948   2.404  20.831  0.00  0.00    +0.000 C 
ATOM      5  C   UNL     1       1.541   3.091  19.553  0.00  0.00    +0.000 C 
ATOM      6  C   UNL     1       0.690   4.207  20.184  0.00  0.00    +0.000 C 
ATOM      7  C   UNL     1       2.747   3.886  18.989  0.00  0.00    +0.000 C 
ENDROOT
BRANCH   1   8
ATOM      8  C   UNL     1       2.608   6.360  19.249  0.00  0.00    +0.000 C 
ATOM      9  O   UNL     1       2.712   6.460  18.030  0.00  0.00    +0.000 OA
BRANCH   8  10
ATOM     10  O   UNL     1       2.281   7.393  20.071  0.00  0.00    +0.000 OA
BRANCH  10  11
ATOM     11  C   UNL     1       1.789   8.569  19.405  0.00  0.00    +0.000 C 
BRANCH  11  13
ATOM     12  C   UNL     1       0.698   8.704  21.649  0.00  0.00    +0.000 C 
ATOM     13  C   UNL     1       0.772   9.320  20.257  0.00  0.00    +0.000 C 
ENDBRANCH  11  13
ENDBRANCH  10  11
ENDBRANCH   8  10
ENDBRANCH   1   8
BRANCH   7  14
ATOM     14  C   UNL     1       4.069   3.161  18.836  0.00  0.00    +0.000 C 
ATOM     15  O   UNL     1       4.881   3.005  19.748  0.00  0.00    +0.000 OA
BRANCH  14  16
ATOM     16  O   UNL     1       4.288   2.797  17.547  0.00  0.00    +0.000 OA
BRANCH  16  17
ATOM     17  C   UNL     1       4.284   3.876  16.607  0.00  0.00    +0.000 C 
BRANCH  17  18
ATOM     18  C   UNL     1       5.723   4.175  16.212  0.00  0.00    +0.000 C 
ATOM     19  O   UNL     1       6.264   3.636  15.242  0.00  0.00    +0.000 OA
BRANCH  18  20
ATOM     20  C   UNL     1       6.515   5.128  17.042  0.00  0.00    +0.000 A 
ATOM     21  C   UNL     1       7.323   4.709  18.105  0.00  0.00    +0.000 A 
ATOM     22  C   UNL     1       8.056   5.647  18.837  0.00  0.00    +0.000 A 
ATOM     23  C   UNL     1       7.984   7.002  18.514  0.00  0.00    +0.000 A 
ATOM     24  C   UNL     1       7.183   7.426  17.458  0.00  0.00    +0.000 A 
ATOM     25  C   UNL     1       6.451   6.493  16.722  0.00  0.00    +0.000 A 
ENDBRANCH  18  20
ENDBRANCH  17  18
ENDBRANCH  16  17
ENDBRANCH  14  16
ENDBRANCH   7  14
TORSDOF 9
ENDMDL
MODEL 2
REMARK VINA RESULT:      -7.6      0.292      1.008
REMARK  Name = 
REMARK  10 active torsions:
REMARK  status: ('A' for Active; 'I' for Inactive)
REMARK    1  A    between atoms: C_1  and  C_2
REMARK    2  A    between atoms: C_2  and  C_3
REMARK    3  A    between atoms: C_3  and  O_4
REMARK    4  A    between atoms: O_4  and  C_5
REMARK    5  A    between atoms: C_5  and  C_7
REMARK    6  A    between atoms: C_13  and  C_14
REMARK    7  A    between atoms: C_14  and  O_16
REMARK    8  A    between atoms: O_16  and  C_17
REMARK    9  A    between atoms: C_17  and  C_18
REMARK   10  A    between atoms: C_18  and  C_20
REMARK                            x       y       z     vdW  Elec       q    Type
REMARK                         _______ _______ _______ _____ _____    ______ ____
ROOT
ATOM      1  C   UNL     1       3.037   5.008  20.140  0.00  0.00    +0.000 C 
ATOM      2  C   UNL     1       1.931   4.631  21.156  0.00  0.00    +0.000 C 
ATOM      3  C   UNL     1       2.147   3.218  21.678  0.00  0.00    +0.000 C 
ATOM      4  C   UNL     1       1.864   2.365  20.681  0.00  0.00    +0.000 C 
ATOM      5  C   UNL     1       1.546   3.207  19.473  0.00  0.00    +0.000 C 
ATOM      6  C   UNL     1       0.775   4.323  20.200  0.00  0.00    +0.000 C 
ATOM      7  C   UNL     1       2.826   3.949  19.010  0.00  0.00    +0.000 C 
ENDROOT
BRANCH   1   8
ATOM      8  C   UNL     1       2.886   6.388  19.515  0.00  0.00    +0.000 C 
ATOM      9  O   UNL     1       3.461   6.723  18.483  0.00  0.00    +0.000 OA
BRANCH   8  10
ATOM     10  O   UNL     1       2.088   7.214  20.242  0.00  0.00    +0.000 OA
BRANCH  10  11
ATOM     11  C   UNL     1       1.670   8.410  19.563  0.00  0.00    +0.000 C 
BRANCH  11  13
ATOM     12  C   UNL     1       0.007   8.548  21.425  0.00  0.00    +0.000 C 
ATOM     13  C   UNL     1       0.904   9.350  20.489  0.00  0.00    +0.000 C 
ENDBRANCH  11  13
ENDBRANCH  10  11
ENDBRANCH   8  10
ENDBRANCH   1   8
BRANCH   7  14
ATOM     14  C   UNL     1       4.086   3.133  18.805  0.00  0.00    +0.000 C 
ATOM     15  O   UNL     1       4.873   2.840  19.704  0.00  0.00    +0.000 OA
BRANCH  14  16
ATOM     16  O   UNL     1       4.289   2.857  17.492  0.00  0.00    +0.000 OA
BRANCH  16  17
ATOM     17  C   UNL     1       4.299   3.998  16.629  0.00  0.00    +0.000 C 
BRANCH  17  18
ATOM     18  C   UNL     1       5.737   4.275  16.215  0.00  0.00    +0.000 C 
ATOM     19  O   UNL     1       6.271   3.693  15.266  0.00  0.00    +0.000 OA
BRANCH  18  20
ATOM     20  C   UNL     1       6.537   5.260  16.999  0.00  0.00    +0.000 A 
ATOM     21  C   UNL     1       6.595   6.618  16.665  0.00  0.00    +0.000 A 
ATOM     22  C   UNL     1       7.348   7.497  17.448  0.00  0.00    +0.000 A 
ATOM     23  C   UNL     1       8.045   7.027  18.561  0.00  0.00    +0.000 A 
ATOM     24  C   UNL     1       7.991   5.677  18.898  0.00  0.00    +0.000 A 
ATOM     25  C   UNL     1       7.239   4.795  18.121  0.00  0.00    +0.000 A 
ENDBRANCH  18  20
ENDBRANCH  17  18
ENDBRANCH  16  17
ENDBRANCH  14  16
ENDBRANCH   7  14
TORSDOF 9
ENDMDL
MODEL 3
REMARK VINA RESULT:      -7.2      1.093      1.363
REMARK  Name = 
REMARK  10 active torsions:
REMARK  status: ('A' for Active; 'I' for Inactive)
REMARK    1  A    between atoms: C_1  and  C_2
REMARK    2  A    between atoms: C_2  and  C_3
REMARK    3  A    between atoms: C_3  and  O_4
REMARK    4  A    between atoms: O_4  and  C_5
REMARK    5  A    between atoms: C_5  and  C_7
REMARK    6  A    between atoms: C_13  and  C_14
REMARK    7  A    between atoms: C_14  and  O_16
REMARK    8  A    between atoms: O_16  and  C_17
REMARK    9  A    between atoms: C_17  and  C_18
REMARK   10  A    between atoms: C_18  and  C_20
REMARK                            x       y       z     vdW  Elec       q    Type
REMARK                         _______ _______ _______ _____ _____    ______ ____
ROOT
ATOM      1  C   UNL     1       2.780   5.221  20.062  0.00  0.00    +0.000 C 
ATOM      2  C   UNL     1       1.925   4.445  21.094  0.00  0.00    +0.000 C 
ATOM      3  C   UNL     1       2.492   3.050  21.314  0.00  0.00    +0.000 C 
ATOM      4  C   UNL     1       2.251   2.331  20.207  0.00  0.00    +0.000 C 
ATOM      5  C   UNL     1       1.604   3.267  19.219  0.00  0.00    +0.000 C 
ATOM      6  C   UNL     1       0.733   4.047  20.219  0.00  0.00    +0.000 C 
ATOM      7  C   UNL     1       2.631   4.342  18.778  0.00  0.00    +0.000 C 
ENDROOT
BRANCH   1   8
ATOM      8  C   UNL     1       2.268   6.616  19.730  0.00  0.00    +0.000 C 
ATOM      9  O   UNL     1       1.867   7.403  20.581  0.00  0.00    +0.000 OA
BRANCH   8  10
ATOM     10  O   UNL     1       2.263   6.873  18.395  0.00  0.00    +0.000 OA
BRANCH  10  11
ATOM     11  C   UNL     1       2.673   8.202  18.029  0.00  0.00    +0.000 C 
BRANCH  11  13
ATOM     12  C   UNL     1       1.686  10.478  18.330  0.00  0.00    +0.000 C 
ATOM     13  C   UNL     1       1.480   9.099  17.716  0.00  0.00    +0.000 C 
ENDBRANCH  11  13
ENDBRANCH  10  11
ENDBRANCH   8  10
ENDBRANCH   1   8
BRANCH   7  14
ATOM     14  C   UNL     1       3.989   3.873  18.296  0.00  0.00    +0.000 C 
ATOM     15  O   UNL     1       4.744   3.155  18.950  0.00  0.00    +0.000 OA
BRANCH  14  16
ATOM     16  O   UNL     1       4.308   4.429  17.100  0.00  0.00    +0.000 OA
BRANCH  16  17
ATOM     17  C   UNL     1       5.181   3.643  16.282  0.00  0.00    +0.000 C 
BRANCH  17  18
ATOM     18  C   UNL     1       6.375   4.501  15.891  0.00  0.00    +0.000 C 
ATOM     19  O   UNL     1       6.861   4.472  14.757  0.00  0.00    +0.000 OA
BRANCH  18  20
ATOM     20  C   UNL     1       6.996   5.384  16.920  0.00  0.00    +0.000 A 
ATOM     21  C   UNL     1       7.542   4.886  18.109  0.00  0.00    +0.000 A 
ATOM     22  C   UNL     1       8.127   5.762  19.029  0.00  0.00    +0.000 A 
ATOM     23  C   UNL     1       8.166   7.132  18.768  0.00  0.00    +0.000 A 
ATOM     24  C   UNL     1       7.625   7.632  17.588  0.00  0.00    +0.000 A 
ATOM     25  C   UNL     1       7.043   6.763  16.665  0.00  0.00    +0.000 A 
ENDBRANCH  18  20
ENDBRANCH  17  18
ENDBRANCH  16  17
ENDBRANCH  14  16
ENDBRANCH   7  14
TORSDOF 9
ENDMDL
MODEL 4
REMARK VINA RESULT:      -7.2      2.366      6.281
REMARK  Name = 
REMARK  10 active torsions:
REMARK  status: ('A' for Active; 'I' for Inactive)
REMARK    1  A    between atoms: C_1  and  C_2
REMARK    2  A    between atoms: C_2  and  C_3
REMARK    3  A    between atoms: C_3  and  O_4
REMARK    4  A    between atoms: O_4  and  C_5
REMARK    5  A    between atoms: C_5  and  C_7
REMARK    6  A    between atoms: C_13  and  C_14
REMARK    7  A    between atoms: C_14  and  O_16
REMARK    8  A    between atoms: O_16  and  C_17
REMARK    9  A    between atoms: C_17  and  C_18
REMARK   10  A    between atoms: C_18  and  C_20
REMARK                            x       y       z     vdW  Elec       q    Type
REMARK                         _______ _______ _______ _____ _____    ______ ____
ROOT
ATOM      1  C   UNL     1       6.612   6.739  16.984  0.00  0.00    +0.000 C 
ATOM      2  C   UNL     1       7.107   5.571  16.096  0.00  0.00    +0.000 C 
ATOM      3  C   UNL     1       5.964   5.019  15.257  0.00  0.00    +0.000 C 
ATOM      4  C   UNL     1       5.131   4.364  16.081  0.00  0.00    +0.000 C 
ATOM      5  C   UNL     1       5.670   4.552  17.475  0.00  0.00    +0.000 C 
ATOM      6  C   UNL     1       7.166   4.445  17.132  0.00  0.00    +0.000 C 
ATOM      7  C   UNL     1       5.539   6.042  17.882  0.00  0.00    +0.000 C 
ENDROOT
BRANCH   1   8
ATOM      8  C   UNL     1       7.670   7.332  17.905  0.00  0.00    +0.000 C 
ATOM      9  O   UNL     1       8.183   6.707  18.828  0.00  0.00    +0.000 OA
BRANCH   8  10
ATOM     10  O   UNL     1       7.948   8.633  17.622  0.00  0.00    +0.000 OA
BRANCH  10  11
ATOM     11  C   UNL     1       8.676   9.337  18.644  0.00  0.00    +0.000 C 
BRANCH  11  13
ATOM     12  C   UNL     1      10.305  11.178  19.095  0.00  0.00    +0.000 C 
ATOM     13  C   UNL     1       9.252  10.651  18.128  0.00  0.00    +0.000 C 
ENDBRANCH  11  13
ENDBRANCH  10  11
ENDBRANCH   8  10
ENDBRANCH   1   8
BRANCH   7  14
ATOM     14  C   UNL     1       4.189   6.711  17.710  0.00  0.00    +0.000 C 
ATOM     15  O   UNL     1       3.956   7.593  16.884  0.00  0.00    +0.000 OA
BRANCH  14  16
ATOM     16  O   UNL     1       3.304   6.288  18.648  0.00  0.00    +0.000 OA
BRANCH  16  17
ATOM     17  C   UNL     1       1.999   5.976  18.149  0.00  0.00    +0.000 C 
BRANCH  17  18
ATOM     18  C   UNL     1       1.835   4.464  18.146  0.00  0.00    +0.000 C 
ATOM     19  O   UNL     1       1.507   3.841  17.132  0.00  0.00    +0.000 OA
BRANCH  18  20
ATOM     20  C   UNL     1       2.049   3.712  19.417  0.00  0.00    +0.000 A 
ATOM     21  C   UNL     1       1.110   3.706  20.454  0.00  0.00    +0.000 A 
ATOM     22  C   UNL     1       1.359   2.969  21.616  0.00  0.00    +0.000 A 
ATOM     23  C   UNL     1       2.541   2.240  21.747  0.00  0.00    +0.000 A 
ATOM     24  C   UNL     1       3.478   2.242  20.718  0.00  0.00    +0.000 A 
ATOM     25  C   UNL     1       3.234   2.975  19.555  0.00  0.00    +0.000 A 
ENDBRANCH  18  20
ENDBRANCH  17  18
ENDBRANCH  16  17
ENDBRANCH  14  16
ENDBRANCH   7  14
TORSDOF 9
ENDMDL
MODEL 5
REMARK VINA RESULT:      -7.2      1.948      2.807
REMARK  Name = 
REMARK  10 active torsions:
REMARK  status: ('A' for Active; 'I' for Inactive)
REMARK    1  A    between atoms: C_1  and  C_2
REMARK    2  A    between atoms: C_2  and  C_3
REMARK    3  A    between atoms: C_3  and  O_4
REMARK    4  A    between atoms: O_4  and  C_5
REMARK    5  A    between atoms: C_5  and  C_7
REMARK    6  A    between atoms: C_13  and  C_14
REMARK    7  A    between atoms: C_14  and  O_16
REMARK    8  A    between atoms: O_16  and  C_17
REMARK    9  A    between atoms: C_17  and  C_18
REMARK   10  A    between atoms: C_18  and  C_20
REMARK                            x       y       z     vdW  Elec       q    Type
REMARK                         _______ _______ _______ _____ _____    ______ ____
ROOT
ATOM      1  C   UNL     1       2.843   5.163  20.084  0.00  0.00    +0.000 C 
ATOM      2  C   UNL     1       1.916   4.284  20.960  0.00  0.00    +0.000 C 
ATOM      3  C   UNL     1       2.554   2.927  21.214  0.00  0.00    +0.000 C 
ATOM      4  C   UNL     1       2.526   2.239  20.062  0.00  0.00    +0.000 C 
ATOM      5  C   UNL     1       1.952   3.166  19.022  0.00  0.00    +0.000 C 
ATOM      6  C   UNL     1       0.892   3.839  19.912  0.00  0.00    +0.000 C 
ATOM      7  C   UNL     1       2.943   4.330  18.765  0.00  0.00    +0.000 C 
ENDROOT
BRANCH   1   8
ATOM      8  C   UNL     1       2.275   6.530  19.726  0.00  0.00    +0.000 C 
ATOM      9  O   UNL     1       2.708   7.215  18.804  0.00  0.00    +0.000 OA
BRANCH   8  10
ATOM     10  O   UNL     1       1.276   6.923  20.560  0.00  0.00    +0.000 OA
BRANCH  10  11
ATOM     11  C   UNL     1       1.447   8.226  21.144  0.00  0.00    +0.000 C 
BRANCH  11  13
ATOM     12  C   UNL     1       0.102  10.262  21.684  0.00  0.00    +0.000 C 
ATOM     13  C   UNL     1       0.155   8.741  21.769  0.00  0.00    +0.000 C 
ENDBRANCH  11  13
ENDBRANCH  10  11
ENDBRANCH   8  10
ENDBRANCH   1   8
BRANCH   7  14
ATOM     14  C   UNL     1       4.387   3.982  18.466  0.00  0.00    +0.000 C 
ATOM     15  O   UNL     1       5.244   3.789  19.328  0.00  0.00    +0.000 OA
BRANCH  14  16
ATOM     16  O   UNL     1       4.637   4.012  17.132  0.00  0.00    +0.000 OA
BRANCH  16  17
ATOM     17  C   UNL     1       5.307   5.190  16.671  0.00  0.00    +0.000 C 
BRANCH  17  18
ATOM     18  C   UNL     1       6.646   4.779  16.076  0.00  0.00    +0.000 C 
ATOM     19  O   UNL     1       7.662   4.656  16.767  0.00  0.00    +0.000 OA
BRANCH  18  20
ATOM     20  C   UNL     1       6.742   4.545  14.606  0.00  0.00    +0.000 A 
ATOM     21  C   UNL     1       5.971   3.582  13.946  0.00  0.00    +0.000 A 
ATOM     22  C   UNL     1       6.091   3.420  12.563  0.00  0.00    +0.000 A 
ATOM     23  C   UNL     1       6.979   4.213  11.837  0.00  0.00    +0.000 A 
ATOM     24  C   UNL     1       7.749   5.173  12.488  0.00  0.00    +0.000 A 
ATOM     25  C   UNL     1       7.631   5.340  13.868  0.00  0.00    +0.000 A 
ENDBRANCH  18  20
ENDBRANCH  17  18
ENDBRANCH  16  17
ENDBRANCH  14  16
ENDBRANCH   7  14
TORSDOF 9
ENDMDL
MODEL 6
REMARK VINA RESULT:      -7.1      1.992      6.550
REMARK  Name = 
REMARK  10 active torsions:
REMARK  status: ('A' for Active; 'I' for Inactive)
REMARK    1  A    between atoms: C_1  and  C_2
REMARK    2  A    between atoms: C_2  and  C_3
REMARK    3  A    between atoms: C_3  and  O_4
REMARK    4  A    between atoms: O_4  and  C_5
REMARK    5  A    between atoms: C_5  and  C_7
REMARK    6  A    between atoms: C_13  and  C_14
REMARK    7  A    between atoms: C_14  and  O_16
REMARK    8  A    between atoms: O_16  and  C_17
REMARK    9  A    between atoms: C_17  and  C_18
REMARK   10  A    between atoms: C_18  and  C_20
REMARK                            x       y       z     vdW  Elec       q    Type
REMARK                         _______ _______ _______ _____ _____    ______ ____
ROOT
ATOM      1  C   UNL     1       6.563   4.335  16.414  0.00  0.00    +0.000 C 
ATOM      2  C   UNL     1       7.559   5.061  17.352  0.00  0.00    +0.000 C 
ATOM      3  C   UNL     1       7.123   4.919  18.803  0.00  0.00    +0.000 C 
ATOM      4  C   UNL     1       6.028   5.675  18.977  0.00  0.00    +0.000 C 
ATOM      5  C   UNL     1       5.684   6.250  17.628  0.00  0.00    +0.000 C 
ATOM      6  C   UNL     1       7.121   6.513  17.146  0.00  0.00    +0.000 C 
ATOM      7  C   UNL     1       5.231   5.108  16.681  0.00  0.00    +0.000 C 
ENDROOT
BRANCH   1   8
ATOM      8  C   UNL     1       6.880   4.459  14.930  0.00  0.00    +0.000 C 
ATOM      9  O   UNL     1       7.629   5.317  14.473  0.00  0.00    +0.000 OA
BRANCH   8  10
ATOM     10  O   UNL     1       6.213   3.551  14.169  0.00  0.00    +0.000 OA
BRANCH  10  11
ATOM     11  C   UNL     1       6.077   3.901  12.781  0.00  0.00    +0.000 C 
BRANCH  11  13
ATOM     12  C   UNL     1       4.229   3.184  11.258  0.00  0.00    +0.000 C 
ATOM     13  C   UNL     1       5.511   2.749  11.957  0.00  0.00    +0.000 C 
ENDBRANCH  11  13
ENDBRANCH  10  11
ENDBRANCH   8  10
ENDBRANCH   1   8
BRANCH   7  14
ATOM     14  C   UNL     1       4.157   4.160  17.174  0.00  0.00    +0.000 C 
ATOM     15  O   UNL     1       4.341   2.963  17.395  0.00  0.00    +0.000 OA
BRANCH  14  16
ATOM     16  O   UNL     1       2.948   4.772  17.240  0.00  0.00    +0.000 OA
BRANCH  16  17
ATOM     17  C   UNL     1       2.155   4.422  18.379  0.00  0.00    +0.000 C 
BRANCH  17  18
ATOM     18  C   UNL     1       2.513   5.364  19.520  0.00  0.00    +0.000 C 
ATOM     19  O   UNL     1       3.106   4.976  20.530  0.00  0.00    +0.000 OA
BRANCH  18  20
ATOM     20  C   UNL     1       2.108   6.796  19.426  0.00  0.00    +0.000 A 
ATOM     21  C   UNL     1       1.552   7.493  20.505  0.00  0.00    +0.000 A 
ATOM     22  C   UNL     1       1.207   8.840  20.363  0.00  0.00    +0.000 A 
ATOM     23  C   UNL     1       1.412   9.494  19.148  0.00  0.00    +0.000 A 
ATOM     24  C   UNL     1       1.964   8.806  18.071  0.00  0.00    +0.000 A 
ATOM     25  C   UNL     1       2.313   7.462  18.209  0.00  0.00    +0.000 A 
ENDBRANCH  18  20
ENDBRANCH  17  18
ENDBRANCH  16  17
ENDBRANCH  14  16
ENDBRANCH   7  14
TORSDOF 9
ENDMDL
MODEL 7
REMARK VINA RESULT:      -7.1      2.022      3.042
REMARK  Name = 
REMARK  10 active torsions:
REMARK  status: ('A' for Active; 'I' for Inactive)
REMARK    1  A    between atoms: C_1  and  C_2
REMARK    2  A    between atoms: C_2  and  C_3
REMARK    3  A    between atoms: C_3  and  O_4
REMARK    4  A    between atoms: O_4  and  C_5
REMARK    5  A    between atoms: C_5  and  C_7
REMARK    6  A    between atoms: C_13  and  C_14
REMARK    7  A    between atoms: C_14  and  O_16
REMARK    8  A    between atoms: O_16  and  C_17
REMARK    9  A    between atoms: C_17  and  C_18
REMARK   10  A    between atoms: C_18  and  C_20
REMARK                            x       y       z     vdW  Elec       q    Type
REMARK                         _______ _______ _______ _____ _____    ______ ____
ROOT
ATOM      1  C   UNL     1       3.158   5.644  18.915  0.00  0.00    +0.000 C 
ATOM      2  C   UNL     1       1.783   4.952  19.085  0.00  0.00    +0.000 C 
ATOM      3  C   UNL     1       1.942   3.623  19.808  0.00  0.00    +0.000 C 
ATOM      4  C   UNL     1       2.544   2.768  18.966  0.00  0.00    +0.000 C 
ATOM      5  C   UNL     1       2.863   3.548  17.718  0.00  0.00    +0.000 C 
ATOM      6  C   UNL     1       1.580   4.396  17.673  0.00  0.00    +0.000 C 
ATOM      7  C   UNL     1       3.943   4.614  18.038  0.00  0.00    +0.000 C 
ENDROOT
BRANCH   1   8
ATOM      8  C   UNL     1       3.119   6.963  18.156  0.00  0.00    +0.000 C 
ATOM      9  O   UNL     1       3.882   7.227  17.231  0.00  0.00    +0.000 OA
BRANCH   8  10
ATOM     10  O   UNL     1       2.185   7.824  18.639  0.00  0.00    +0.000 OA
BRANCH  10  11
ATOM     11  C   UNL     1       1.920   8.966  17.806  0.00  0.00    +0.000 C 
BRANCH  11  13
ATOM     12  C   UNL     1       0.804   9.858  19.856  0.00  0.00    +0.000 C 
ATOM     13  C   UNL     1       0.755   9.797  18.334  0.00  0.00    +0.000 C 
ENDBRANCH  11  13
ENDBRANCH  10  11
ENDBRANCH   8  10
ENDBRANCH   1   8
BRANCH   7  14
ATOM     14  C   UNL     1       5.201   4.161  18.751  0.00  0.00    +0.000 C 
ATOM     15  O   UNL     1       5.262   3.176  19.486  0.00  0.00    +0.000 OA
BRANCH  14  16
ATOM     16  O   UNL     1       6.221   5.036  18.560  0.00  0.00    +0.000 OA
BRANCH  16  17
ATOM     17  C   UNL     1       7.179   4.640  17.574  0.00  0.00    +0.000 C 
BRANCH  17  18
ATOM     18  C   UNL     1       7.032   5.555  16.367  0.00  0.00    +0.000 C 
ATOM     19  O   UNL     1       7.096   6.784  16.463  0.00  0.00    +0.000 OA
BRANCH  18  20
ATOM     20  C   UNL     1       6.774   4.948  15.029  0.00  0.00    +0.000 A 
ATOM     21  C   UNL     1       5.689   4.099  14.785  0.00  0.00    +0.000 A 
ATOM     22  C   UNL     1       5.488   3.573  13.505  0.00  0.00    +0.000 A 
ATOM     23  C   UNL     1       6.367   3.890  12.469  0.00  0.00    +0.000 A 
ATOM     24  C   UNL     1       7.447   4.735  12.706  0.00  0.00    +0.000 A 
ATOM     25  C   UNL     1       7.651   5.264  13.981  0.00  0.00    +0.000 A 
ENDBRANCH  18  20
ENDBRANCH  17  18
ENDBRANCH  16  17
ENDBRANCH  14  16
ENDBRANCH   7  14
TORSDOF 9
ENDMDL
MODEL 8
REMARK VINA RESULT:      -7.1      1.868      2.833
REMARK  Name = 
REMARK  10 active torsions:
REMARK  status: ('A' for Active; 'I' for Inactive)
REMARK    1  A    between atoms: C_1  and  C_2
REMARK    2  A    between atoms: C_2  and  C_3
REMARK    3  A    between atoms: C_3  and  O_4
REMARK    4  A    between atoms: O_4  and  C_5
REMARK    5  A    between atoms: C_5  and  C_7
REMARK    6  A    between atoms: C_13  and  C_14
REMARK    7  A    between atoms: C_14  and  O_16
REMARK    8  A    between atoms: O_16  and  C_17
REMARK    9  A    between atoms: C_17  and  C_18
REMARK   10  A    between atoms: C_18  and  C_20
REMARK                            x       y       z     vdW  Elec       q    Type
REMARK                         _______ _______ _______ _____ _____    ______ ____
ROOT
ATOM      1  C   UNL     1       2.831   5.268  19.937  0.00  0.00    +0.000 C 
ATOM      2  C   UNL     1       2.106   4.404  20.998  0.00  0.00    +0.000 C 
ATOM      3  C   UNL     1       2.715   3.011  21.056  0.00  0.00    +0.000 C 
ATOM      4  C   UNL     1       2.366   2.363  19.934  0.00  0.00    +0.000 C 
ATOM      5  C   UNL     1       1.601   3.349  19.090  0.00  0.00    +0.000 C 
ATOM      6  C   UNL     1       0.832   4.040  20.230  0.00  0.00    +0.000 C 
ATOM      7  C   UNL     1       2.556   4.476  18.617  0.00  0.00    +0.000 C 
ENDROOT
BRANCH   1   8
ATOM      8  C   UNL     1       2.265   6.670  19.760  0.00  0.00    +0.000 C 
ATOM      9  O   UNL     1       2.436   7.340  18.745  0.00  0.00    +0.000 OA
BRANCH   8  10
ATOM     10  O   UNL     1       1.592   7.111  20.856  0.00  0.00    +0.000 OA
BRANCH  10  11
ATOM     11  C   UNL     1       1.209   8.497  20.819  0.00  0.00    +0.000 C 
BRANCH  11  13
ATOM     12  C   UNL     1       0.091   9.226  22.933  0.00  0.00    +0.000 C 
ATOM     13  C   UNL     1      -0.131   8.734  21.508  0.00  0.00    +0.000 C 
ENDBRANCH  11  13
ENDBRANCH  10  11
ENDBRANCH   8  10
ENDBRANCH   1   8
BRANCH   7  14
ATOM     14  C   UNL     1       3.861   4.072  17.960  0.00  0.00    +0.000 C 
ATOM     15  O   UNL     1       4.033   3.011  17.360  0.00  0.00    +0.000 OA
BRANCH  14  16
ATOM     16  O   UNL     1       4.840   4.979  18.205  0.00  0.00    +0.000 OA
BRANCH  16  17
ATOM     17  C   UNL     1       6.020   4.823  17.411  0.00  0.00    +0.000 C 
BRANCH  17  18
ATOM     18  C   UNL     1       5.855   5.641  16.139  0.00  0.00    +0.000 C 
ATOM     19  O   UNL     1       5.470   6.814  16.157  0.00  0.00    +0.000 OA
BRANCH  18  20
ATOM     20  C   UNL     1       6.140   4.996  14.824  0.00  0.00    +0.000 A 
ATOM     21  C   UNL     1       5.261   4.085  14.227  0.00  0.00    +0.000 A 
ATOM     22  C   UNL     1       5.574   3.525  12.985  0.00  0.00    +0.000 A 
ATOM     23  C   UNL     1       6.761   3.868  12.338  0.00  0.00    +0.000 A 
ATOM     24  C   UNL     1       7.639   4.774  12.927  0.00  0.00    +0.000 A 
ATOM     25  C   UNL     1       7.330   5.338  14.165  0.00  0.00    +0.000 A 
ENDBRANCH  18  20
ENDBRANCH  17  18
ENDBRANCH  16  17
ENDBRANCH  14  16
ENDBRANCH   7  14
TORSDOF 9
ENDMDL
MODEL 9
REMARK VINA RESULT:      -7.1      1.562      2.621
REMARK  Name = 
REMARK  10 active torsions:
REMARK  status: ('A' for Active; 'I' for Inactive)
REMARK    1  A    between atoms: C_1  and  C_2
REMARK    2  A    between atoms: C_2  and  C_3
REMARK    3  A    between atoms: C_3  and  O_4
REMARK    4  A    between atoms: O_4  and  C_5
REMARK    5  A    between atoms: C_5  and  C_7
REMARK    6  A    between atoms: C_13  and  C_14
REMARK    7  A    between atoms: C_14  and  O_16
REMARK    8  A    between atoms: O_16  and  C_17
REMARK    9  A    between atoms: C_17  and  C_18
REMARK   10  A    between atoms: C_18  and  C_20
REMARK                            x       y       z     vdW  Elec       q    Type
REMARK                         _______ _______ _______ _____ _____    ______ ____
ROOT
ATOM      1  C   UNL     1       2.664   4.904  19.627  0.00  0.00    +0.000 C 
ATOM      2  C   UNL     1       1.347   4.250  19.143  0.00  0.00    +0.000 C 
ATOM      3  C   UNL     1       1.418   2.738  19.290  0.00  0.00    +0.000 C 
ATOM      4  C   UNL     1       2.274   2.275  18.366  0.00  0.00    +0.000 C 
ATOM      5  C   UNL     1       2.839   3.482  17.662  0.00  0.00    +0.000 C 
ATOM      6  C   UNL     1       1.548   4.319  17.626  0.00  0.00    +0.000 C 
ATOM      7  C   UNL     1       3.719   4.290  18.650  0.00  0.00    +0.000 C 
ENDROOT
BRANCH   1   8
ATOM      8  C   UNL     1       2.719   6.418  19.474  0.00  0.00    +0.000 C 
ATOM      9  O   UNL     1       3.443   6.984  18.660  0.00  0.00    +0.000 OA
BRANCH   8  10
ATOM     10  O   UNL     1       1.918   7.069  20.359  0.00  0.00    +0.000 OA
BRANCH  10  11
ATOM     11  C   UNL     1       1.397   8.328  19.899  0.00  0.00    +0.000 C 
BRANCH  11  13
ATOM     12  C   UNL     1       1.287   9.017  22.300  0.00  0.00    +0.000 C 
ATOM     13  C   UNL     1       0.551   9.016  20.965  0.00  0.00    +0.000 C 
ENDBRANCH  11  13
ENDBRANCH  10  11
ENDBRANCH   8  10
ENDBRANCH   1   8
BRANCH   7  14
ATOM     14  C   UNL     1       4.788   3.545  19.424  0.00  0.00    +0.000 C 
ATOM     15  O   UNL     1       4.554   2.749  20.333  0.00  0.00    +0.000 OA
BRANCH  14  16
ATOM     16  O   UNL     1       6.033   3.944  19.060  0.00  0.00    +0.000 OA
BRANCH  16  17
ATOM     17  C   UNL     1       6.365   5.289  19.420  0.00  0.00    +0.000 C 
BRANCH  17  18
ATOM     18  C   UNL     1       7.019   5.960  18.220  0.00  0.00    +0.000 C 
ATOM     19  O   UNL     1       7.901   6.814  18.346  0.00  0.00    +0.000 OA
BRANCH  18  20
ATOM     20  C   UNL     1       6.558   5.594  16.850  0.00  0.00    +0.000 A 
ATOM     21  C   UNL     1       5.522   6.271  16.198  0.00  0.00    +0.000 A 
ATOM     22  C   UNL     1       5.145   5.893  14.906  0.00  0.00    +0.000 A 
ATOM     23  C   UNL     1       5.797   4.841  14.263  0.00  0.00    +0.000 A 
ATOM     24  C   UNL     1       6.829   4.164  14.906  0.00  0.00    +0.000 A 
ATOM     25  C   UNL     1       7.211   4.538  16.195  0.00  0.00    +0.000 A 
ENDBRANCH  18  20
ENDBRANCH  17  18
ENDBRANCH  16  17
ENDBRANCH  14  16
ENDBRANCH   7  14
TORSDOF 9
ENDMDL
