MODEL 1
REMARK VINA RESULT:      -7.7      0.000      0.000
REMARK  Name = 
REMARK  8 active torsions:
REMARK  status: ('A' for Active; 'I' for Inactive)
REMARK    1  A    between atoms: C_1  and  O_2
REMARK    2  A    between atoms: O_2  and  C_3
REMARK    3  A    between atoms: C_8  and  N_9
REMARK    4  A    between atoms: C_10  and  C_12
REMARK    5  A    between atoms: C_12  and  N_13
REMARK    6  A    between atoms: C_16  and  S_17
REMARK    7  A    between atoms: S_17  and  C_18
REMARK    8  A    between atoms: C_18  and  C_19
REMARK                            x       y       z     vdW  Elec       q    Type
REMARK                         _______ _______ _______ _____ _____    ______ ____
ROOT
ATOM      1  N   UNL     1       4.424   4.747  19.143  0.00  0.00    +0.000 N 
ATOM      2  N   UNL     1       5.539   5.565  19.102  0.00  0.00    +0.000 NA
ATOM      3  C   UNL     1       6.013   5.366  17.906  0.00  0.00    +0.000 A 
ATOM      4  C   UNL     1       7.213   5.941  17.220  0.00  0.00    +0.000 A 
ATOM      5  N   UNL     1       7.584   5.622  16.017  0.00  0.00    +0.000 NA
ATOM      6  C   UNL     1       6.788   4.695  15.365  0.00  0.00    +0.000 A 
ATOM      7  C   UNL     1       5.669   4.153  15.877  0.00  0.00    +0.000 A 
ATOM      8  N   UNL     1       5.299   4.499  17.140  0.00  0.00    +0.000 N 
ATOM      9  C   UNL     1       4.217   4.126  17.895  0.00  0.00    +0.000 A 
ATOM     10  O   UNL     1       3.274   3.434  17.561  0.00  0.00    +0.000 OA
ENDROOT
BRANCH   1  11
ATOM     11  C   UNL     1       3.435   4.854  20.184  0.00  0.00    +0.000 C 
BRANCH  11  13
ATOM     12  N   UNL     1       2.691   7.116  19.509  0.00  0.00    +0.000 N 
ATOM     13  C   UNL     1       2.308   5.826  19.850  0.00  0.00    +0.000 C 
ATOM     14  O   UNL     1       1.159   5.387  19.768  0.00  0.00    +0.000 OA
ATOM     15  H   UNL     1       3.669   7.291  19.297  0.00  0.00    +0.000 HD
BRANCH  12  21
ATOM     16  C   UNL     1       1.172   8.810  20.433  0.00  0.00    +0.000 A 
ATOM     17  C   UNL     1       0.258   9.858  20.226  0.00  0.00    +0.000 A 
ATOM     18  C   UNL     1       0.008  10.345  18.944  0.00  0.00    +0.000 A 
ATOM     19  C   UNL     1       0.647   9.774  17.855  0.00  0.00    +0.000 A 
ATOM     20  C   UNL     1       1.525   8.707  18.044  0.00  0.00    +0.000 A 
ATOM     21  C   UNL     1       1.808   8.214  19.324  0.00  0.00    +0.000 A 
BRANCH  16  23
ATOM     22  C   UNL     1       1.025   9.147  22.771  0.00  0.00    +0.000 C 
ATOM     23  O   UNL     1       1.486   8.332  21.687  0.00  0.00    +0.000 OA
ENDBRANCH  16  23
ENDBRANCH  12  21
ENDBRANCH  11  13
ENDBRANCH   1  11
BRANCH   4  24
ATOM     24  S   UNL     1       7.979   7.052  18.288  0.00  0.00    +0.000 S 
BRANCH  24  25
ATOM     25  C   UNL     1       7.526   8.633  17.524  0.00  0.00    +0.000 C 
BRANCH  25  26
ATOM     26  C   UNL     1       8.342   9.761  18.113  0.00  0.00    +0.000 A 
ATOM     27  C   UNL     1       9.113   9.550  19.268  0.00  0.00    +0.000 A 
ATOM     28  C   UNL     1       9.822  10.604  19.851  0.00  0.00    +0.000 A 
ATOM     29  C   UNL     1       9.771  11.877  19.287  0.00  0.00    +0.000 A 
ATOM     30  C   UNL     1       9.018  12.098  18.135  0.00  0.00    +0.000 A 
ATOM     31  C   UNL     1       8.307  11.047  17.551  0.00  0.00    +0.000 A 
ENDBRANCH  25  26
ENDBRANCH  24  25
ENDBRANCH   4  24
TORSDOF 7
ENDMDL
MODEL 2
REMARK VINA RESULT:      -7.6      0.957      1.683
REMARK  Name = 
REMARK  8 active torsions:
REMARK  status: ('A' for Active; 'I' for Inactive)
REMARK    1  A    between atoms: C_1  and  O_2
REMARK    2  A    between atoms: O_2  and  C_3
REMARK    3  A    between atoms: C_8  and  N_9
REMARK    4  A    between atoms: C_10  and  C_12
REMARK    5  A    between atoms: C_12  and  N_13
REMARK    6  A    between atoms: C_16  and  S_17
REMARK    7  A    between atoms: S_17  and  C_18
REMARK    8  A    between atoms: C_18  and  C_19
REMARK                            x       y       z     vdW  Elec       q    Type
REMARK                         _______ _______ _______ _____ _____    ______ ____
ROOT
ATOM      1  N   UNL     1       4.647   4.336  19.153  0.00  0.00    +0.000 N 
ATOM      2  N   UNL     1       5.659   5.279  19.131  0.00  0.00    +0.000 NA
ATOM      3  C   UNL     1       6.089   5.228  17.904  0.00  0.00    +0.000 A 
ATOM      4  C   UNL     1       7.179   5.990  17.216  0.00  0.00    +0.000 A 
ATOM      5  N   UNL     1       7.520   5.810  15.976  0.00  0.00    +0.000 NA
ATOM      6  C   UNL     1       6.800   4.848  15.285  0.00  0.00    +0.000 A 
ATOM      7  C   UNL     1       5.778   4.142  15.799  0.00  0.00    +0.000 A 
ATOM      8  N   UNL     1       5.438   4.345  17.101  0.00  0.00    +0.000 N 
ATOM      9  C   UNL     1       4.446   3.792  17.869  0.00  0.00    +0.000 A 
ATOM     10  O   UNL     1       3.571   3.022  17.520  0.00  0.00    +0.000 OA
ENDROOT
BRANCH   1  11
ATOM     11  C   UNL     1       3.708   4.247  20.242  0.00  0.00    +0.000 C 
BRANCH  11  13
ATOM     12  N   UNL     1       2.812   6.554  20.252  0.00  0.00    +0.000 N 
ATOM     13  C   UNL     1       2.528   5.203  20.102  0.00  0.00    +0.000 C 
ATOM     14  O   UNL     1       1.443   4.748  19.736  0.00  0.00    +0.000 OA
ATOM     15  H   UNL     1       3.784   6.849  20.235  0.00  0.00    +0.000 HD
BRANCH  12  21
ATOM     16  C   UNL     1       1.820   8.610  19.346  0.00  0.00    +0.000 A 
ATOM     17  C   UNL     1       0.894   9.661  19.465  0.00  0.00    +0.000 A 
ATOM     18  C   UNL     1      -0.026   9.687  20.511  0.00  0.00    +0.000 A 
ATOM     19  C   UNL     1      -0.015   8.680  21.463  0.00  0.00    +0.000 A 
ATOM     20  C   UNL     1       0.925   7.653  21.378  0.00  0.00    +0.000 A 
ATOM     21  C   UNL     1       1.846   7.594  20.324  0.00  0.00    +0.000 A 
BRANCH  16  23
ATOM     22  C   UNL     1       2.347   7.583  17.281  0.00  0.00    +0.000 C 
ATOM     23  O   UNL     1       2.714   8.518  18.300  0.00  0.00    +0.000 OA
ENDBRANCH  16  23
ENDBRANCH  12  21
ENDBRANCH  11  13
ENDBRANCH   1  11
BRANCH   4  24
ATOM     24  S   UNL     1       7.869   7.098  18.337  0.00  0.00    +0.000 S 
BRANCH  24  25
ATOM     25  C   UNL     1       7.689   8.660  17.434  0.00  0.00    +0.000 C 
BRANCH  25  26
ATOM     26  C   UNL     1       8.426   9.773  18.144  0.00  0.00    +0.000 A 
ATOM     27  C   UNL     1       9.080   9.525  19.362  0.00  0.00    +0.000 A 
ATOM     28  C   UNL     1       9.712  10.563  20.053  0.00  0.00    +0.000 A 
ATOM     29  C   UNL     1       9.699  11.856  19.536  0.00  0.00    +0.000 A 
ATOM     30  C   UNL     1       9.061  12.115  18.323  0.00  0.00    +0.000 A 
ATOM     31  C   UNL     1       8.428  11.080  17.631  0.00  0.00    +0.000 A 
ENDBRANCH  25  26
ENDBRANCH  24  25
ENDBRANCH   4  24
TORSDOF 7
ENDMDL
MODEL 3
REMARK VINA RESULT:      -7.3      3.574      8.042
REMARK  Name = 
REMARK  8 active torsions:
REMARK  status: ('A' for Active; 'I' for Inactive)
REMARK    1  A    between atoms: C_1  and  O_2
REMARK    2  A    between atoms: O_2  and  C_3
REMARK    3  A    between atoms: C_8  and  N_9
REMARK    4  A    between atoms: C_10  and  C_12
REMARK    5  A    between atoms: C_12  and  N_13
REMARK    6  A    between atoms: C_16  and  S_17
REMARK    7  A    between atoms: S_17  and  C_18
REMARK    8  A    between atoms: C_18  and  C_19
REMARK                            x       y       z     vdW  Elec       q    Type
REMARK                         _______ _______ _______ _____ _____    ______ ____
ROOT
ATOM      1  N   UNL     1       5.202   5.454  18.505  0.00  0.00    +0.000 N 
ATOM      2  N   UNL     1       4.225   6.375  18.838  0.00  0.00    +0.000 NA
ATOM      3  C   UNL     1       3.369   5.670  19.520  0.00  0.00    +0.000 A 
ATOM      4  C   UNL     1       2.077   6.059  20.169  0.00  0.00    +0.000 A 
ATOM      5  N   UNL     1       1.304   5.229  20.801  0.00  0.00    +0.000 NA
ATOM      6  C   UNL     1       1.744   3.916  20.859  0.00  0.00    +0.000 A 
ATOM      7  C   UNL     1       2.907   3.477  20.346  0.00  0.00    +0.000 A 
ATOM      8  N   UNL     1       3.702   4.362  19.685  0.00  0.00    +0.000 N 
ATOM      9  C   UNL     1       4.926   4.202  19.090  0.00  0.00    +0.000 A 
ATOM     10  O   UNL     1       5.633   3.212  19.085  0.00  0.00    +0.000 OA
ENDROOT
BRANCH   1  11
ATOM     11  C   UNL     1       6.482   5.854  17.978  0.00  0.00    +0.000 C 
BRANCH  11  13
ATOM     12  N   UNL     1       6.225   5.459  15.549  0.00  0.00    +0.000 N 
ATOM     13  C   UNL     1       6.881   5.095  16.718  0.00  0.00    +0.000 C 
ATOM     14  O   UNL     1       7.835   4.317  16.777  0.00  0.00    +0.000 OA
ATOM     15  H   UNL     1       5.689   6.322  15.543  0.00  0.00    +0.000 HD
BRANCH  12  21
ATOM     16  C   UNL     1       7.420   5.007  13.451  0.00  0.00    +0.000 A 
ATOM     17  C   UNL     1       7.470   4.367  12.201  0.00  0.00    +0.000 A 
ATOM     18  C   UNL     1       6.471   3.474  11.815  0.00  0.00    +0.000 A 
ATOM     19  C   UNL     1       5.401   3.232  12.661  0.00  0.00    +0.000 A 
ATOM     20  C   UNL     1       5.320   3.892  13.887  0.00  0.00    +0.000 A 
ATOM     21  C   UNL     1       6.321   4.777  14.306  0.00  0.00    +0.000 A 
BRANCH  16  23
ATOM     22  C   UNL     1       9.471   6.078  12.957  0.00  0.00    +0.000 C 
ATOM     23  O   UNL     1       8.411   5.858  13.893  0.00  0.00    +0.000 OA
ENDBRANCH  16  23
ENDBRANCH  12  21
ENDBRANCH  11  13
ENDBRANCH   1  11
BRANCH   4  24
ATOM     24  S   UNL     1       1.820   7.742  19.921  0.00  0.00    +0.000 S 
BRANCH  24  25
ATOM     25  C   UNL     1       1.501   8.296  21.617  0.00  0.00    +0.000 C 
BRANCH  25  26
ATOM     26  C   UNL     1       0.513   9.440  21.626  0.00  0.00    +0.000 A 
ATOM     27  C   UNL     1       0.272  10.178  20.456  0.00  0.00    +0.000 A 
ATOM     28  C   UNL     1      -0.596  11.273  20.473  0.00  0.00    +0.000 A 
ATOM     29  C   UNL     1      -1.233  11.642  21.655  0.00  0.00    +0.000 A 
ATOM     30  C   UNL     1      -1.011  10.913  22.822  0.00  0.00    +0.000 A 
ATOM     31  C   UNL     1      -0.143   9.818  22.809  0.00  0.00    +0.000 A 
ENDBRANCH  25  26
ENDBRANCH  24  25
ENDBRANCH   4  24
TORSDOF 7
ENDMDL
MODEL 4
REMARK VINA RESULT:      -7.2      5.266      8.582
REMARK  Name = 
REMARK  8 active torsions:
REMARK  status: ('A' for Active; 'I' for Inactive)
REMARK    1  A    between atoms: C_1  and  O_2
REMARK    2  A    between atoms: O_2  and  C_3
REMARK    3  A    between atoms: C_8  and  N_9
REMARK    4  A    between atoms: C_10  and  C_12
REMARK    5  A    between atoms: C_12  and  N_13
REMARK    6  A    between atoms: C_16  and  S_17
REMARK    7  A    between atoms: S_17  and  C_18
REMARK    8  A    between atoms: C_18  and  C_19
REMARK                            x       y       z     vdW  Elec       q    Type
REMARK                         _______ _______ _______ _____ _____    ______ ____
ROOT
ATOM      1  N   UNL     1      -0.614  11.223  19.021  0.00  0.00    +0.000 N 
ATOM      2  N   UNL     1       0.209  10.179  18.642  0.00  0.00    +0.000 NA
ATOM      3  C   UNL     1       0.620   9.693  19.778  0.00  0.00    +0.000 A 
ATOM      4  C   UNL     1       1.541   8.552  20.079  0.00  0.00    +0.000 A 
ATOM      5  N   UNL     1       1.888   8.197  21.279  0.00  0.00    +0.000 NA
ATOM      6  C   UNL     1       1.344   8.943  22.312  0.00  0.00    +0.000 A 
ATOM      7  C   UNL     1       0.476   9.956  22.148  0.00  0.00    +0.000 A 
ATOM      8  N   UNL     1       0.127  10.315  20.882  0.00  0.00    +0.000 N 
ATOM      9  C   UNL     1      -0.734  11.278  20.424  0.00  0.00    +0.000 A 
ATOM     10  O   UNL     1      -1.461  12.004  21.077  0.00  0.00    +0.000 OA
ENDROOT
BRANCH   1  11
ATOM     11  C   UNL     1      -1.503  11.873  18.092  0.00  0.00    +0.000 C 
BRANCH  11  13
ATOM     12  N   UNL     1      -3.700  12.554  19.003  0.00  0.00    +0.000 N 
ATOM     13  C   UNL     1      -2.974  11.568  18.349  0.00  0.00    +0.000 C 
ATOM     14  O   UNL     1      -3.459  10.549  17.853  0.00  0.00    +0.000 OA
ATOM     15  H   UNL     1      -3.293  13.481  19.086  0.00  0.00    +0.000 HD
BRANCH  12  21
ATOM     16  C   UNL     1      -5.306  12.555  20.862  0.00  0.00    +0.000 A 
ATOM     17  C   UNL     1      -6.617  12.357  21.328  0.00  0.00    +0.000 A 
ATOM     18  C   UNL     1      -7.654  12.067  20.443  0.00  0.00    +0.000 A 
ATOM     19  C   UNL     1      -7.388  11.946  19.088  0.00  0.00    +0.000 A 
ATOM     20  C   UNL     1      -6.084  12.102  18.618  0.00  0.00    +0.000 A 
ATOM     21  C   UNL     1      -5.029  12.414  19.486  0.00  0.00    +0.000 A 
BRANCH  16  23
ATOM     22  C   UNL     1      -4.623  13.058  23.071  0.00  0.00    +0.000 C 
ATOM     23  O   UNL     1      -4.261  12.893  21.695  0.00  0.00    +0.000 OA
ENDBRANCH  16  23
ENDBRANCH  12  21
ENDBRANCH  11  13
ENDBRANCH   1  11
BRANCH   4  24
ATOM     24  S   UNL     1       2.038   7.837  18.594  0.00  0.00    +0.000 S 
BRANCH  24  25
ATOM     25  C   UNL     1       3.094   6.493  19.196  0.00  0.00    +0.000 C 
BRANCH  25  26
ATOM     26  C   UNL     1       2.322   5.194  19.251  0.00  0.00    +0.000 A 
ATOM     27  C   UNL     1       2.157   4.418  18.093  0.00  0.00    +0.000 A 
ATOM     28  C   UNL     1       1.394   3.247  18.125  0.00  0.00    +0.000 A 
ATOM     29  C   UNL     1       0.791   2.839  19.312  0.00  0.00    +0.000 A 
ATOM     30  C   UNL     1       0.955   3.594  20.472  0.00  0.00    +0.000 A 
ATOM     31  C   UNL     1       1.716   4.765  20.443  0.00  0.00    +0.000 A 
ENDBRANCH  25  26
ENDBRANCH  24  25
ENDBRANCH   4  24
TORSDOF 7
ENDMDL
MODEL 5
REMARK VINA RESULT:      -7.2      2.754      6.863
REMARK  Name = 
REMARK  8 active torsions:
REMARK  status: ('A' for Active; 'I' for Inactive)
REMARK    1  A    between atoms: C_1  and  O_2
REMARK    2  A    between atoms: O_2  and  C_3
REMARK    3  A    between atoms: C_8  and  N_9
REMARK    4  A    between atoms: C_10  and  C_12
REMARK    5  A    between atoms: C_12  and  N_13
REMARK    6  A    between atoms: C_16  and  S_17
REMARK    7  A    between atoms: S_17  and  C_18
REMARK    8  A    between atoms: C_18  and  C_19
REMARK                            x       y       z     vdW  Elec       q    Type
REMARK                         _______ _______ _______ _____ _____    ______ ____
ROOT
ATOM      1  N   UNL     1       6.974   6.210  18.205  0.00  0.00    +0.000 N 
ATOM      2  N   UNL     1       5.705   6.444  18.701  0.00  0.00    +0.000 NA
ATOM      3  C   UNL     1       4.986   5.520  18.133  0.00  0.00    +0.000 A 
ATOM      4  C   UNL     1       3.524   5.215  18.236  0.00  0.00    +0.000 A 
ATOM      5  N   UNL     1       2.932   4.264  17.577  0.00  0.00    +0.000 NA
ATOM      6  C   UNL     1       3.744   3.508  16.747  0.00  0.00    +0.000 A 
ATOM      7  C   UNL     1       5.071   3.675  16.617  0.00  0.00    +0.000 A 
ATOM      8  N   UNL     1       5.671   4.678  17.314  0.00  0.00    +0.000 N 
ATOM      9  C   UNL     1       6.986   5.061  17.389  0.00  0.00    +0.000 A 
ATOM     10  O   UNL     1       7.953   4.520  16.887  0.00  0.00    +0.000 OA
ENDROOT
BRANCH   1  11
ATOM     11  C   UNL     1       8.144   6.828  18.775  0.00  0.00    +0.000 C 
BRANCH  11  13
ATOM     12  N   UNL     1       9.166   9.049  19.154  0.00  0.00    +0.000 N 
ATOM     13  C   UNL     1       8.322   8.284  18.361  0.00  0.00    +0.000 C 
ATOM     14  O   UNL     1       7.829   8.656  17.294  0.00  0.00    +0.000 OA
ATOM     15  H   UNL     1       9.770   8.573  19.818  0.00  0.00    +0.000 HD
BRANCH  12  21
ATOM     16  C   UNL     1       9.169  11.282  20.179  0.00  0.00    +0.000 A 
ATOM     17  C   UNL     1       9.293  12.675  20.042  0.00  0.00    +0.000 A 
ATOM     18  C   UNL     1       9.630  13.246  18.816  0.00  0.00    +0.000 A 
ATOM     19  C   UNL     1       9.821  12.435  17.709  0.00  0.00    +0.000 A 
ATOM     20  C   UNL     1       9.662  11.054  17.822  0.00  0.00    +0.000 A 
ATOM     21  C   UNL     1       9.343  10.455  19.048  0.00  0.00    +0.000 A 
BRANCH  16  23
ATOM     22  C   UNL     1       8.395  11.554  22.397  0.00  0.00    +0.000 C 
ATOM     23  O   UNL     1       8.887  10.672  21.382  0.00  0.00    +0.000 OA
ENDBRANCH  16  23
ENDBRANCH  12  21
ENDBRANCH  11  13
ENDBRANCH   1  11
BRANCH   4  24
ATOM     24  S   UNL     1       2.806   6.323  19.340  0.00  0.00    +0.000 S 
BRANCH  24  25
ATOM     25  C   UNL     1       2.550   7.761  18.266  0.00  0.00    +0.000 C 
BRANCH  25  26
ATOM     26  C   UNL     1       1.513   8.689  18.859  0.00  0.00    +0.000 A 
ATOM     27  C   UNL     1       0.821   9.594  18.039  0.00  0.00    +0.000 A 
ATOM     28  C   UNL     1      -0.095  10.495  18.590  0.00  0.00    +0.000 A 
ATOM     29  C   UNL     1      -0.330  10.500  19.963  0.00  0.00    +0.000 A 
ATOM     30  C   UNL     1       0.344   9.601  20.788  0.00  0.00    +0.000 A 
ATOM     31  C   UNL     1       1.260   8.700  20.240  0.00  0.00    +0.000 A 
ENDBRANCH  25  26
ENDBRANCH  24  25
ENDBRANCH   4  24
TORSDOF 7
ENDMDL
MODEL 6
REMARK VINA RESULT:      -7.1      3.584      5.641
REMARK  Name = 
REMARK  8 active torsions:
REMARK  status: ('A' for Active; 'I' for Inactive)
REMARK    1  A    between atoms: C_1  and  O_2
REMARK    2  A    between atoms: O_2  and  C_3
REMARK    3  A    between atoms: C_8  and  N_9
REMARK    4  A    between atoms: C_10  and  C_12
REMARK    5  A    between atoms: C_12  and  N_13
REMARK    6  A    between atoms: C_16  and  S_17
REMARK    7  A    between atoms: S_17  and  C_18
REMARK    8  A    between atoms: C_18  and  C_19
REMARK                            x       y       z     vdW  Elec       q    Type
REMARK                         _______ _______ _______ _____ _____    ______ ____
ROOT
ATOM      1  N   UNL     1       1.984   8.474  18.316  0.00  0.00    +0.000 N 
ATOM      2  N   UNL     1       2.955   8.007  17.450  0.00  0.00    +0.000 NA
ATOM      3  C   UNL     1       3.440   6.972  18.074  0.00  0.00    +0.000 A 
ATOM      4  C   UNL     1       4.526   6.016  17.688  0.00  0.00    +0.000 A 
ATOM      5  N   UNL     1       4.928   5.034  18.436  0.00  0.00    +0.000 NA
ATOM      6  C   UNL     1       4.280   4.896  19.652  0.00  0.00    +0.000 A 
ATOM      7  C   UNL     1       3.266   5.673  20.072  0.00  0.00    +0.000 A 
ATOM      8  N   UNL     1       2.862   6.700  19.274  0.00  0.00    +0.000 N 
ATOM      9  C   UNL     1       1.862   7.624  19.433  0.00  0.00    +0.000 A 
ATOM     10  O   UNL     1       1.035   7.686  20.324  0.00  0.00    +0.000 OA
ENDROOT
BRANCH   1  11
ATOM     11  C   UNL     1       1.003   9.448  17.911  0.00  0.00    +0.000 C 
BRANCH  11  13
ATOM     12  N   UNL     1      -0.387  10.388  19.731  0.00  0.00    +0.000 N 
ATOM     13  C   UNL     1       0.758  10.530  18.958  0.00  0.00    +0.000 C 
ATOM     14  O   UNL     1       1.637  11.372  19.149  0.00  0.00    +0.000 OA
ATOM     15  H   UNL     1      -0.876   9.498  19.713  0.00  0.00    +0.000 HD
BRANCH  12  21
ATOM     16  C   UNL     1      -0.480  11.346  21.991  0.00  0.00    +0.000 A 
ATOM     17  C   UNL     1      -1.031  12.276  22.889  0.00  0.00    +0.000 A 
ATOM     18  C   UNL     1      -1.942  13.237  22.452  0.00  0.00    +0.000 A 
ATOM     19  C   UNL     1      -2.331  13.262  21.123  0.00  0.00    +0.000 A 
ATOM     20  C   UNL     1      -1.822  12.319  20.231  0.00  0.00    +0.000 A 
ATOM     21  C   UNL     1      -0.890  11.357  20.640  0.00  0.00    +0.000 A 
BRANCH  16  23
ATOM     22  C   UNL     1      -0.007   9.439  23.309  0.00  0.00    +0.000 C 
ATOM     23  O   UNL     1       0.461  10.412  22.368  0.00  0.00    +0.000 OA
ENDBRANCH  16  23
ENDBRANCH  12  21
ENDBRANCH  11  13
ENDBRANCH   1  11
BRANCH   4  24
ATOM     24  S   UNL     1       5.121   6.456  16.134  0.00  0.00    +0.000 S 
BRANCH  24  25
ATOM     25  C   UNL     1       6.486   5.278  15.942  0.00  0.00    +0.000 C 
BRANCH  25  26
ATOM     26  C   UNL     1       6.606   4.834  14.501  0.00  0.00    +0.000 A 
ATOM     27  C   UNL     1       5.747   3.849  13.990  0.00  0.00    +0.000 A 
ATOM     28  C   UNL     1       5.892   3.392  12.677  0.00  0.00    +0.000 A 
ATOM     29  C   UNL     1       6.894   3.914  11.862  0.00  0.00    +0.000 A 
ATOM     30  C   UNL     1       7.748   4.900  12.354  0.00  0.00    +0.000 A 
ATOM     31  C   UNL     1       7.606   5.357  13.666  0.00  0.00    +0.000 A 
ENDBRANCH  25  26
ENDBRANCH  24  25
ENDBRANCH   4  24
TORSDOF 7
ENDMDL
MODEL 7
REMARK VINA RESULT:      -7.1      1.002      1.441
REMARK  Name = 
REMARK  8 active torsions:
REMARK  status: ('A' for Active; 'I' for Inactive)
REMARK    1  A    between atoms: C_1  and  O_2
REMARK    2  A    between atoms: O_2  and  C_3
REMARK    3  A    between atoms: C_8  and  N_9
REMARK    4  A    between atoms: C_10  and  C_12
REMARK    5  A    between atoms: C_12  and  N_13
REMARK    6  A    between atoms: C_16  and  S_17
REMARK    7  A    between atoms: S_17  and  C_18
REMARK    8  A    between atoms: C_18  and  C_19
REMARK                            x       y       z     vdW  Elec       q    Type
REMARK                         _______ _______ _______ _____ _____    ______ ____
ROOT
ATOM      1  N   UNL     1       3.912   5.401  18.900  0.00  0.00    +0.000 N 
ATOM      2  N   UNL     1       5.161   5.995  18.933  0.00  0.00    +0.000 NA
ATOM      3  C   UNL     1       5.764   5.482  17.901  0.00  0.00    +0.000 A 
ATOM      4  C   UNL     1       7.147   5.697  17.367  0.00  0.00    +0.000 A 
ATOM      5  N   UNL     1       7.628   5.083  16.329  0.00  0.00    +0.000 NA
ATOM      6  C   UNL     1       6.773   4.189  15.705  0.00  0.00    +0.000 A 
ATOM      7  C   UNL     1       5.503   3.957  16.080  0.00  0.00    +0.000 A 
ATOM      8  N   UNL     1       5.019   4.609  17.173  0.00  0.00    +0.000 N 
ATOM      9  C   UNL     1       3.780   4.583  17.761  0.00  0.00    +0.000 A 
ATOM     10  O   UNL     1       2.781   4.005  17.376  0.00  0.00    +0.000 OA
ENDROOT
BRANCH   1  11
ATOM     11  C   UNL     1       2.815   5.881  19.701  0.00  0.00    +0.000 C 
BRANCH  11  13
ATOM     12  N   UNL     1       1.664   7.994  20.280  0.00  0.00    +0.000 N 
ATOM     13  C   UNL     1       2.342   7.275  19.304  0.00  0.00    +0.000 C 
ATOM     14  O   UNL     1       2.698   7.729  18.215  0.00  0.00    +0.000 OA
ATOM     15  H   UNL     1       1.700   7.662  21.239  0.00  0.00    +0.000 HD
BRANCH  12  21
ATOM     16  C   UNL     1       0.494   9.961  21.173  0.00  0.00    +0.000 A 
ATOM     17  C   UNL     1      -0.211  11.155  20.947  0.00  0.00    +0.000 A 
ATOM     18  C   UNL     1      -0.379  11.652  19.655  0.00  0.00    +0.000 A 
ATOM     19  C   UNL     1       0.132  10.949  18.576  0.00  0.00    +0.000 A 
ATOM     20  C   UNL     1       0.799   9.742  18.785  0.00  0.00    +0.000 A 
ATOM     21  C   UNL     1       0.998   9.233  20.074  0.00  0.00    +0.000 A 
BRANCH  16  23
ATOM     22  C   UNL     1      -0.288   9.769  23.398  0.00  0.00    +0.000 C 
ATOM     23  O   UNL     1       0.727   9.460  22.436  0.00  0.00    +0.000 OA
ENDBRANCH  16  23
ENDBRANCH  12  21
ENDBRANCH  11  13
ENDBRANCH   1  11
BRANCH   4  24
ATOM     24  S   UNL     1       7.945   6.858  18.356  0.00  0.00    +0.000 S 
BRANCH  24  25
ATOM     25  C   UNL     1       7.584   8.387  17.451  0.00  0.00    +0.000 C 
BRANCH  25  26
ATOM     26  C   UNL     1       8.288   9.562  18.091  0.00  0.00    +0.000 A 
ATOM     27  C   UNL     1       8.240  10.830  17.489  0.00  0.00    +0.000 A 
ATOM     28  C   UNL     1       8.938  11.906  18.045  0.00  0.00    +0.000 A 
ATOM     29  C   UNL     1       9.687  11.729  19.206  0.00  0.00    +0.000 A 
ATOM     30  C   UNL     1       9.735  10.478  19.819  0.00  0.00    +0.000 A 
ATOM     31  C   UNL     1       9.040   9.400  19.265  0.00  0.00    +0.000 A 
ENDBRANCH  25  26
ENDBRANCH  24  25
ENDBRANCH   4  24
TORSDOF 7
ENDMDL
MODEL 8
REMARK VINA RESULT:      -7.0      4.756      8.128
REMARK  Name = 
REMARK  8 active torsions:
REMARK  status: ('A' for Active; 'I' for Inactive)
REMARK    1  A    between atoms: C_1  and  O_2
REMARK    2  A    between atoms: O_2  and  C_3
REMARK    3  A    between atoms: C_8  and  N_9
REMARK    4  A    between atoms: C_10  and  C_12
REMARK    5  A    between atoms: C_12  and  N_13
REMARK    6  A    between atoms: C_16  and  S_17
REMARK    7  A    between atoms: S_17  and  C_18
REMARK    8  A    between atoms: C_18  and  C_19
REMARK                            x       y       z     vdW  Elec       q    Type
REMARK                         _______ _______ _______ _____ _____    ______ ____
ROOT
ATOM      1  N   UNL     1      -0.229  11.478  19.011  0.00  0.00    +0.000 N 
ATOM      2  N   UNL     1       0.525  10.500  18.388  0.00  0.00    +0.000 NA
ATOM      3  C   UNL     1       0.860   9.710  19.366  0.00  0.00    +0.000 A 
ATOM      4  C   UNL     1       1.682   8.459  19.377  0.00  0.00    +0.000 A 
ATOM      5  N   UNL     1       1.962   7.783  20.450  0.00  0.00    +0.000 NA
ATOM      6  C   UNL     1       1.442   8.284  21.632  0.00  0.00    +0.000 A 
ATOM      7  C   UNL     1       0.658   9.373  21.723  0.00  0.00    +0.000 A 
ATOM      8  N   UNL     1       0.380  10.068  20.587  0.00  0.00    +0.000 N 
ATOM      9  C   UNL     1      -0.391  11.183  20.380  0.00  0.00    +0.000 A 
ATOM     10  O   UNL     1      -1.083  11.776  21.187  0.00  0.00    +0.000 OA
ENDROOT
BRANCH   1  11
ATOM     11  C   UNL     1      -1.035  12.412  18.268  0.00  0.00    +0.000 C 
BRANCH  11  13
ATOM     12  N   UNL     1      -3.370  12.539  19.080  0.00  0.00    +0.000 N 
ATOM     13  C   UNL     1      -2.496  11.991  18.151  0.00  0.00    +0.000 C 
ATOM     14  O   UNL     1      -2.836  11.313  17.179  0.00  0.00    +0.000 OA
ATOM     15  H   UNL     1      -3.052  13.328  19.637  0.00  0.00    +0.000 HD
BRANCH  12  21
ATOM     16  C   UNL     1      -5.324  12.217  20.533  0.00  0.00    +0.000 A 
ATOM     17  C   UNL     1      -6.651  11.785  20.698  0.00  0.00    +0.000 A 
ATOM     18  C   UNL     1      -7.399  11.344  19.607  0.00  0.00    +0.000 A 
ATOM     19  C   UNL     1      -6.822  11.305  18.348  0.00  0.00    +0.000 A 
ATOM     20  C   UNL     1      -5.493  11.694  18.179  0.00  0.00    +0.000 A 
ATOM     21  C   UNL     1      -4.728  12.160  19.255  0.00  0.00    +0.000 A 
BRANCH  16  23
ATOM     22  C   UNL     1      -5.317  13.109  22.725  0.00  0.00    +0.000 C 
ATOM     23  O   UNL     1      -4.565  12.708  21.574  0.00  0.00    +0.000 OA
ENDBRANCH  16  23
ENDBRANCH  12  21
ENDBRANCH  11  13
ENDBRANCH   1  11
BRANCH   4  24
ATOM     24  S   UNL     1       2.172   8.108  17.765  0.00  0.00    +0.000 S 
BRANCH  24  25
ATOM     25  C   UNL     1       3.591   7.020  18.066  0.00  0.00    +0.000 C 
BRANCH  25  26
ATOM     26  C   UNL     1       3.214   5.575  17.826  0.00  0.00    +0.000 A 
ATOM     27  C   UNL     1       1.891   5.147  18.025  0.00  0.00    +0.000 A 
ATOM     28  C   UNL     1       1.549   3.801  17.863  0.00  0.00    +0.000 A 
ATOM     29  C   UNL     1       2.521   2.872  17.500  0.00  0.00    +0.000 A 
ATOM     30  C   UNL     1       3.836   3.285  17.290  0.00  0.00    +0.000 A 
ATOM     31  C   UNL     1       4.181   4.629  17.453  0.00  0.00    +0.000 A 
ENDBRANCH  25  26
ENDBRANCH  24  25
ENDBRANCH   4  24
TORSDOF 7
ENDMDL
MODEL 9
REMARK VINA RESULT:      -7.0      3.596      5.111
REMARK  Name = 
REMARK  8 active torsions:
REMARK  status: ('A' for Active; 'I' for Inactive)
REMARK    1  A    between atoms: C_1  and  O_2
REMARK    2  A    between atoms: O_2  and  C_3
REMARK    3  A    between atoms: C_8  and  N_9
REMARK    4  A    between atoms: C_10  and  C_12
REMARK    5  A    between atoms: C_12  and  N_13
REMARK    6  A    between atoms: C_16  and  S_17
REMARK    7  A    between atoms: S_17  and  C_18
REMARK    8  A    between atoms: C_18  and  C_19
REMARK                            x       y       z     vdW  Elec       q    Type
REMARK                         _______ _______ _______ _____ _____    ______ ____
ROOT
ATOM      1  N   UNL     1       2.537   6.283  19.909  0.00  0.00    +0.000 N 
ATOM      2  N   UNL     1       3.400   6.364  18.830  0.00  0.00    +0.000 NA
ATOM      3  C   UNL     1       3.437   5.142  18.384  0.00  0.00    +0.000 A 
ATOM      4  C   UNL     1       4.188   4.541  17.237  0.00  0.00    +0.000 A 
ATOM      5  N   UNL     1       4.150   3.281  16.925  0.00  0.00    +0.000 NA
ATOM      6  C   UNL     1       3.348   2.483  17.725  0.00  0.00    +0.000 A 
ATOM      7  C   UNL     1       2.604   2.933  18.751  0.00  0.00    +0.000 A 
ATOM      8  N   UNL     1       2.660   4.256  19.063  0.00  0.00    +0.000 N 
ATOM      9  C   UNL     1       2.007   4.983  20.025  0.00  0.00    +0.000 A 
ATOM     10  O   UNL     1       1.144   4.602  20.794  0.00  0.00    +0.000 OA
ENDROOT
BRANCH   1  11
ATOM     11  C   UNL     1       1.988   7.457  20.538  0.00  0.00    +0.000 C 
BRANCH  11  13
ATOM     12  N   UNL     1       0.708   9.523  20.076  0.00  0.00    +0.000 N 
ATOM     13  C   UNL     1       1.462   8.486  19.544  0.00  0.00    +0.000 C 
ATOM     14  O   UNL     1       1.840   8.418  18.373  0.00  0.00    +0.000 OA
ATOM     15  H   UNL     1       0.721   9.665  21.082  0.00  0.00    +0.000 HD
BRANCH  12  21
ATOM     16  C   UNL     1       0.425  11.831  19.282  0.00  0.00    +0.000 A 
ATOM     17  C   UNL     1      -0.330  12.783  18.576  0.00  0.00    +0.000 A 
ATOM     18  C   UNL     1      -1.477  12.410  17.877  0.00  0.00    +0.000 A 
ATOM     19  C   UNL     1      -1.896  11.090  17.897  0.00  0.00    +0.000 A 
ATOM     20  C   UNL     1      -1.177  10.143  18.627  0.00  0.00    +0.000 A 
ATOM     21  C   UNL     1      -0.011  10.489  19.321  0.00  0.00    +0.000 A 
BRANCH  16  23
ATOM     22  C   UNL     1       2.367  13.182  19.330  0.00  0.00    +0.000 C 
ATOM     23  O   UNL     1       1.592  12.146  19.945  0.00  0.00    +0.000 OA
ENDBRANCH  16  23
ENDBRANCH  12  21
ENDBRANCH  11  13
ENDBRANCH   1  11
BRANCH   4  24
ATOM     24  S   UNL     1       5.079   5.784  16.449  0.00  0.00    +0.000 S 
BRANCH  24  25
ATOM     25  C   UNL     1       6.642   4.929  16.114  0.00  0.00    +0.000 C 
BRANCH  25  26
ATOM     26  C   UNL     1       6.786   4.645  14.635  0.00  0.00    +0.000 A 
ATOM     27  C   UNL     1       7.704   5.374  13.861  0.00  0.00    +0.000 A 
ATOM     28  C   UNL     1       7.799   5.157  12.483  0.00  0.00    +0.000 A 
ATOM     29  C   UNL     1       6.983   4.212  11.866  0.00  0.00    +0.000 A 
ATOM     30  C   UNL     1       6.075   3.475  12.624  0.00  0.00    +0.000 A 
ATOM     31  C   UNL     1       5.976   3.690  14.001  0.00  0.00    +0.000 A 
ENDBRANCH  25  26
ENDBRANCH  24  25
ENDBRANCH   4  24
TORSDOF 7
ENDMDL
