MODEL 1
REMARK VINA RESULT:      -6.6      0.000      0.000
REMARK  Name = 
REMARK  5 active torsions:
REMARK  status: ('A' for Active; 'I' for Inactive)
REMARK    1  A    between atoms: C_1  and  C_2
REMARK    2  A    between atoms: C_2  and  N_3
REMARK    3  A    between atoms: C_5  and  O_6
REMARK    4  A    between atoms: O_6  and  C_7
REMARK    5  A    between atoms: C_7  and  C_9
REMARK                            x       y       z     vdW  Elec       q    Type
REMARK                         _______ _______ _______ _____ _____    ______ ____
ROOT
ATOM      1  C   UNL     1       4.687   4.457  19.061  0.00  0.00    +0.000 C 
ATOM      2  O   UNL     1       5.646   3.861  19.531  0.00  0.00    +0.000 OA
ENDROOT
BRANCH   1   3
ATOM      3  C   UNL     1       3.314   4.022  19.402  0.00  0.00    +0.000 A 
ATOM      4  C   UNL     1       2.585   4.900  20.223  0.00  0.00    +0.000 A 
ATOM      5  C   UNL     1       1.334   4.516  20.673  0.00  0.00    +0.000 A 
ATOM      6  N   UNL     1       0.774   3.335  20.357  0.00  0.00    +0.000 NA
ATOM      7  C   UNL     1       1.494   2.505  19.565  0.00  0.00    +0.000 A 
ATOM      8  C   UNL     1       2.759   2.792  19.060  0.00  0.00    +0.000 A 
ATOM      9 CL   UNL     1       3.545   1.582  18.123  0.00  0.00    +0.000 Cl
ENDBRANCH   1   3
BRANCH   1  10
ATOM     10  O   UNL     1       4.716   5.561  18.266  0.00  0.00    +0.000 OA
BRANCH  10  13
ATOM     11  N   UNL     1       6.677   5.270  15.389  0.00  0.00    +0.000 N 
ATOM     12  C   UNL     1       5.561   4.921  16.103  0.00  0.00    +0.000 A 
ATOM     13  C   UNL     1       5.651   5.611  17.286  0.00  0.00    +0.000 A 
ATOM     14  C   UNL     1       6.842   6.353  17.189  0.00  0.00    +0.000 A 
ATOM     15  N   UNL     1       7.476   6.143  16.031  0.00  0.00    +0.000 NA
BRANCH  11  17
ATOM     16  C   UNL     1       6.094   3.767  13.534  0.00  0.00    +0.000 C 
ATOM     17  C   UNL     1       7.033   4.846  14.047  0.00  0.00    +0.000 C 
ENDBRANCH  11  17
ENDBRANCH  10  13
ENDBRANCH   1  10
TORSDOF 4
ENDMDL
MODEL 2
REMARK VINA RESULT:      -6.5      1.397      1.517
REMARK  Name = 
REMARK  5 active torsions:
REMARK  status: ('A' for Active; 'I' for Inactive)
REMARK    1  A    between atoms: C_1  and  C_2
REMARK    2  A    between atoms: C_2  and  N_3
REMARK    3  A    between atoms: C_5  and  O_6
REMARK    4  A    between atoms: O_6  and  C_7
REMARK    5  A    between atoms: C_7  and  C_9
REMARK                            x       y       z     vdW  Elec       q    Type
REMARK                         _______ _______ _______ _____ _____    ______ ____
ROOT
ATOM      1  C   UNL     1       4.916   4.788  19.063  0.00  0.00    +0.000 C 
ATOM      2  O   UNL     1       4.800   5.855  19.648  0.00  0.00    +0.000 OA
ENDROOT
BRANCH   1   3
ATOM      3  C   UNL     1       3.714   3.978  18.768  0.00  0.00    +0.000 A 
ATOM      4  C   UNL     1       2.728   4.613  17.992  0.00  0.00    +0.000 A 
ATOM      5  C   UNL     1       1.530   3.961  17.763  0.00  0.00    +0.000 A 
ATOM      6  N   UNL     1       1.259   2.736  18.248  0.00  0.00    +0.000 NA
ATOM      7  C   UNL     1       2.222   2.143  18.994  0.00  0.00    +0.000 A 
ATOM      8  C   UNL     1       3.459   2.709  19.285  0.00  0.00    +0.000 A 
ATOM      9 CL   UNL     1       4.529   1.828  20.305  0.00  0.00    +0.000 Cl
ENDBRANCH   1   3
BRANCH   1  10
ATOM     10  O   UNL     1       6.062   4.241  18.572  0.00  0.00    +0.000 OA
BRANCH  10  13
ATOM     11  N   UNL     1       6.992   4.906  15.270  0.00  0.00    +0.000 N 
ATOM     12  C   UNL     1       6.411   4.077  16.195  0.00  0.00    +0.000 A 
ATOM     13  C   UNL     1       6.540   4.723  17.398  0.00  0.00    +0.000 A 
ATOM     14  C   UNL     1       7.197   5.931  17.100  0.00  0.00    +0.000 A 
ATOM     15  N   UNL     1       7.480   6.044  15.798  0.00  0.00    +0.000 NA
BRANCH  11  17
ATOM     16  C   UNL     1       5.952   3.818  13.327  0.00  0.00    +0.000 C 
ATOM     17  C   UNL     1       7.078   4.702  13.835  0.00  0.00    +0.000 C 
ENDBRANCH  11  17
ENDBRANCH  10  13
ENDBRANCH   1  10
TORSDOF 4
ENDMDL
MODEL 3
REMARK VINA RESULT:      -6.4      3.136      4.210
REMARK  Name = 
REMARK  5 active torsions:
REMARK  status: ('A' for Active; 'I' for Inactive)
REMARK    1  A    between atoms: C_1  and  C_2
REMARK    2  A    between atoms: C_2  and  N_3
REMARK    3  A    between atoms: C_5  and  O_6
REMARK    4  A    between atoms: O_6  and  C_7
REMARK    5  A    between atoms: C_7  and  C_9
REMARK                            x       y       z     vdW  Elec       q    Type
REMARK                         _______ _______ _______ _____ _____    ______ ____
ROOT
ATOM      1  C   UNL     1       5.976   5.952  15.744  0.00  0.00    +0.000 C 
ATOM      2  O   UNL     1       5.233   6.796  15.262  0.00  0.00    +0.000 OA
ENDROOT
BRANCH   1   3
ATOM      3  C   UNL     1       5.627   5.319  17.035  0.00  0.00    +0.000 A 
ATOM      4  C   UNL     1       4.464   4.529  17.029  0.00  0.00    +0.000 A 
ATOM      5  C   UNL     1       4.012   3.990  18.221  0.00  0.00    +0.000 A 
ATOM      6  N   UNL     1       4.639   4.182  19.395  0.00  0.00    +0.000 NA
ATOM      7  C   UNL     1       5.757   4.946  19.377  0.00  0.00    +0.000 A 
ATOM      8  C   UNL     1       6.296   5.535  18.238  0.00  0.00    +0.000 A 
ATOM      9 CL   UNL     1       7.690   6.527  18.425  0.00  0.00    +0.000 Cl
ENDBRANCH   1   3
BRANCH   1  10
ATOM     10  O   UNL     1       7.116   5.453  15.195  0.00  0.00    +0.000 OA
BRANCH  10  13
ATOM     11  N   UNL     1       6.342   3.453  12.436  0.00  0.00    +0.000 N 
ATOM     12  C   UNL     1       6.150   3.783  13.753  0.00  0.00    +0.000 A 
ATOM     13  C   UNL     1       7.018   4.816  14.002  0.00  0.00    +0.000 A 
ATOM     14  C   UNL     1       7.678   5.046  12.781  0.00  0.00    +0.000 A 
ATOM     15  N   UNL     1       7.270   4.209  11.822  0.00  0.00    +0.000 NA
BRANCH  11  17
ATOM     16  C   UNL     1       6.582   1.412  11.089  0.00  0.00    +0.000 C 
ATOM     17  C   UNL     1       5.632   2.446  11.668  0.00  0.00    +0.000 C 
ENDBRANCH  11  17
ENDBRANCH  10  13
ENDBRANCH   1  10
TORSDOF 4
ENDMDL
MODEL 4
REMARK VINA RESULT:      -6.3      1.014      1.049
REMARK  Name = 
REMARK  5 active torsions:
REMARK  status: ('A' for Active; 'I' for Inactive)
REMARK    1  A    between atoms: C_1  and  C_2
REMARK    2  A    between atoms: C_2  and  N_3
REMARK    3  A    between atoms: C_5  and  O_6
REMARK    4  A    between atoms: O_6  and  C_7
REMARK    5  A    between atoms: C_7  and  C_9
REMARK                            x       y       z     vdW  Elec       q    Type
REMARK                         _______ _______ _______ _____ _____    ______ ____
ROOT
ATOM      1  C   UNL     1       4.745   3.506  19.505  0.00  0.00    +0.000 C 
ATOM      2  O   UNL     1       5.256   2.445  19.835  0.00  0.00    +0.000 OA
ENDROOT
BRANCH   1   3
ATOM      3  C   UNL     1       3.273   3.650  19.531  0.00  0.00    +0.000 A 
ATOM      4  C   UNL     1       2.756   4.419  20.589  0.00  0.00    +0.000 A 
ATOM      5  C   UNL     1       1.385   4.513  20.744  0.00  0.00    +0.000 A 
ATOM      6  N   UNL     1       0.512   3.902  19.923  0.00  0.00    +0.000 NA
ATOM      7  C   UNL     1       1.031   3.166  18.911  0.00  0.00    +0.000 A 
ATOM      8  C   UNL     1       2.391   3.006  18.666  0.00  0.00    +0.000 A 
ATOM      9 CL   UNL     1       2.860   1.977  17.368  0.00  0.00    +0.000 Cl
ENDBRANCH   1   3
BRANCH   1  10
ATOM     10  O   UNL     1       5.388   4.650  19.148  0.00  0.00    +0.000 OA
BRANCH  10  13
ATOM     11  N   UNL     1       6.533   4.805  15.851  0.00  0.00    +0.000 N 
ATOM     12  C   UNL     1       5.499   4.840  16.750  0.00  0.00    +0.000 A 
ATOM     13  C   UNL     1       6.076   4.652  17.981  0.00  0.00    +0.000 A 
ATOM     14  C   UNL     1       7.454   4.528  17.726  0.00  0.00    +0.000 A 
ATOM     15  N   UNL     1       7.737   4.615  16.422  0.00  0.00    +0.000 NA
BRANCH  11  17
ATOM     16  C   UNL     1       6.131   3.703  13.692  0.00  0.00    +0.000 C 
ATOM     17  C   UNL     1       6.458   4.999  14.414  0.00  0.00    +0.000 C 
ENDBRANCH  11  17
ENDBRANCH  10  13
ENDBRANCH   1  10
TORSDOF 4
ENDMDL
MODEL 5
REMARK VINA RESULT:      -6.3      1.721      2.030
REMARK  Name = 
REMARK  5 active torsions:
REMARK  status: ('A' for Active; 'I' for Inactive)
REMARK    1  A    between atoms: C_1  and  C_2
REMARK    2  A    between atoms: C_2  and  N_3
REMARK    3  A    between atoms: C_5  and  O_6
REMARK    4  A    between atoms: O_6  and  C_7
REMARK    5  A    between atoms: C_7  and  C_9
REMARK                            x       y       z     vdW  Elec       q    Type
REMARK                         _______ _______ _______ _____ _____    ______ ____
ROOT
ATOM      1  C   UNL     1       4.888   3.909  18.915  0.00  0.00    +0.000 C 
ATOM      2  O   UNL     1       5.939   4.325  19.382  0.00  0.00    +0.000 OA
ENDROOT
BRANCH   1   3
ATOM      3  C   UNL     1       3.669   3.889  19.755  0.00  0.00    +0.000 A 
ATOM      4  C   UNL     1       3.344   2.645  20.325  0.00  0.00    +0.000 A 
ATOM      5  C   UNL     1       2.164   2.520  21.034  0.00  0.00    +0.000 A 
ATOM      6  N   UNL     1       1.304   3.539  21.212  0.00  0.00    +0.000 NA
ATOM      7  C   UNL     1       1.637   4.728  20.654  0.00  0.00    +0.000 A 
ATOM      8  C   UNL     1       2.797   4.962  19.921  0.00  0.00    +0.000 A 
ATOM      9 CL   UNL     1       3.014   6.525  19.235  0.00  0.00    +0.000 Cl
ENDBRANCH   1   3
BRANCH   1  10
ATOM     10  O   UNL     1       4.665   3.488  17.641  0.00  0.00    +0.000 OA
BRANCH  10  13
ATOM     11  N   UNL     1       6.228   4.811  14.809  0.00  0.00    +0.000 N 
ATOM     12  C   UNL     1       5.977   3.748  15.638  0.00  0.00    +0.000 A 
ATOM     13  C   UNL     1       5.166   4.240  16.629  0.00  0.00    +0.000 A 
ATOM     14  C   UNL     1       4.972   5.596  16.309  0.00  0.00    +0.000 A 
ATOM     15  N   UNL     1       5.626   5.950  15.198  0.00  0.00    +0.000 NA
BRANCH  11  17
ATOM     16  C   UNL     1       6.497   3.758  12.605  0.00  0.00    +0.000 C 
ATOM     17  C   UNL     1       7.001   4.807  13.581  0.00  0.00    +0.000 C 
ENDBRANCH  11  17
ENDBRANCH  10  13
ENDBRANCH   1  10
TORSDOF 4
ENDMDL
MODEL 6
REMARK VINA RESULT:      -6.3      3.020      3.925
REMARK  Name = 
REMARK  5 active torsions:
REMARK  status: ('A' for Active; 'I' for Inactive)
REMARK    1  A    between atoms: C_1  and  C_2
REMARK    2  A    between atoms: C_2  and  N_3
REMARK    3  A    between atoms: C_5  and  O_6
REMARK    4  A    between atoms: O_6  and  C_7
REMARK    5  A    between atoms: C_7  and  C_9
REMARK                            x       y       z     vdW  Elec       q    Type
REMARK                         _______ _______ _______ _____ _____    ______ ____
ROOT
ATOM      1  C   UNL     1       6.935   4.870  16.345  0.00  0.00    +0.000 C 
ATOM      2  O   UNL     1       7.990   4.326  16.639  0.00  0.00    +0.000 OA
ENDROOT
BRANCH   1   3
ATOM      3  C   UNL     1       5.827   4.899  17.325  0.00  0.00    +0.000 A 
ATOM      4  C   UNL     1       4.551   4.607  16.810  0.00  0.00    +0.000 A 
ATOM      5  C   UNL     1       3.450   4.718  17.639  0.00  0.00    +0.000 A 
ATOM      6  N   UNL     1       3.539   5.091  18.929  0.00  0.00    +0.000 NA
ATOM      7  C   UNL     1       4.778   5.369  19.404  0.00  0.00    +0.000 A 
ATOM      8  C   UNL     1       5.948   5.290  18.657  0.00  0.00    +0.000 A 
ATOM      9 CL   UNL     1       7.423   5.745  19.419  0.00  0.00    +0.000 Cl
ENDBRANCH   1   3
BRANCH   1  10
ATOM     10  O   UNL     1       6.647   5.534  15.193  0.00  0.00    +0.000 OA
BRANCH  10  13
ATOM     11  N   UNL     1       6.241   3.423  12.438  0.00  0.00    +0.000 N 
ATOM     12  C   UNL     1       5.857   3.826  13.691  0.00  0.00    +0.000 A 
ATOM     13  C   UNL     1       6.714   4.842  14.029  0.00  0.00    +0.000 A 
ATOM     14  C   UNL     1       7.567   4.989  12.920  0.00  0.00    +0.000 A 
ATOM     15  N   UNL     1       7.284   4.118  11.947  0.00  0.00    +0.000 NA
BRANCH  11  17
ATOM     16  C   UNL     1       6.645   1.402  11.100  0.00  0.00    +0.000 C 
ATOM     17  C   UNL     1       5.623   2.403  11.612  0.00  0.00    +0.000 C 
ENDBRANCH  11  17
ENDBRANCH  10  13
ENDBRANCH   1  10
TORSDOF 4
ENDMDL
MODEL 7
REMARK VINA RESULT:      -6.3      1.525      1.903
REMARK  Name = 
REMARK  5 active torsions:
REMARK  status: ('A' for Active; 'I' for Inactive)
REMARK    1  A    between atoms: C_1  and  C_2
REMARK    2  A    between atoms: C_2  and  N_3
REMARK    3  A    between atoms: C_5  and  O_6
REMARK    4  A    between atoms: O_6  and  C_7
REMARK    5  A    between atoms: C_7  and  C_9
REMARK                            x       y       z     vdW  Elec       q    Type
REMARK                         _______ _______ _______ _____ _____    ______ ____
ROOT
ATOM      1  C   UNL     1       4.931   4.858  18.959  0.00  0.00    +0.000 C 
ATOM      2  O   UNL     1       5.844   4.814  19.772  0.00  0.00    +0.000 OA
ENDROOT
BRANCH   1   3
ATOM      3  C   UNL     1       3.734   4.011  19.154  0.00  0.00    +0.000 A 
ATOM      4  C   UNL     1       3.855   2.679  18.721  0.00  0.00    +0.000 A 
ATOM      5  C   UNL     1       2.746   1.853  18.770  0.00  0.00    +0.000 A 
ATOM      6  N   UNL     1       1.547   2.264  19.220  0.00  0.00    +0.000 NA
ATOM      7  C   UNL     1       1.453   3.551  19.632  0.00  0.00    +0.000 A 
ATOM      8  C   UNL     1       2.503   4.464  19.623  0.00  0.00    +0.000 A 
ATOM      9 CL   UNL     1       2.173   6.077  20.126  0.00  0.00    +0.000 Cl
ENDBRANCH   1   3
BRANCH   1  10
ATOM     10  O   UNL     1       4.842   5.666  17.868  0.00  0.00    +0.000 OA
BRANCH  10  13
ATOM     11  N   UNL     1       6.429   4.646  14.926  0.00  0.00    +0.000 N 
ATOM     12  C   UNL     1       5.345   4.606  15.765  0.00  0.00    +0.000 A 
ATOM     13  C   UNL     1       5.670   5.415  16.824  0.00  0.00    +0.000 A 
ATOM     14  C   UNL     1       6.956   5.906  16.532  0.00  0.00    +0.000 A 
ATOM     15  N   UNL     1       7.425   5.432  15.373  0.00  0.00    +0.000 NA
BRANCH  11  17
ATOM     16  C   UNL     1       5.225   3.781  12.967  0.00  0.00    +0.000 C 
ATOM     17  C   UNL     1       6.571   3.992  13.638  0.00  0.00    +0.000 C 
ENDBRANCH  11  17
ENDBRANCH  10  13
ENDBRANCH   1  10
TORSDOF 4
ENDMDL
MODEL 8
REMARK VINA RESULT:      -6.2      2.487      3.274
REMARK  Name = 
REMARK  5 active torsions:
REMARK  status: ('A' for Active; 'I' for Inactive)
REMARK    1  A    between atoms: C_1  and  C_2
REMARK    2  A    between atoms: C_2  and  N_3
REMARK    3  A    between atoms: C_5  and  O_6
REMARK    4  A    between atoms: O_6  and  C_7
REMARK    5  A    between atoms: C_7  and  C_9
REMARK                            x       y       z     vdW  Elec       q    Type
REMARK                         _______ _______ _______ _____ _____    ______ ____
ROOT
ATOM      1  C   UNL     1       2.239   3.934  17.723  0.00  0.00    +0.000 C 
ATOM      2  O   UNL     1       1.183   4.176  17.155  0.00  0.00    +0.000 OA
ENDROOT
BRANCH   1   3
ATOM      3  C   UNL     1       2.263   3.787  19.195  0.00  0.00    +0.000 A 
ATOM      4  C   UNL     1       2.113   2.474  19.677  0.00  0.00    +0.000 A 
ATOM      5  C   UNL     1       2.018   2.266  21.041  0.00  0.00    +0.000 A 
ATOM      6  N   UNL     1       2.067   3.266  21.939  0.00  0.00    +0.000 NA
ATOM      7  C   UNL     1       2.212   4.522  21.453  0.00  0.00    +0.000 A 
ATOM      8  C   UNL     1       2.315   4.841  20.103  0.00  0.00    +0.000 A 
ATOM      9 CL   UNL     1       2.429   6.505  19.675  0.00  0.00    +0.000 Cl
ENDBRANCH   1   3
BRANCH   1  10
ATOM     10  O   UNL     1       3.451   3.718  17.145  0.00  0.00    +0.000 OA
BRANCH  10  13
ATOM     11  N   UNL     1       6.265   5.629  17.946  0.00  0.00    +0.000 N 
ATOM     12  C   UNL     1       5.556   4.461  18.050  0.00  0.00    +0.000 A 
ATOM     13  C   UNL     1       4.412   4.659  17.318  0.00  0.00    +0.000 A 
ATOM     14  C   UNL     1       4.526   5.963  16.802  0.00  0.00    +0.000 A 
ATOM     15  N   UNL     1       5.656   6.562  17.189  0.00  0.00    +0.000 NA
BRANCH  11  17
ATOM     16  C   UNL     1       8.007   7.343  18.201  0.00  0.00    +0.000 C 
ATOM     17  C   UNL     1       7.572   5.920  18.505  0.00  0.00    +0.000 C 
ENDBRANCH  11  17
ENDBRANCH  10  13
ENDBRANCH   1  10
TORSDOF 4
ENDMDL
MODEL 9
REMARK VINA RESULT:      -6.1      1.963      2.459
REMARK  Name = 
REMARK  5 active torsions:
REMARK  status: ('A' for Active; 'I' for Inactive)
REMARK    1  A    between atoms: C_1  and  C_2
REMARK    2  A    between atoms: C_2  and  N_3
REMARK    3  A    between atoms: C_5  and  O_6
REMARK    4  A    between atoms: O_6  and  C_7
REMARK    5  A    between atoms: C_7  and  C_9
REMARK                            x       y       z     vdW  Elec       q    Type
REMARK                         _______ _______ _______ _____ _____    ______ ____
ROOT
ATOM      1  C   UNL     1       3.027   3.417  17.736  0.00  0.00    +0.000 C 
ATOM      2  O   UNL     1       2.081   3.438  16.961  0.00  0.00    +0.000 OA
ENDROOT
BRANCH   1   3
ATOM      3  C   UNL     1       2.794   3.610  19.184  0.00  0.00    +0.000 A 
ATOM      4  C   UNL     1       2.798   2.439  19.962  0.00  0.00    +0.000 A 
ATOM      5  C   UNL     1       2.482   2.524  21.306  0.00  0.00    +0.000 A 
ATOM      6  N   UNL     1       2.172   3.684  21.913  0.00  0.00    +0.000 NA
ATOM      7  C   UNL     1       2.174   4.800  21.145  0.00  0.00    +0.000 A 
ATOM      8  C   UNL     1       2.475   4.825  19.787  0.00  0.00    +0.000 A 
ATOM      9 CL   UNL     1       2.361   6.333  18.964  0.00  0.00    +0.000 Cl
ENDBRANCH   1   3
BRANCH   1  10
ATOM     10  O   UNL     1       4.330   3.173  17.433  0.00  0.00    +0.000 OA
BRANCH  10  13
ATOM     11  N   UNL     1       6.130   4.736  14.878  0.00  0.00    +0.000 N 
ATOM     12  C   UNL     1       5.736   3.592  15.522  0.00  0.00    +0.000 A 
ATOM     13  C   UNL     1       4.946   4.011  16.563  0.00  0.00    +0.000 A 
ATOM     14  C   UNL     1       4.912   5.414  16.459  0.00  0.00    +0.000 A 
ATOM     15  N   UNL     1       5.640   5.861  15.431  0.00  0.00    +0.000 NA
BRANCH  11  17
ATOM     16  C   UNL     1       6.515   3.829  12.627  0.00  0.00    +0.000 C 
ATOM     17  C   UNL     1       6.943   4.837  13.680  0.00  0.00    +0.000 C 
ENDBRANCH  11  17
ENDBRANCH  10  13
ENDBRANCH   1  10
TORSDOF 4
ENDMDL
