MODEL 1
REMARK VINA RESULT:      -7.2      0.000      0.000
REMARK  Name = 
REMARK  6 active torsions:
REMARK  status: ('A' for Active; 'I' for Inactive)
REMARK    1  A    between atoms: C_1  and  C_2
REMARK    2  A    between atoms: C_5  and  C_6
REMARK    3  A    between atoms: C_6  and  C_7
REMARK    4  A    between atoms: C_13  and  C_14
REMARK    5  A    between atoms: C_14  and  C_15
REMARK    6  A    between atoms: C_14  and  C_16
REMARK                            x       y       z     vdW  Elec       q    Type
REMARK                         _______ _______ _______ _____ _____    ______ ____
ROOT
ATOM      1  C   UNL     1       4.865   5.181  18.116  0.00  0.00    +0.000 C 
ATOM      2  O   UNL     1       5.304   5.772  19.105  0.00  0.00    +0.000 OA
ATOM      3  N   UNL     1       4.451   3.856  18.206  0.00  0.00    +0.000 N 
ATOM      4  C   UNL     1       3.944   2.996  17.133  0.00  0.00    +0.000 C 
ATOM      5  C   UNL     1       2.642   2.281  17.534  0.00  0.00    +0.000 C 
ATOM      6  O   UNL     1       2.677   1.726  18.858  0.00  0.00    +0.000 OA
ATOM      7  C   UNL     1       3.091   2.676  19.870  0.00  0.00    +0.000 C 
ATOM      8  C   UNL     1       4.497   3.185  19.506  0.00  0.00    +0.000 C 
ENDROOT
BRANCH   7   9
ATOM      9  C   UNL     1       2.030   3.795  20.070  0.00  0.00    +0.000 C 
ATOM     10  C   UNL     1       0.673   3.191  20.448  0.00  0.00    +0.000 C 
ATOM     11  C   UNL     1       2.434   4.830  21.121  0.00  0.00    +0.000 C 
ENDBRANCH   7   9
BRANCH   1  12
ATOM     12  C   UNL     1       4.664   5.898  16.796  0.00  0.00    +0.000 C 
BRANCH  12  17
ATOM     13  C   UNL     1       6.753   3.976  12.877  0.00  0.00    +0.000 C 
ATOM     14  C   UNL     1       6.680   4.696  14.158  0.00  0.00    +0.000 A 
ATOM     15  N   UNL     1       7.646   5.228  14.876  0.00  0.00    +0.000 NA
ATOM     16  N   UNL     1       7.049   5.778  15.989  0.00  0.00    +0.000 NA
ATOM     17  C   UNL     1       5.755   5.554  15.864  0.00  0.00    +0.000 A 
ATOM     18  O   UNL     1       5.446   4.841  14.735  0.00  0.00    +0.000 OA
ENDBRANCH  12  17
ENDBRANCH   1  12
TORSDOF 3
ENDMDL
MODEL 2
REMARK VINA RESULT:      -7.1      1.145      1.172
REMARK  Name = 
REMARK  6 active torsions:
REMARK  status: ('A' for Active; 'I' for Inactive)
REMARK    1  A    between atoms: C_1  and  C_2
REMARK    2  A    between atoms: C_5  and  C_6
REMARK    3  A    between atoms: C_6  and  C_7
REMARK    4  A    between atoms: C_13  and  C_14
REMARK    5  A    between atoms: C_14  and  C_15
REMARK    6  A    between atoms: C_14  and  C_16
REMARK                            x       y       z     vdW  Elec       q    Type
REMARK                         _______ _______ _______ _____ _____    ______ ____
ROOT
ATOM      1  C   UNL     1       5.037   4.203  18.311  0.00  0.00    +0.000 C 
ATOM      2  O   UNL     1       5.842   3.822  19.164  0.00  0.00    +0.000 OA
ATOM      3  N   UNL     1       3.894   3.463  18.032  0.00  0.00    +0.000 N 
ATOM      4  C   UNL     1       2.860   3.744  17.031  0.00  0.00    +0.000 C 
ATOM      5  C   UNL     1       1.443   3.653  17.626  0.00  0.00    +0.000 C 
ATOM      6  O   UNL     1       1.246   2.507  18.467  0.00  0.00    +0.000 OA
ATOM      7  C   UNL     1       2.260   2.364  19.493  0.00  0.00    +0.000 C 
ATOM      8  C   UNL     1       3.630   2.246  18.803  0.00  0.00    +0.000 C 
ENDROOT
BRANCH   7   9
ATOM      9  C   UNL     1       2.163   3.499  20.551  0.00  0.00    +0.000 C 
ATOM     10  C   UNL     1       0.852   4.276  20.392  0.00  0.00    +0.000 C 
ATOM     11  C   UNL     1       2.282   2.994  21.991  0.00  0.00    +0.000 C 
ENDBRANCH   7   9
BRANCH   1  12
ATOM     12  C   UNL     1       5.209   5.534  17.607  0.00  0.00    +0.000 C 
BRANCH  12  17
ATOM     13  C   UNL     1       6.451   3.901  13.225  0.00  0.00    +0.000 C 
ATOM     14  C   UNL     1       6.604   4.637  14.491  0.00  0.00    +0.000 A 
ATOM     15  N   UNL     1       7.615   5.358  14.923  0.00  0.00    +0.000 NA
ATOM     16  N   UNL     1       7.258   5.825  16.169  0.00  0.00    +0.000 NA
ATOM     17  C   UNL     1       6.044   5.366  16.403  0.00  0.00    +0.000 A 
ATOM     18  O   UNL     1       5.572   4.572  15.390  0.00  0.00    +0.000 OA
ENDBRANCH  12  17
ENDBRANCH   1  12
TORSDOF 3
ENDMDL
MODEL 3
REMARK VINA RESULT:      -6.8      1.733      2.140
REMARK  Name = 
REMARK  6 active torsions:
REMARK  status: ('A' for Active; 'I' for Inactive)
REMARK    1  A    between atoms: C_1  and  C_2
REMARK    2  A    between atoms: C_5  and  C_6
REMARK    3  A    between atoms: C_6  and  C_7
REMARK    4  A    between atoms: C_13  and  C_14
REMARK    5  A    between atoms: C_14  and  C_15
REMARK    6  A    between atoms: C_14  and  C_16
REMARK                            x       y       z     vdW  Elec       q    Type
REMARK                         _______ _______ _______ _____ _____    ______ ____
ROOT
ATOM      1  C   UNL     1       4.606   3.456  19.322  0.00  0.00    +0.000 C 
ATOM      2  O   UNL     1       5.015   2.654  20.164  0.00  0.00    +0.000 OA
ATOM      3  N   UNL     1       3.447   3.198  18.599  0.00  0.00    +0.000 N 
ATOM      4  C   UNL     1       2.843   4.016  17.542  0.00  0.00    +0.000 C 
ATOM      5  C   UNL     1       1.338   4.236  17.773  0.00  0.00    +0.000 C 
ATOM      6  O   UNL     1       0.637   3.045  18.162  0.00  0.00    +0.000 OA
ATOM      7  C   UNL     1       1.247   2.355  19.280  0.00  0.00    +0.000 C 
ATOM      8  C   UNL     1       2.687   1.980  18.887  0.00  0.00    +0.000 C 
ENDROOT
BRANCH   7   9
ATOM      9  C   UNL     1       1.129   3.182  20.592  0.00  0.00    +0.000 C 
ATOM     10  C   UNL     1       2.038   2.601  21.680  0.00  0.00    +0.000 C 
ATOM     11  C   UNL     1       1.449   4.666  20.402  0.00  0.00    +0.000 C 
ENDBRANCH   7   9
BRANCH   1  12
ATOM     12  C   UNL     1       5.289   4.793  19.113  0.00  0.00    +0.000 C 
BRANCH  12  17
ATOM     13  C   UNL     1       6.960   4.759  14.573  0.00  0.00    +0.000 C 
ATOM     14  C   UNL     1       7.019   4.652  16.039  0.00  0.00    +0.000 A 
ATOM     15  N   UNL     1       8.043   4.378  16.818  0.00  0.00    +0.000 NA
ATOM     16  N   UNL     1       7.566   4.392  18.110  0.00  0.00    +0.000 NA
ATOM     17  C   UNL     1       6.284   4.688  18.028  0.00  0.00    +0.000 A 
ATOM     18  O   UNL     1       5.854   4.837  16.736  0.00  0.00    +0.000 OA
ENDBRANCH  12  17
ENDBRANCH   1  12
TORSDOF 3
ENDMDL
MODEL 4
REMARK VINA RESULT:      -6.8      1.446      2.008
REMARK  Name = 
REMARK  6 active torsions:
REMARK  status: ('A' for Active; 'I' for Inactive)
REMARK    1  A    between atoms: C_1  and  C_2
REMARK    2  A    between atoms: C_5  and  C_6
REMARK    3  A    between atoms: C_6  and  C_7
REMARK    4  A    between atoms: C_13  and  C_14
REMARK    5  A    between atoms: C_14  and  C_15
REMARK    6  A    between atoms: C_14  and  C_16
REMARK                            x       y       z     vdW  Elec       q    Type
REMARK                         _______ _______ _______ _____ _____    ______ ____
ROOT
ATOM      1  C   UNL     1       5.283   5.010  18.130  0.00  0.00    +0.000 C 
ATOM      2  O   UNL     1       4.816   5.973  17.518  0.00  0.00    +0.000 OA
ATOM      3  N   UNL     1       4.668   4.534  19.282  0.00  0.00    +0.000 N 
ATOM      4  C   UNL     1       5.104   3.434  20.148  0.00  0.00    +0.000 C 
ATOM      5  C   UNL     1       3.960   2.450  20.450  0.00  0.00    +0.000 C 
ATOM      6  O   UNL     1       2.722   3.095  20.783  0.00  0.00    +0.000 OA
ATOM      7  C   UNL     1       2.316   4.097  19.819  0.00  0.00    +0.000 C 
ATOM      8  C   UNL     1       3.424   5.161  19.734  0.00  0.00    +0.000 C 
ENDROOT
BRANCH   7   9
ATOM      9  C   UNL     1       1.930   3.453  18.457  0.00  0.00    +0.000 C 
ATOM     10  C   UNL     1       0.831   2.403  18.648  0.00  0.00    +0.000 C 
ATOM     11  C   UNL     1       1.479   4.476  17.412  0.00  0.00    +0.000 C 
ENDBRANCH   7   9
BRANCH   1  12
ATOM     12  C   UNL     1       6.482   4.249  17.599  0.00  0.00    +0.000 C 
BRANCH  12  17
ATOM     13  C   UNL     1       6.033   3.656  12.818  0.00  0.00    +0.000 C 
ATOM     14  C   UNL     1       6.497   4.277  14.069  0.00  0.00    +0.000 A 
ATOM     15  N   UNL     1       7.293   5.310  14.246  0.00  0.00    +0.000 NA
ATOM     16  N   UNL     1       7.416   5.479  15.608  0.00  0.00    +0.000 NA
ATOM     17  C   UNL     1       6.673   4.543  16.166  0.00  0.00    +0.000 A 
ATOM     18  O   UNL     1       6.080   3.717  15.247  0.00  0.00    +0.000 OA
ENDBRANCH  12  17
ENDBRANCH   1  12
TORSDOF 3
ENDMDL
MODEL 5
REMARK VINA RESULT:      -6.8      1.691      2.462
REMARK  Name = 
REMARK  6 active torsions:
REMARK  status: ('A' for Active; 'I' for Inactive)
REMARK    1  A    between atoms: C_1  and  C_2
REMARK    2  A    between atoms: C_5  and  C_6
REMARK    3  A    between atoms: C_6  and  C_7
REMARK    4  A    between atoms: C_13  and  C_14
REMARK    5  A    between atoms: C_14  and  C_15
REMARK    6  A    between atoms: C_14  and  C_16
REMARK                            x       y       z     vdW  Elec       q    Type
REMARK                         _______ _______ _______ _____ _____    ______ ____
ROOT
ATOM      1  C   UNL     1       4.191   4.088  17.245  0.00  0.00    +0.000 C 
ATOM      2  O   UNL     1       3.795   3.132  16.575  0.00  0.00    +0.000 OA
ATOM      3  N   UNL     1       3.295   4.874  17.961  0.00  0.00    +0.000 N 
ATOM      4  C   UNL     1       3.586   6.061  18.771  0.00  0.00    +0.000 C 
ATOM      5  C   UNL     1       2.930   5.983  20.162  0.00  0.00    +0.000 C 
ATOM      6  O   UNL     1       1.569   5.529  20.129  0.00  0.00    +0.000 OA
ATOM      7  C   UNL     1       1.391   4.294  19.392  0.00  0.00    +0.000 C 
ATOM      8  C   UNL     1       1.874   4.521  17.949  0.00  0.00    +0.000 C 
ENDROOT
BRANCH   7   9
ATOM      9  C   UNL     1       2.062   3.095  20.118  0.00  0.00    +0.000 C 
ATOM     10  C   UNL     1       1.408   2.855  21.483  0.00  0.00    +0.000 C 
ATOM     11  C   UNL     1       2.027   1.799  19.305  0.00  0.00    +0.000 C 
ENDBRANCH   7   9
BRANCH   1  12
ATOM     12  C   UNL     1       5.671   4.382  17.397  0.00  0.00    +0.000 C 
BRANCH  12  17
ATOM     13  C   UNL     1       6.540   3.776  12.676  0.00  0.00    +0.000 C 
ATOM     14  C   UNL     1       6.671   4.381  14.011  0.00  0.00    +0.000 A 
ATOM     15  N   UNL     1       7.441   5.369  14.410  0.00  0.00    +0.000 NA
ATOM     16  N   UNL     1       7.189   5.543  15.753  0.00  0.00    +0.000 NA
ATOM     17  C   UNL     1       6.270   4.654  16.076  0.00  0.00    +0.000 A 
ATOM     18  O   UNL     1       5.912   3.854  15.022  0.00  0.00    +0.000 OA
ENDBRANCH  12  17
ENDBRANCH   1  12
TORSDOF 3
ENDMDL
MODEL 6
REMARK VINA RESULT:      -6.5      1.946      2.526
REMARK  Name = 
REMARK  6 active torsions:
REMARK  status: ('A' for Active; 'I' for Inactive)
REMARK    1  A    between atoms: C_1  and  C_2
REMARK    2  A    between atoms: C_5  and  C_6
REMARK    3  A    between atoms: C_6  and  C_7
REMARK    4  A    between atoms: C_13  and  C_14
REMARK    5  A    between atoms: C_14  and  C_15
REMARK    6  A    between atoms: C_14  and  C_16
REMARK                            x       y       z     vdW  Elec       q    Type
REMARK                         _______ _______ _______ _____ _____    ______ ____
ROOT
ATOM      1  C   UNL     1       4.993   5.016  18.597  0.00  0.00    +0.000 C 
ATOM      2  O   UNL     1       5.381   5.434  19.691  0.00  0.00    +0.000 OA
ATOM      3  N   UNL     1       4.484   3.729  18.468  0.00  0.00    +0.000 N 
ATOM      4  C   UNL     1       4.019   3.062  17.249  0.00  0.00    +0.000 C 
ATOM      5  C   UNL     1       2.640   2.405  17.442  0.00  0.00    +0.000 C 
ATOM      6  O   UNL     1       2.519   1.678  18.673  0.00  0.00    +0.000 OA
ATOM      7  C   UNL     1       2.904   2.449  19.838  0.00  0.00    +0.000 C 
ATOM      8  C   UNL     1       4.368   2.888  19.662  0.00  0.00    +0.000 C 
ENDROOT
BRANCH   7   9
ATOM      9  C   UNL     1       1.907   3.611  20.107  0.00  0.00    +0.000 C 
ATOM     10  C   UNL     1       0.489   3.070  20.315  0.00  0.00    +0.000 C 
ATOM     11  C   UNL     1       2.299   4.478  21.306  0.00  0.00    +0.000 C 
ENDBRANCH   7   9
BRANCH   1  12
ATOM     12  C   UNL     1       4.961   5.917  17.378  0.00  0.00    +0.000 C 
BRANCH  12  17
ATOM     13  C   UNL     1       8.298   9.356  18.047  0.00  0.00    +0.000 C 
ATOM     14  C   UNL     1       7.716   8.120  17.498  0.00  0.00    +0.000 A 
ATOM     15  N   UNL     1       8.224   7.267  16.635  0.00  0.00    +0.000 NA
ATOM     16  N   UNL     1       7.274   6.287  16.450  0.00  0.00    +0.000 NA
ATOM     17  C   UNL     1       6.256   6.606  17.225  0.00  0.00    +0.000 A 
ATOM     18  O   UNL     1       6.452   7.781  17.902  0.00  0.00    +0.000 OA
ENDBRANCH  12  17
ENDBRANCH   1  12
TORSDOF 3
ENDMDL
MODEL 7
REMARK VINA RESULT:      -6.4      2.021      2.869
REMARK  Name = 
REMARK  6 active torsions:
REMARK  status: ('A' for Active; 'I' for Inactive)
REMARK    1  A    between atoms: C_1  and  C_2
REMARK    2  A    between atoms: C_5  and  C_6
REMARK    3  A    between atoms: C_6  and  C_7
REMARK    4  A    between atoms: C_13  and  C_14
REMARK    5  A    between atoms: C_14  and  C_15
REMARK    6  A    between atoms: C_14  and  C_16
REMARK                            x       y       z     vdW  Elec       q    Type
REMARK                         _______ _______ _______ _____ _____    ______ ____
ROOT
ATOM      1  C   UNL     1       4.180   4.252  17.138  0.00  0.00    +0.000 C 
ATOM      2  O   UNL     1       5.198   3.561  17.057  0.00  0.00    +0.000 OA
ATOM      3  N   UNL     1       2.959   3.682  17.481  0.00  0.00    +0.000 N 
ATOM      4  C   UNL     1       1.654   4.342  17.584  0.00  0.00    +0.000 C 
ATOM      5  C   UNL     1       0.938   3.998  18.903  0.00  0.00    +0.000 C 
ATOM      6  O   UNL     1       0.997   2.604  19.240  0.00  0.00    +0.000 OA
ATOM      7  C   UNL     1       2.339   2.059  19.211  0.00  0.00    +0.000 C 
ATOM      8  C   UNL     1       2.906   2.252  17.794  0.00  0.00    +0.000 C 
ENDROOT
BRANCH   7   9
ATOM      9  C   UNL     1       3.219   2.653  20.347  0.00  0.00    +0.000 C 
ATOM     10  C   UNL     1       2.514   2.524  21.701  0.00  0.00    +0.000 C 
ATOM     11  C   UNL     1       4.606   2.011  20.434  0.00  0.00    +0.000 C 
ENDBRANCH   7   9
BRANCH   1  12
ATOM     12  C   UNL     1       4.237   5.757  16.969  0.00  0.00    +0.000 C 
BRANCH  12  17
ATOM     13  C   UNL     1       8.179   8.344  18.055  0.00  0.00    +0.000 C 
ATOM     14  C   UNL     1       7.367   7.348  17.338  0.00  0.00    +0.000 A 
ATOM     15  N   UNL     1       7.697   6.565  16.334  0.00  0.00    +0.000 NA
ATOM     16  N   UNL     1       6.574   5.827  16.029  0.00  0.00    +0.000 NA
ATOM     17  C   UNL     1       5.640   6.203  16.881  0.00  0.00    +0.000 A 
ATOM     18  O   UNL     1       6.062   7.194  17.728  0.00  0.00    +0.000 OA
ENDBRANCH  12  17
ENDBRANCH   1  12
TORSDOF 3
ENDMDL
MODEL 8
REMARK VINA RESULT:      -6.4      1.788      2.830
REMARK  Name = 
REMARK  6 active torsions:
REMARK  status: ('A' for Active; 'I' for Inactive)
REMARK    1  A    between atoms: C_1  and  C_2
REMARK    2  A    between atoms: C_5  and  C_6
REMARK    3  A    between atoms: C_6  and  C_7
REMARK    4  A    between atoms: C_13  and  C_14
REMARK    5  A    between atoms: C_14  and  C_15
REMARK    6  A    between atoms: C_14  and  C_16
REMARK                            x       y       z     vdW  Elec       q    Type
REMARK                         _______ _______ _______ _____ _____    ______ ____
ROOT
ATOM      1  C   UNL     1       4.750   4.171  17.894  0.00  0.00    +0.000 C 
ATOM      2  O   UNL     1       4.342   3.093  18.333  0.00  0.00    +0.000 OA
ATOM      3  N   UNL     1       3.859   5.176  17.536  0.00  0.00    +0.000 N 
ATOM      4  C   UNL     1       4.166   6.491  16.965  0.00  0.00    +0.000 C 
ATOM      5  C   UNL     1       3.438   7.625  17.709  0.00  0.00    +0.000 C 
ATOM      6  O   UNL     1       2.060   7.337  17.987  0.00  0.00    +0.000 OA
ATOM      7  C   UNL     1       1.859   6.061  18.644  0.00  0.00    +0.000 C 
ATOM      8  C   UNL     1       2.425   4.957  17.734  0.00  0.00    +0.000 C 
ENDROOT
BRANCH   7   9
ATOM      9  C   UNL     1       2.434   6.067  20.088  0.00  0.00    +0.000 C 
ATOM     10  C   UNL     1       1.771   7.162  20.930  0.00  0.00    +0.000 C 
ATOM     11  C   UNL     1       2.288   4.721  20.802  0.00  0.00    +0.000 C 
ENDBRANCH   7   9
BRANCH   1  12
ATOM     12  C   UNL     1       6.233   4.479  17.822  0.00  0.00    +0.000 C 
BRANCH  12  17
ATOM     13  C   UNL     1       6.394   3.732  13.044  0.00  0.00    +0.000 C 
ATOM     14  C   UNL     1       6.726   4.371  14.328  0.00  0.00    +0.000 A 
ATOM     15  N   UNL     1       7.556   5.359  14.582  0.00  0.00    +0.000 NA
ATOM     16  N   UNL     1       7.505   5.573  15.942  0.00  0.00    +0.000 NA
ATOM     17  C   UNL     1       6.634   4.706  16.421  0.00  0.00    +0.000 A 
ATOM     18  O   UNL     1       6.118   3.883  15.455  0.00  0.00    +0.000 OA
ENDBRANCH  12  17
ENDBRANCH   1  12
TORSDOF 3
ENDMDL
MODEL 9
REMARK VINA RESULT:      -6.3      2.246      3.368
REMARK  Name = 
REMARK  6 active torsions:
REMARK  status: ('A' for Active; 'I' for Inactive)
REMARK    1  A    between atoms: C_1  and  C_2
REMARK    2  A    between atoms: C_5  and  C_6
REMARK    3  A    between atoms: C_6  and  C_7
REMARK    4  A    between atoms: C_13  and  C_14
REMARK    5  A    between atoms: C_14  and  C_15
REMARK    6  A    between atoms: C_14  and  C_16
REMARK                            x       y       z     vdW  Elec       q    Type
REMARK                         _______ _______ _______ _____ _____    ______ ____
ROOT
ATOM      1  C   UNL     1       4.819   4.155  17.798  0.00  0.00    +0.000 C 
ATOM      2  O   UNL     1       4.637   3.304  16.924  0.00  0.00    +0.000 OA
ATOM      3  N   UNL     1       3.751   4.876  18.320  0.00  0.00    +0.000 N 
ATOM      4  C   UNL     1       3.789   5.942  19.326  0.00  0.00    +0.000 C 
ATOM      5  C   UNL     1       2.758   5.714  20.446  0.00  0.00    +0.000 C 
ATOM      6  O   UNL     1       1.467   5.314  19.964  0.00  0.00    +0.000 OA
ATOM      7  C   UNL     1       1.515   4.188  19.053  0.00  0.00    +0.000 C 
ATOM      8  C   UNL     1       2.396   4.576  17.853  0.00  0.00    +0.000 C 
ENDROOT
BRANCH   7   9
ATOM      9  C   UNL     1       1.950   2.885  19.781  0.00  0.00    +0.000 C 
ATOM     10  C   UNL     1       1.165   2.705  21.085  0.00  0.00    +0.000 C 
ATOM     11  C   UNL     1       1.795   1.630  18.919  0.00  0.00    +0.000 C 
ENDBRANCH   7   9
BRANCH   1  12
ATOM     12  C   UNL     1       6.189   4.377  18.406  0.00  0.00    +0.000 C 
BRANCH  12  17
ATOM     13  C   UNL     1       8.165   8.775  18.003  0.00  0.00    +0.000 C 
ATOM     14  C   UNL     1       7.706   7.450  17.557  0.00  0.00    +0.000 A 
ATOM     15  N   UNL     1       7.740   6.912  16.358  0.00  0.00    +0.000 NA
ATOM     16  N   UNL     1       7.180   5.659  16.475  0.00  0.00    +0.000 NA
ATOM     17  C   UNL     1       6.856   5.515  17.746  0.00  0.00    +0.000 A 
ATOM     18  O   UNL     1       7.133   6.630  18.494  0.00  0.00    +0.000 OA
ENDBRANCH  12  17
ENDBRANCH   1  12
TORSDOF 3
ENDMDL
