MODEL 1
REMARK VINA RESULT:      -6.6      0.000      0.000
REMARK  Name = 
REMARK  6 active torsions:
REMARK  status: ('A' for Active; 'I' for Inactive)
REMARK    1  A    between atoms: C_1  and  S_2
REMARK    2  A    between atoms: S_2  and  C_3
REMARK    3  A    between atoms: C_4  and  C_5
REMARK    4  A    between atoms: N_7  and  N_8
REMARK    5  A    between atoms: C_14  and  C_15
REMARK    6  A    between atoms: N_23  and  C_24
REMARK                            x       y       z     vdW  Elec       q    Type
REMARK                         _______ _______ _______ _____ _____    ______ ____
ROOT
ATOM      1  C   UNL     1      -0.970  13.351  20.454  0.00  0.00    +0.000 A 
ATOM      2  C   UNL     1      -2.000  12.418  20.426  0.00  0.00    +0.000 A 
ATOM      3  N   UNL     1      -1.487  11.180  20.117  0.00  0.00    +0.000 NA
ATOM      4  C   UNL     1      -0.201  11.329  19.848  0.00  0.00    +0.000 A 
ATOM      5  N   UNL     1       0.182  12.685  20.001  0.00  0.00    +0.000 N 
ENDROOT
BRANCH   4   6
ATOM      6  C   UNL     1       0.661  10.169  19.502  0.00  0.00    +0.000 A 
ATOM      7  C   UNL     1       1.140   9.992  18.190  0.00  0.00    +0.000 A 
ATOM      8  C   UNL     1       1.866   8.852  17.825  0.00  0.00    +0.000 A 
ATOM      9  C   UNL     1       2.208   7.912  18.789  0.00  0.00    +0.000 A 
ATOM     10 CL   UNL     1       3.097   6.510  18.341  0.00  0.00    +0.000 Cl
ATOM     11  C   UNL     1       1.833   8.102  20.112  0.00  0.00    +0.000 A 
ATOM     12  C   UNL     1       1.057   9.215  20.468  0.00  0.00    +0.000 A 
ATOM     13 CL   UNL     1       0.602   9.308  22.141  0.00  0.00    +0.000 Cl
ENDBRANCH   4   6
BRANCH   5  14
ATOM     14  C   UNL     1       1.482  13.254  19.742  0.00  0.00    +0.000 A 
ATOM     15  C   UNL     1       2.367  13.525  20.800  0.00  0.00    +0.000 A 
ATOM     16  C   UNL     1       3.587  14.175  20.564  0.00  0.00    +0.000 A 
ATOM     17  C   UNL     1       3.962  14.503  19.266  0.00  0.00    +0.000 A 
ATOM     18 CL   UNL     1       5.459  15.300  18.977  0.00  0.00    +0.000 Cl
ATOM     19  C   UNL     1       3.123  14.199  18.201  0.00  0.00    +0.000 A 
ATOM     20  C   UNL     1       1.880  13.598  18.440  0.00  0.00    +0.000 A 
ENDBRANCH   5  14
BRANCH   2  21
ATOM     21  C   UNL     1      -3.435  12.636  20.659  0.00  0.00    +0.000 C 
ATOM     22  O   UNL     1      -3.924  12.820  21.769  0.00  0.00    +0.000 OA
ATOM     23  N   UNL     1      -4.181  12.633  19.478  0.00  0.00    +0.000 N 
ATOM     24  H   UNL     1      -3.686  12.444  18.609  0.00  0.00    +0.000 HD
BRANCH  23  25
ATOM     25  N   UNL     1      -5.594  12.703  19.539  0.00  0.00    +0.000 NA
ATOM     26  C   UNL     1      -6.233  11.387  19.635  0.00  0.00    +0.000 C 
ATOM     27  C   UNL     1      -6.493  10.967  18.200  0.00  0.00    +0.000 C 
ATOM     28  C   UNL     1      -6.803  12.273  17.493  0.00  0.00    +0.000 C 
ATOM     29  C   UNL     1      -6.164  13.360  18.350  0.00  0.00    +0.000 C 
ENDBRANCH  23  25
ENDBRANCH   2  21
BRANCH   1  31
ATOM     30  C   UNL     1      -0.909  15.078  22.576  0.00  0.00    +0.000 C 
ATOM     31  S   UNL     1      -1.065  15.069  20.766  0.00  0.00    +0.000 S 
ENDBRANCH   1  31
TORSDOF 5
ENDMDL
MODEL 2
REMARK VINA RESULT:      -6.4      1.426      1.777
REMARK  Name = 
REMARK  6 active torsions:
REMARK  status: ('A' for Active; 'I' for Inactive)
REMARK    1  A    between atoms: C_1  and  S_2
REMARK    2  A    between atoms: S_2  and  C_3
REMARK    3  A    between atoms: C_4  and  C_5
REMARK    4  A    between atoms: N_7  and  N_8
REMARK    5  A    between atoms: C_14  and  C_15
REMARK    6  A    between atoms: N_23  and  C_24
REMARK                            x       y       z     vdW  Elec       q    Type
REMARK                         _______ _______ _______ _____ _____    ______ ____
ROOT
ATOM      1  C   UNL     1      -1.234  12.832  19.437  0.00  0.00    +0.000 A 
ATOM      2  C   UNL     1      -2.169  11.852  19.125  0.00  0.00    +0.000 A 
ATOM      3  N   UNL     1      -1.532  10.641  18.986  0.00  0.00    +0.000 NA
ATOM      4  C   UNL     1      -0.231  10.852  19.092  0.00  0.00    +0.000 A 
ATOM      5  N   UNL     1       0.029  12.224  19.336  0.00  0.00    +0.000 N 
ENDROOT
BRANCH   4   6
ATOM      6  C   UNL     1       0.747   9.736  19.016  0.00  0.00    +0.000 A 
ATOM      7  C   UNL     1       1.443   9.465  17.822  0.00  0.00    +0.000 A 
ATOM      8  C   UNL     1       2.289   8.357  17.705  0.00  0.00    +0.000 A 
ATOM      9  C   UNL     1       2.528   7.549  18.810  0.00  0.00    +0.000 A 
ATOM     10 CL   UNL     1       3.565   6.185  18.664  0.00  0.00    +0.000 Cl
ATOM     11  C   UNL     1       1.932   7.841  20.029  0.00  0.00    +0.000 A 
ATOM     12  C   UNL     1       1.040   8.919  20.133  0.00  0.00    +0.000 A 
ATOM     13 CL   UNL     1       0.315   9.143  21.694  0.00  0.00    +0.000 Cl
ENDBRANCH   4   6
BRANCH   5  14
ATOM     14  C   UNL     1       1.321  12.855  19.452  0.00  0.00    +0.000 A 
ATOM     15  C   UNL     1       1.868  13.135  20.717  0.00  0.00    +0.000 A 
ATOM     16  C   UNL     1       3.072  13.843  20.835  0.00  0.00    +0.000 A 
ATOM     17  C   UNL     1       3.772  14.222  19.694  0.00  0.00    +0.000 A 
ATOM     18 CL   UNL     1       5.250  15.089  19.840  0.00  0.00    +0.000 Cl
ATOM     19  C   UNL     1       3.273  13.911  18.436  0.00  0.00    +0.000 A 
ATOM     20  C   UNL     1       2.043  13.251  18.315  0.00  0.00    +0.000 A 
ENDBRANCH   5  14
BRANCH   2  21
ATOM     21  C   UNL     1      -3.620  12.001  18.938  0.00  0.00    +0.000 C 
ATOM     22  O   UNL     1      -4.214  11.659  17.921  0.00  0.00    +0.000 OA
ATOM     23  N   UNL     1      -4.253  12.555  20.053  0.00  0.00    +0.000 N 
ATOM     24  H   UNL     1      -3.668  12.831  20.839  0.00  0.00    +0.000 HD
BRANCH  23  25
ATOM     25  N   UNL     1      -5.629  12.883  19.989  0.00  0.00    +0.000 NA
ATOM     26  C   UNL     1      -5.949  14.158  20.636  0.00  0.00    +0.000 C 
ATOM     27  C   UNL     1      -6.284  13.801  22.072  0.00  0.00    +0.000 C 
ATOM     28  C   UNL     1      -6.955  12.445  21.959  0.00  0.00    +0.000 C 
ATOM     29  C   UNL     1      -6.468  11.861  20.638  0.00  0.00    +0.000 C 
ENDBRANCH  23  25
ENDBRANCH   2  21
BRANCH   1  31
ATOM     30  C   UNL     1      -1.575  14.588  21.507  0.00  0.00    +0.000 C 
ATOM     31  S   UNL     1      -1.495  14.542  19.694  0.00  0.00    +0.000 S 
ENDBRANCH   1  31
TORSDOF 5
ENDMDL
MODEL 3
REMARK VINA RESULT:      -6.3      1.555      2.134
REMARK  Name = 
REMARK  6 active torsions:
REMARK  status: ('A' for Active; 'I' for Inactive)
REMARK    1  A    between atoms: C_1  and  S_2
REMARK    2  A    between atoms: S_2  and  C_3
REMARK    3  A    between atoms: C_4  and  C_5
REMARK    4  A    between atoms: N_7  and  N_8
REMARK    5  A    between atoms: C_14  and  C_15
REMARK    6  A    between atoms: N_23  and  C_24
REMARK                            x       y       z     vdW  Elec       q    Type
REMARK                         _______ _______ _______ _____ _____    ______ ____
ROOT
ATOM      1  C   UNL     1      -1.118  13.339  20.095  0.00  0.00    +0.000 A 
ATOM      2  C   UNL     1      -2.144  12.407  19.996  0.00  0.00    +0.000 A 
ATOM      3  N   UNL     1      -1.609  11.158  19.785  0.00  0.00    +0.000 NA
ATOM      4  C   UNL     1      -0.302  11.296  19.642  0.00  0.00    +0.000 A 
ATOM      5  N   UNL     1       0.071  12.656  19.785  0.00  0.00    +0.000 N 
ENDROOT
BRANCH   4   6
ATOM      6  C   UNL     1       0.586  10.124  19.426  0.00  0.00    +0.000 A 
ATOM      7  C   UNL     1       1.144   9.864  18.160  0.00  0.00    +0.000 A 
ATOM      8  C   UNL     1       1.896   8.709  17.916  0.00  0.00    +0.000 A 
ATOM      9  C   UNL     1       2.184   7.838  18.959  0.00  0.00    +0.000 A 
ATOM     10 CL   UNL     1       3.105   6.418  18.660  0.00  0.00    +0.000 Cl
ATOM     11  C   UNL     1       1.729   8.112  20.242  0.00  0.00    +0.000 A 
ATOM     12  C   UNL     1       0.927   9.240  20.476  0.00  0.00    +0.000 A 
ATOM     13 CL   UNL     1       0.372   9.439  22.108  0.00  0.00    +0.000 Cl
ENDBRANCH   4   6
BRANCH   5  14
ATOM     14  C   UNL     1       1.393  13.215  19.638  0.00  0.00    +0.000 A 
ATOM     15  C   UNL     1       2.178  13.499  20.769  0.00  0.00    +0.000 A 
ATOM     16  C   UNL     1       3.418  14.139  20.637  0.00  0.00    +0.000 A 
ATOM     17  C   UNL     1       3.914  14.443  19.374  0.00  0.00    +0.000 A 
ATOM     18 CL   UNL     1       5.437  15.227  19.213  0.00  0.00    +0.000 Cl
ATOM     19  C   UNL     1       3.176  14.124  18.241  0.00  0.00    +0.000 A 
ATOM     20  C   UNL     1       1.913  13.534  18.374  0.00  0.00    +0.000 A 
ENDBRANCH   5  14
BRANCH   2  21
ATOM     21  C   UNL     1      -3.595  12.635  20.075  0.00  0.00    +0.000 C 
ATOM     22  O   UNL     1      -4.381  12.332  19.184  0.00  0.00    +0.000 OA
ATOM     23  N   UNL     1      -3.984  13.217  21.284  0.00  0.00    +0.000 N 
ATOM     24  H   UNL     1      -3.252  13.458  21.949  0.00  0.00    +0.000 HD
BRANCH  23  25
ATOM     25  N   UNL     1      -5.330  13.619  21.469  0.00  0.00    +0.000 NA
ATOM     26  C   UNL     1      -5.457  14.951  22.068  0.00  0.00    +0.000 C 
ATOM     27  C   UNL     1      -5.510  14.708  23.565  0.00  0.00    +0.000 C 
ATOM     28  C   UNL     1      -6.248  13.389  23.690  0.00  0.00    +0.000 C 
ATOM     29  C   UNL     1      -6.064  12.692  22.347  0.00  0.00    +0.000 C 
ENDBRANCH  23  25
ENDBRANCH   2  21
BRANCH   1  31
ATOM     30  C   UNL     1      -0.983  15.163  22.130  0.00  0.00    +0.000 C 
ATOM     31  S   UNL     1      -1.237  15.067  20.335  0.00  0.00    +0.000 S 
ENDBRANCH   1  31
TORSDOF 5
ENDMDL
MODEL 4
REMARK VINA RESULT:      -6.1      3.570      5.756
REMARK  Name = 
REMARK  6 active torsions:
REMARK  status: ('A' for Active; 'I' for Inactive)
REMARK    1  A    between atoms: C_1  and  S_2
REMARK    2  A    between atoms: S_2  and  C_3
REMARK    3  A    between atoms: C_4  and  C_5
REMARK    4  A    between atoms: N_7  and  N_8
REMARK    5  A    between atoms: C_14  and  C_15
REMARK    6  A    between atoms: N_23  and  C_24
REMARK                            x       y       z     vdW  Elec       q    Type
REMARK                         _______ _______ _______ _____ _____    ______ ____
ROOT
ATOM      1  C   UNL     1      -4.626  12.398  20.272  0.00  0.00    +0.000 A 
ATOM      2  C   UNL     1      -4.198  12.981  21.459  0.00  0.00    +0.000 A 
ATOM      3  N   UNL     1      -2.853  13.257  21.374  0.00  0.00    +0.000 NA
ATOM      4  C   UNL     1      -2.411  12.771  20.226  0.00  0.00    +0.000 A 
ATOM      5  N   UNL     1      -3.473  12.177  19.499  0.00  0.00    +0.000 N 
ENDROOT
BRANCH   4   6
ATOM      6  C   UNL     1      -0.993  12.926  19.810  0.00  0.00    +0.000 A 
ATOM      7  C   UNL     1      -0.577  14.047  19.067  0.00  0.00    +0.000 A 
ATOM      8  C   UNL     1       0.730  14.157  18.580  0.00  0.00    +0.000 A 
ATOM      9  C   UNL     1       1.673  13.191  18.906  0.00  0.00    +0.000 A 
ATOM     10 CL   UNL     1       3.278  13.323  18.304  0.00  0.00    +0.000 Cl
ATOM     11  C   UNL     1       1.322  12.119  19.715  0.00  0.00    +0.000 A 
ATOM     12  C   UNL     1      -0.002  11.978  20.157  0.00  0.00    +0.000 A 
ATOM     13 CL   UNL     1      -0.328  10.565  21.111  0.00  0.00    +0.000 Cl
ENDBRANCH   4   6
BRANCH   5  14
ATOM     14  C   UNL     1      -3.380  11.489  18.234  0.00  0.00    +0.000 A 
ATOM     15  C   UNL     1      -2.390  10.514  18.021  0.00  0.00    +0.000 A 
ATOM     16  C   UNL     1      -2.229   9.921  16.761  0.00  0.00    +0.000 A 
ATOM     17  C   UNL     1      -3.093  10.247  15.722  0.00  0.00    +0.000 A 
ATOM     18 CL   UNL     1      -2.896   9.517  14.177  0.00  0.00    +0.000 Cl
ATOM     19  C   UNL     1      -4.110  11.171  15.927  0.00  0.00    +0.000 A 
ATOM     20  C   UNL     1      -4.239  11.805  17.169  0.00  0.00    +0.000 A 
ENDBRANCH   5  14
BRANCH   2  21
ATOM     21  C   UNL     1      -4.984  13.276  22.666  0.00  0.00    +0.000 C 
ATOM     22  O   UNL     1      -5.284  12.434  23.506  0.00  0.00    +0.000 OA
ATOM     23  N   UNL     1      -5.337  14.624  22.764  0.00  0.00    +0.000 N 
ATOM     24  H   UNL     1      -5.065  15.240  22.000  0.00  0.00    +0.000 HD
BRANCH  23  25
ATOM     25  N   UNL     1      -6.203  15.050  23.800  0.00  0.00    +0.000 NA
ATOM     26  C   UNL     1      -7.618  15.017  23.420  0.00  0.00    +0.000 C 
ATOM     27  C   UNL     1      -7.909  16.394  22.854  0.00  0.00    +0.000 C 
ATOM     28  C   UNL     1      -7.030  17.316  23.678  0.00  0.00    +0.000 C 
ATOM     29  C   UNL     1      -5.915  16.431  24.224  0.00  0.00    +0.000 C 
ENDBRANCH  23  25
ENDBRANCH   2  21
BRANCH   1  31
ATOM     30  C   UNL     1      -7.037  13.406  19.460  0.00  0.00    +0.000 C 
ATOM     31  S   UNL     1      -6.226  11.830  19.853  0.00  0.00    +0.000 S 
ENDBRANCH   1  31
TORSDOF 5
ENDMDL
MODEL 5
REMARK VINA RESULT:      -6.0      1.361      1.734
REMARK  Name = 
REMARK  6 active torsions:
REMARK  status: ('A' for Active; 'I' for Inactive)
REMARK    1  A    between atoms: C_1  and  S_2
REMARK    2  A    between atoms: S_2  and  C_3
REMARK    3  A    between atoms: C_4  and  C_5
REMARK    4  A    between atoms: N_7  and  N_8
REMARK    5  A    between atoms: C_14  and  C_15
REMARK    6  A    between atoms: N_23  and  C_24
REMARK                            x       y       z     vdW  Elec       q    Type
REMARK                         _______ _______ _______ _____ _____    ______ ____
ROOT
ATOM      1  C   UNL     1      -0.853  13.396  21.517  0.00  0.00    +0.000 A 
ATOM      2  C   UNL     1      -1.814  12.414  21.726  0.00  0.00    +0.000 A 
ATOM      3  N   UNL     1      -1.358  11.215  21.232  0.00  0.00    +0.000 NA
ATOM      4  C   UNL     1      -0.202  11.438  20.629  0.00  0.00    +0.000 A 
ATOM      5  N   UNL     1       0.156  12.805  20.736  0.00  0.00    +0.000 N 
ENDROOT
BRANCH   4   6
ATOM      6  C   UNL     1       0.577  10.336  20.007  0.00  0.00    +0.000 A 
ATOM      7  C   UNL     1       0.849  10.334  18.626  0.00  0.00    +0.000 A 
ATOM      8  C   UNL     1       1.491   9.255  18.008  0.00  0.00    +0.000 A 
ATOM      9  C   UNL     1       1.956   8.195  18.777  0.00  0.00    +0.000 A 
ATOM     10 CL   UNL     1       2.741   6.867  18.018  0.00  0.00    +0.000 Cl
ATOM     11  C   UNL     1       1.788   8.207  20.155  0.00  0.00    +0.000 A 
ATOM     12  C   UNL     1       1.095   9.262  20.768  0.00  0.00    +0.000 A 
ATOM     13 CL   UNL     1       0.899   9.130  22.487  0.00  0.00    +0.000 Cl
ENDBRANCH   4   6
BRANCH   5  14
ATOM     14  C   UNL     1       1.311  13.448  20.159  0.00  0.00    +0.000 A 
ATOM     15  C   UNL     1       1.293  13.885  18.822  0.00  0.00    +0.000 A 
ATOM     16  C   UNL     1       2.447  14.412  18.226  0.00  0.00    +0.000 A 
ATOM     17  C   UNL     1       3.609  14.567  18.974  0.00  0.00    +0.000 A 
ATOM     18 CL   UNL     1       5.024  15.215  18.242  0.00  0.00    +0.000 Cl
ATOM     19  C   UNL     1       3.632  14.187  20.311  0.00  0.00    +0.000 A 
ATOM     20  C   UNL     1       2.497  13.610  20.893  0.00  0.00    +0.000 A 
ENDBRANCH   5  14
BRANCH   2  21
ATOM     21  C   UNL     1      -3.137  12.552  22.353  0.00  0.00    +0.000 C 
ATOM     22  O   UNL     1      -3.352  12.341  23.542  0.00  0.00    +0.000 OA
ATOM     23  N   UNL     1      -4.120  12.969  21.452  0.00  0.00    +0.000 N 
ATOM     24  H   UNL     1      -3.846  13.091  20.479  0.00  0.00    +0.000 HD
BRANCH  23  25
ATOM     25  N   UNL     1      -5.473  13.027  21.866  0.00  0.00    +0.000 NA
ATOM     26  C   UNL     1      -6.345  12.120  21.115  0.00  0.00    +0.000 C 
ATOM     27  C   UNL     1      -6.854  12.939  19.943  0.00  0.00    +0.000 C 
ATOM     28  C   UNL     1      -6.979  14.341  20.510  0.00  0.00    +0.000 C 
ATOM     29  C   UNL     1      -6.038  14.379  21.708  0.00  0.00    +0.000 C 
ENDBRANCH  23  25
ENDBRANCH   2  21
BRANCH   1  31
ATOM     30  C   UNL     1      -1.827  15.735  20.483  0.00  0.00    +0.000 C 
ATOM     31  S   UNL     1      -0.925  15.095  21.923  0.00  0.00    +0.000 S 
ENDBRANCH   1  31
TORSDOF 5
ENDMDL
MODEL 6
REMARK VINA RESULT:      -6.0      2.509      3.047
REMARK  Name = 
REMARK  6 active torsions:
REMARK  status: ('A' for Active; 'I' for Inactive)
REMARK    1  A    between atoms: C_1  and  S_2
REMARK    2  A    between atoms: S_2  and  C_3
REMARK    3  A    between atoms: C_4  and  C_5
REMARK    4  A    between atoms: N_7  and  N_8
REMARK    5  A    between atoms: C_14  and  C_15
REMARK    6  A    between atoms: N_23  and  C_24
REMARK                            x       y       z     vdW  Elec       q    Type
REMARK                         _______ _______ _______ _____ _____    ______ ____
ROOT
ATOM      1  C   UNL     1      -1.775  13.728  22.294  0.00  0.00    +0.000 A 
ATOM      2  C   UNL     1      -2.607  12.643  22.543  0.00  0.00    +0.000 A 
ATOM      3  N   UNL     1      -2.123  11.535  21.889  0.00  0.00    +0.000 NA
ATOM      4  C   UNL     1      -1.087  11.916  21.160  0.00  0.00    +0.000 A 
ATOM      5  N   UNL     1      -0.838  13.300  21.337  0.00  0.00    +0.000 N 
ENDROOT
BRANCH   4   6
ATOM      6  C   UNL     1      -0.310  10.945  20.345  0.00  0.00    +0.000 A 
ATOM      7  C   UNL     1       0.545  10.010  20.957  0.00  0.00    +0.000 A 
ATOM      8  C   UNL     1       1.360   9.160  20.200  0.00  0.00    +0.000 A 
ATOM      9  C   UNL     1       1.266   9.165  18.814  0.00  0.00    +0.000 A 
ATOM     10 CL   UNL     1       2.269   8.124  17.884  0.00  0.00    +0.000 Cl
ATOM     11  C   UNL     1       0.364  10.009  18.180  0.00  0.00    +0.000 A 
ATOM     12  C   UNL     1      -0.412  10.901  18.935  0.00  0.00    +0.000 A 
ATOM     13 CL   UNL     1      -1.456  11.944  18.021  0.00  0.00    +0.000 Cl
ENDBRANCH   4   6
BRANCH   5  14
ATOM     14  C   UNL     1       0.164  14.094  20.670  0.00  0.00    +0.000 A 
ATOM     15  C   UNL     1      -0.175  14.889  19.561  0.00  0.00    +0.000 A 
ATOM     16  C   UNL     1       0.814  15.578  18.846  0.00  0.00    +0.000 A 
ATOM     17  C   UNL     1       2.138  15.533  19.267  0.00  0.00    +0.000 A 
ATOM     18 CL   UNL     1       3.351  16.380  18.389  0.00  0.00    +0.000 Cl
ATOM     19  C   UNL     1       2.486  14.793  20.391  0.00  0.00    +0.000 A 
ATOM     20  C   UNL     1       1.508  14.060  21.075  0.00  0.00    +0.000 A 
ENDBRANCH   5  14
BRANCH   2  21
ATOM     21  C   UNL     1      -3.836  12.603  23.349  0.00  0.00    +0.000 C 
ATOM     22  O   UNL     1      -3.846  12.485  24.570  0.00  0.00    +0.000 OA
ATOM     23  N   UNL     1      -4.993  12.734  22.577  0.00  0.00    +0.000 N 
ATOM     24  H   UNL     1      -4.881  12.799  21.568  0.00  0.00    +0.000 HD
BRANCH  23  25
ATOM     25  N   UNL     1      -6.264  12.588  23.185  0.00  0.00    +0.000 NA
ATOM     26  C   UNL     1      -7.295  12.112  22.259  0.00  0.00    +0.000 C 
ATOM     27  C   UNL     1      -7.916  13.368  21.676  0.00  0.00    +0.000 C 
ATOM     28  C   UNL     1      -7.864  14.360  22.822  0.00  0.00    +0.000 C 
ATOM     29  C   UNL     1      -6.756  13.860  23.742  0.00  0.00    +0.000 C 
ENDBRANCH  23  25
ENDBRANCH   2  21
BRANCH   1  31
ATOM     30  C   UNL     1      -3.222  15.979  21.721  0.00  0.00    +0.000 C 
ATOM     31  S   UNL     1      -1.937  15.376  22.855  0.00  0.00    +0.000 S 
ENDBRANCH   1  31
TORSDOF 5
ENDMDL
MODEL 7
REMARK VINA RESULT:      -6.0      3.793      8.105
REMARK  Name = 
REMARK  6 active torsions:
REMARK  status: ('A' for Active; 'I' for Inactive)
REMARK    1  A    between atoms: C_1  and  S_2
REMARK    2  A    between atoms: S_2  and  C_3
REMARK    3  A    between atoms: C_4  and  C_5
REMARK    4  A    between atoms: N_7  and  N_8
REMARK    5  A    between atoms: C_14  and  C_15
REMARK    6  A    between atoms: N_23  and  C_24
REMARK                            x       y       z     vdW  Elec       q    Type
REMARK                         _______ _______ _______ _____ _____    ______ ____
ROOT
ATOM      1  C   UNL     1       2.075  13.397  19.971  0.00  0.00    +0.000 A 
ATOM      2  C   UNL     1       2.363  14.210  21.060  0.00  0.00    +0.000 A 
ATOM      3  N   UNL     1       1.339  14.131  21.974  0.00  0.00    +0.000 NA
ATOM      4  C   UNL     1       0.381  13.387  21.446  0.00  0.00    +0.000 A 
ATOM      5  N   UNL     1       0.765  12.925  20.162  0.00  0.00    +0.000 N 
ENDROOT
BRANCH   4   6
ATOM      6  C   UNL     1      -0.866  13.078  22.193  0.00  0.00    +0.000 A 
ATOM      7  C   UNL     1      -1.850  14.065  22.395  0.00  0.00    +0.000 A 
ATOM      8  C   UNL     1      -2.980  13.819  23.183  0.00  0.00    +0.000 A 
ATOM      9  C   UNL     1      -3.195  12.552  23.708  0.00  0.00    +0.000 A 
ATOM     10 CL   UNL     1      -4.581  12.250  24.680  0.00  0.00    +0.000 Cl
ATOM     11  C   UNL     1      -2.292  11.528  23.451  0.00  0.00    +0.000 A 
ATOM     12  C   UNL     1      -1.130  11.788  22.708  0.00  0.00    +0.000 A 
ATOM     13 CL   UNL     1      -0.053  10.442  22.507  0.00  0.00    +0.000 Cl
ENDBRANCH   4   6
BRANCH   5  14
ATOM     14  C   UNL     1      -0.030  12.140  19.249  0.00  0.00    +0.000 A 
ATOM     15  C   UNL     1      -1.119  12.715  18.572  0.00  0.00    +0.000 A 
ATOM     16  C   UNL     1      -1.957  11.931  17.768  0.00  0.00    +0.000 A 
ATOM     17  C   UNL     1      -1.679  10.582  17.580  0.00  0.00    +0.000 A 
ATOM     18 CL   UNL     1      -2.707   9.620  16.591  0.00  0.00    +0.000 Cl
ATOM     19  C   UNL     1      -0.578  10.005  18.200  0.00  0.00    +0.000 A 
ATOM     20  C   UNL     1       0.229  10.774  19.048  0.00  0.00    +0.000 A 
ENDBRANCH   5  14
BRANCH   2  21
ATOM     21  C   UNL     1       3.541  15.064  21.275  0.00  0.00    +0.000 C 
ATOM     22  O   UNL     1       3.584  16.252  20.976  0.00  0.00    +0.000 OA
ATOM     23  N   UNL     1       4.601  14.380  21.876  0.00  0.00    +0.000 N 
ATOM     24  H   UNL     1       4.477  13.386  22.061  0.00  0.00    +0.000 HD
BRANCH  23  25
ATOM     25  N   UNL     1       5.852  15.023  22.035  0.00  0.00    +0.000 NA
ATOM     26  C   UNL     1       6.944  14.344  21.333  0.00  0.00    +0.000 C 
ATOM     27  C   UNL     1       7.518  13.368  22.343  0.00  0.00    +0.000 C 
ATOM     28  C   UNL     1       7.366  14.089  23.669  0.00  0.00    +0.000 C 
ATOM     29  C   UNL     1       6.251  15.106  23.451  0.00  0.00    +0.000 C 
ENDBRANCH  23  25
ENDBRANCH   2  21
BRANCH   1  31
ATOM     30  C   UNL     1       3.001  14.825  17.828  0.00  0.00    +0.000 C 
ATOM     31  S   UNL     1       3.018  13.146  18.520  0.00  0.00    +0.000 S 
ENDBRANCH   1  31
TORSDOF 5
ENDMDL
MODEL 8
REMARK VINA RESULT:      -5.9      1.226      1.647
REMARK  Name = 
REMARK  6 active torsions:
REMARK  status: ('A' for Active; 'I' for Inactive)
REMARK    1  A    between atoms: C_1  and  S_2
REMARK    2  A    between atoms: S_2  and  C_3
REMARK    3  A    between atoms: C_4  and  C_5
REMARK    4  A    between atoms: N_7  and  N_8
REMARK    5  A    between atoms: C_14  and  C_15
REMARK    6  A    between atoms: N_23  and  C_24
REMARK                            x       y       z     vdW  Elec       q    Type
REMARK                         _______ _______ _______ _____ _____    ______ ____
ROOT
ATOM      1  C   UNL     1      -1.866  14.182  20.731  0.00  0.00    +0.000 A 
ATOM      2  C   UNL     1      -2.907  13.261  20.735  0.00  0.00    +0.000 A 
ATOM      3  N   UNL     1      -2.393  11.989  20.648  0.00  0.00    +0.000 NA
ATOM      4  C   UNL     1      -1.085  12.091  20.483  0.00  0.00    +0.000 A 
ATOM      5  N   UNL     1      -0.690  13.452  20.484  0.00  0.00    +0.000 N 
ENDROOT
BRANCH   4   6
ATOM      6  C   UNL     1      -0.217  10.888  20.382  0.00  0.00    +0.000 A 
ATOM      7  C   UNL     1       0.437  10.569  19.176  0.00  0.00    +0.000 A 
ATOM      8  C   UNL     1       1.173   9.387  19.035  0.00  0.00    +0.000 A 
ATOM      9  C   UNL     1       1.347   8.546  20.127  0.00  0.00    +0.000 A 
ATOM     10 CL   UNL     1       2.248   7.092  19.953  0.00  0.00    +0.000 Cl
ATOM     11  C   UNL     1       0.795   8.877  21.357  0.00  0.00    +0.000 A 
ATOM     12  C   UNL     1       0.010  10.033  21.485  0.00  0.00    +0.000 A 
ATOM     13 CL   UNL     1      -0.673  10.304  23.058  0.00  0.00    +0.000 Cl
ENDBRANCH   4   6
BRANCH   5  14
ATOM     14  C   UNL     1       0.639  13.971  20.272  0.00  0.00    +0.000 A 
ATOM     15  C   UNL     1       1.074  14.318  18.981  0.00  0.00    +0.000 A 
ATOM     16  C   UNL     1       2.397  14.721  18.756  0.00  0.00    +0.000 A 
ATOM     17  C   UNL     1       3.280  14.843  19.823  0.00  0.00    +0.000 A 
ATOM     18 CL   UNL     1       4.903  15.339  19.546  0.00  0.00    +0.000 Cl
ATOM     19  C   UNL     1       2.855  14.553  21.114  0.00  0.00    +0.000 A 
ATOM     20  C   UNL     1       1.549  14.098  21.334  0.00  0.00    +0.000 A 
ENDBRANCH   5  14
BRANCH   2  21
ATOM     21  C   UNL     1      -4.353  13.520  20.800  0.00  0.00    +0.000 C 
ATOM     22  O   UNL     1      -4.980  13.616  21.850  0.00  0.00    +0.000 OA
ATOM     23  N   UNL     1      -4.933  13.664  19.538  0.00  0.00    +0.000 N 
ATOM     24  H   UNL     1      -4.333  13.539  18.726  0.00  0.00    +0.000 HD
BRANCH  23  25
ATOM     25  N   UNL     1      -6.339  13.791  19.421  0.00  0.00    +0.000 NA
ATOM     26  C   UNL     1      -7.017  12.509  19.206  0.00  0.00    +0.000 C 
ATOM     27  C   UNL     1      -7.086  12.344  17.700  0.00  0.00    +0.000 C 
ATOM     28  C   UNL     1      -7.261  13.762  17.189  0.00  0.00    +0.000 C 
ATOM     29  C   UNL     1      -6.721  14.661  18.295  0.00  0.00    +0.000 C 
ENDBRANCH  23  25
ENDBRANCH   2  21
BRANCH   1  31
ATOM     30  C   UNL     1      -2.020  16.183  22.592  0.00  0.00    +0.000 C 
ATOM     31  S   UNL     1      -1.956  15.927  20.795  0.00  0.00    +0.000 S 
ENDBRANCH   1  31
TORSDOF 5
ENDMDL
MODEL 9
REMARK VINA RESULT:      -5.9      3.763      4.890
REMARK  Name = 
REMARK  6 active torsions:
REMARK  status: ('A' for Active; 'I' for Inactive)
REMARK    1  A    between atoms: C_1  and  S_2
REMARK    2  A    between atoms: S_2  and  C_3
REMARK    3  A    between atoms: C_4  and  C_5
REMARK    4  A    between atoms: N_7  and  N_8
REMARK    5  A    between atoms: C_14  and  C_15
REMARK    6  A    between atoms: N_23  and  C_24
REMARK                            x       y       z     vdW  Elec       q    Type
REMARK                         _______ _______ _______ _____ _____    ______ ____
ROOT
ATOM      1  C   UNL     1      -3.183  12.830  21.254  0.00  0.00    +0.000 A 
ATOM      2  C   UNL     1      -4.546  12.626  21.076  0.00  0.00    +0.000 A 
ATOM      3  N   UNL     1      -4.766  12.048  19.848  0.00  0.00    +0.000 NA
ATOM      4  C   UNL     1      -3.606  11.986  19.216  0.00  0.00    +0.000 A 
ATOM      5  N   UNL     1      -2.569  12.503  20.033  0.00  0.00    +0.000 N 
ENDROOT
BRANCH   4   6
ATOM      6  C   UNL     1      -3.488  11.383  17.863  0.00  0.00    +0.000 A 
ATOM      7  C   UNL     1      -2.452  10.478  17.562  0.00  0.00    +0.000 A 
ATOM      8  C   UNL     1      -2.267   9.983  16.267  0.00  0.00    +0.000 A 
ATOM      9  C   UNL     1      -3.172  10.310  15.265  0.00  0.00    +0.000 A 
ATOM     10 CL   UNL     1      -2.943   9.705  13.672  0.00  0.00    +0.000 Cl
ATOM     11  C   UNL     1      -4.260  11.126  15.548  0.00  0.00    +0.000 A 
ATOM     12  C   UNL     1      -4.415  11.668  16.833  0.00  0.00    +0.000 A 
ATOM     13 CL   UNL     1      -5.780  12.719  17.043  0.00  0.00    +0.000 Cl
ENDBRANCH   4   6
BRANCH   5  14
ATOM     14  C   UNL     1      -1.180  12.659  19.677  0.00  0.00    +0.000 A 
ATOM     15  C   UNL     1      -0.733  13.829  19.039  0.00  0.00    +0.000 A 
ATOM     16  C   UNL     1       0.593  13.941  18.596  0.00  0.00    +0.000 A 
ATOM     17  C   UNL     1       1.498  12.915  18.842  0.00  0.00    +0.000 A 
ATOM     18 CL   UNL     1       3.125  13.053  18.299  0.00  0.00    +0.000 Cl
ATOM     19  C   UNL     1       1.088  11.771  19.516  0.00  0.00    +0.000 A 
ATOM     20  C   UNL     1      -0.248  11.634  19.911  0.00  0.00    +0.000 A 
ENDBRANCH   5  14
BRANCH   2  21
ATOM     21  C   UNL     1      -5.646  12.960  21.994  0.00  0.00    +0.000 C 
ATOM     22  O   UNL     1      -6.409  12.127  22.473  0.00  0.00    +0.000 OA
ATOM     23  N   UNL     1      -5.716  14.326  22.277  0.00  0.00    +0.000 N 
ATOM     24  H   UNL     1      -5.054  14.940  21.807  0.00  0.00    +0.000 HD
BRANCH  23  25
ATOM     25  N   UNL     1      -6.796  14.830  23.043  0.00  0.00    +0.000 NA
ATOM     26  C   UNL     1      -7.917  15.297  22.221  0.00  0.00    +0.000 C 
ATOM     27  C   UNL     1      -7.639  16.768  21.973  0.00  0.00    +0.000 C 
ATOM     28  C   UNL     1      -6.967  17.229  23.252  0.00  0.00    +0.000 C 
ATOM     29  C   UNL     1      -6.389  15.968  23.884  0.00  0.00    +0.000 C 
ENDBRANCH  23  25
ENDBRANCH   2  21
BRANCH   1  31
ATOM     30  C   UNL     1      -1.553  12.086  23.322  0.00  0.00    +0.000 C 
ATOM     31  S   UNL     1      -2.359  13.553  22.617  0.00  0.00    +0.000 S 
ENDBRANCH   1  31
TORSDOF 5
ENDMDL
