MODEL 1
REMARK VINA RESULT:      -7.6      0.000      0.000
REMARK  Name = 
REMARK  6 active torsions:
REMARK  status: ('A' for Active; 'I' for Inactive)
REMARK    1  A    between atoms: C_1  and  C_2
REMARK    2  A    between atoms: C_2  and  C_3
REMARK    3  A    between atoms: C_2  and  N_4
REMARK    4  A    between atoms: C_5  and  C_7
REMARK    5  A    between atoms: C_7  and  N_8
REMARK    6  A    between atoms: C_10  and  C_11
REMARK                            x       y       z     vdW  Elec       q    Type
REMARK                         _______ _______ _______ _____ _____    ______ ____
ROOT
ATOM      1  N   UNL     1       5.789   4.752  16.400  0.00  0.00    +0.000 N 
ATOM      2  C   UNL     1       4.944   3.933  17.093  0.00  0.00    +0.000 A 
ATOM      3  C   UNL     1       3.930   4.734  17.573  0.00  0.00    +0.000 A 
ATOM      4  C   UNL     1       4.259   6.024  17.091  0.00  0.00    +0.000 A 
ATOM      5  N   UNL     1       5.381   6.037  16.364  0.00  0.00    +0.000 NA
ENDROOT
BRANCH   3   6
ATOM      6  C   UNL     1       2.846   4.284  18.430  0.00  0.00    +0.000 A 
ATOM      7  C   UNL     1       2.107   3.145  18.083  0.00  0.00    +0.000 A 
ATOM      8  C   UNL     1       1.031   2.727  18.870  0.00  0.00    +0.000 A 
ATOM      9  C   UNL     1       0.686   3.439  20.016  0.00  0.00    +0.000 A 
ATOM     10  C   UNL     1       1.424   4.561  20.383  0.00  0.00    +0.000 A 
ATOM     11  C   UNL     1       2.500   4.982  19.595  0.00  0.00    +0.000 A 
ENDBRANCH   3   6
BRANCH   1  12
ATOM     12  C   UNL     1       7.036   4.378  15.765  0.00  0.00    +0.000 C 
BRANCH  12  14
ATOM     13  N   UNL     1       6.214   3.544  13.626  0.00  0.00    +0.000 N 
ATOM     14  C   UNL     1       6.944   4.520  14.267  0.00  0.00    +0.000 C 
ATOM     15  O   UNL     1       7.459   5.468  13.678  0.00  0.00    +0.000 OA
ATOM     16  H   UNL     1       5.812   2.793  14.187  0.00  0.00    +0.000 HD
BRANCH  13  18
ATOM     17  C   UNL     1       6.916   2.455  11.547  0.00  0.00    +0.000 C 
ATOM     18  C   UNL     1       6.035   3.527  12.182  0.00  0.00    +0.000 C 
ATOM     19  C   UNL     1       4.569   3.310  11.819  0.00  0.00    +0.000 C 
ENDBRANCH  13  18
ENDBRANCH  12  14
ENDBRANCH   1  12
TORSDOF 4
ENDMDL
MODEL 2
REMARK VINA RESULT:      -7.6      0.367      1.190
REMARK  Name = 
REMARK  6 active torsions:
REMARK  status: ('A' for Active; 'I' for Inactive)
REMARK    1  A    between atoms: C_1  and  C_2
REMARK    2  A    between atoms: C_2  and  C_3
REMARK    3  A    between atoms: C_2  and  N_4
REMARK    4  A    between atoms: C_5  and  C_7
REMARK    5  A    between atoms: C_7  and  N_8
REMARK    6  A    between atoms: C_10  and  C_11
REMARK                            x       y       z     vdW  Elec       q    Type
REMARK                         _______ _______ _______ _____ _____    ______ ____
ROOT
ATOM      1  N   UNL     1       5.921   5.011  16.195  0.00  0.00    +0.000 N 
ATOM      2  C   UNL     1       5.046   4.219  16.884  0.00  0.00    +0.000 A 
ATOM      3  C   UNL     1       4.070   5.058  17.380  0.00  0.00    +0.000 A 
ATOM      4  C   UNL     1       4.452   6.338  16.912  0.00  0.00    +0.000 A 
ATOM      5  N   UNL     1       5.569   6.312  16.178  0.00  0.00    +0.000 NA
ENDROOT
BRANCH   3   6
ATOM      6  C   UNL     1       2.973   4.645  18.238  0.00  0.00    +0.000 A 
ATOM      7  C   UNL     1       2.768   5.284  19.469  0.00  0.00    +0.000 A 
ATOM      8  C   UNL     1       1.747   4.868  20.326  0.00  0.00    +0.000 A 
ATOM      9  C   UNL     1       0.915   3.813  19.961  0.00  0.00    +0.000 A 
ATOM     10  C   UNL     1       1.095   3.181  18.733  0.00  0.00    +0.000 A 
ATOM     11  C   UNL     1       2.117   3.596  17.874  0.00  0.00    +0.000 A 
ENDBRANCH   3   6
BRANCH   1  12
ATOM     12  C   UNL     1       7.147   4.590  15.549  0.00  0.00    +0.000 C 
BRANCH  12  14
ATOM     13  N   UNL     1       6.249   3.552  13.532  0.00  0.00    +0.000 N 
ATOM     14  C   UNL     1       6.994   4.590  14.049  0.00  0.00    +0.000 C 
ATOM     15  O   UNL     1       7.475   5.482  13.352  0.00  0.00    +0.000 OA
ATOM     16  H   UNL     1       5.878   2.855  14.177  0.00  0.00    +0.000 HD
BRANCH  13  18
ATOM     17  C   UNL     1       6.698   2.138  11.584  0.00  0.00    +0.000 C 
ATOM     18  C   UNL     1       6.014   3.398  12.105  0.00  0.00    +0.000 C 
ATOM     19  C   UNL     1       4.518   3.369  11.802  0.00  0.00    +0.000 C 
ENDBRANCH  13  18
ENDBRANCH  12  14
ENDBRANCH   1  12
TORSDOF 4
ENDMDL
MODEL 3
REMARK VINA RESULT:      -7.3      2.518      6.947
REMARK  Name = 
REMARK  6 active torsions:
REMARK  status: ('A' for Active; 'I' for Inactive)
REMARK    1  A    between atoms: C_1  and  C_2
REMARK    2  A    between atoms: C_2  and  C_3
REMARK    3  A    between atoms: C_2  and  N_4
REMARK    4  A    between atoms: C_5  and  C_7
REMARK    5  A    between atoms: C_7  and  N_8
REMARK    6  A    between atoms: C_10  and  C_11
REMARK                            x       y       z     vdW  Elec       q    Type
REMARK                         _______ _______ _______ _____ _____    ______ ____
ROOT
ATOM      1  N   UNL     1       5.748   4.759  18.125  0.00  0.00    +0.000 N 
ATOM      2  C   UNL     1       5.432   4.631  16.802  0.00  0.00    +0.000 A 
ATOM      3  C   UNL     1       6.628   4.511  16.126  0.00  0.00    +0.000 A 
ATOM      4  C   UNL     1       7.604   4.564  17.150  0.00  0.00    +0.000 A 
ATOM      5  N   UNL     1       7.073   4.700  18.369  0.00  0.00    +0.000 NA
ENDROOT
BRANCH   3   6
ATOM      6  C   UNL     1       6.765   4.423  14.682  0.00  0.00    +0.000 A 
ATOM      7  C   UNL     1       7.678   5.253  14.015  0.00  0.00    +0.000 A 
ATOM      8  C   UNL     1       7.788   5.215  12.623  0.00  0.00    +0.000 A 
ATOM      9  C   UNL     1       6.992   4.344  11.883  0.00  0.00    +0.000 A 
ATOM     10  C   UNL     1       6.096   3.501  12.534  0.00  0.00    +0.000 A 
ATOM     11  C   UNL     1       5.984   3.538  13.927  0.00  0.00    +0.000 A 
ENDBRANCH   3   6
BRANCH   1  12
ATOM     12  C   UNL     1       4.826   4.977  19.220  0.00  0.00    +0.000 C 
BRANCH  12  14
ATOM     13  N   UNL     1       2.752   3.736  19.548  0.00  0.00    +0.000 N 
ATOM     14  C   UNL     1       4.128   3.696  19.602  0.00  0.00    +0.000 C 
ATOM     15  O   UNL     1       4.758   2.684  19.902  0.00  0.00    +0.000 OA
ATOM     16  H   UNL     1       2.303   4.613  19.283  0.00  0.00    +0.000 HD
BRANCH  13  18
ATOM     17  C   UNL     1       1.382   2.733  21.313  0.00  0.00    +0.000 C 
ATOM     18  C   UNL     1       1.926   2.589  19.894  0.00  0.00    +0.000 C 
ATOM     19  C   UNL     1       0.788   2.418  18.892  0.00  0.00    +0.000 C 
ENDBRANCH  13  18
ENDBRANCH  12  14
ENDBRANCH   1  12
TORSDOF 4
ENDMDL
MODEL 4
REMARK VINA RESULT:      -7.2      0.987      1.126
REMARK  Name = 
REMARK  6 active torsions:
REMARK  status: ('A' for Active; 'I' for Inactive)
REMARK    1  A    between atoms: C_1  and  C_2
REMARK    2  A    between atoms: C_2  and  C_3
REMARK    3  A    between atoms: C_2  and  N_4
REMARK    4  A    between atoms: C_5  and  C_7
REMARK    5  A    between atoms: C_7  and  N_8
REMARK    6  A    between atoms: C_10  and  C_11
REMARK                            x       y       z     vdW  Elec       q    Type
REMARK                         _______ _______ _______ _____ _____    ______ ____
ROOT
ATOM      1  N   UNL     1       5.695   4.508  16.719  0.00  0.00    +0.000 N 
ATOM      2  C   UNL     1       5.139   3.721  17.688  0.00  0.00    +0.000 A 
ATOM      3  C   UNL     1       3.962   4.336  18.060  0.00  0.00    +0.000 A 
ATOM      4  C   UNL     1       3.902   5.484  17.234  0.00  0.00    +0.000 A 
ATOM      5  N   UNL     1       4.946   5.585  16.406  0.00  0.00    +0.000 NA
ENDROOT
BRANCH   3   6
ATOM      6  C   UNL     1       3.080   3.876  19.119  0.00  0.00    +0.000 A 
ATOM      7  C   UNL     1       1.766   4.360  19.194  0.00  0.00    +0.000 A 
ATOM      8  C   UNL     1       0.920   3.965  20.233  0.00  0.00    +0.000 A 
ATOM      9  C   UNL     1       1.375   3.077  21.204  0.00  0.00    +0.000 A 
ATOM     10  C   UNL     1       2.671   2.573  21.130  0.00  0.00    +0.000 A 
ATOM     11  C   UNL     1       3.519   2.969  20.092  0.00  0.00    +0.000 A 
ENDBRANCH   3   6
BRANCH   1  12
ATOM     12  C   UNL     1       6.971   4.306  16.064  0.00  0.00    +0.000 C 
BRANCH  12  14
ATOM     13  N   UNL     1       6.260   3.516  13.869  0.00  0.00    +0.000 N 
ATOM     14  C   UNL     1       6.858   4.535  14.578  0.00  0.00    +0.000 C 
ATOM     15  O   UNL     1       7.243   5.579  14.056  0.00  0.00    +0.000 OA
ATOM     16  H   UNL     1       5.962   2.683  14.376  0.00  0.00    +0.000 HD
BRANCH  13  18
ATOM     17  C   UNL     1       6.963   2.534  11.738  0.00  0.00    +0.000 C 
ATOM     18  C   UNL     1       6.082   3.572  12.426  0.00  0.00    +0.000 C 
ATOM     19  C   UNL     1       4.616   3.373  12.052  0.00  0.00    +0.000 C 
ENDBRANCH  13  18
ENDBRANCH  12  14
ENDBRANCH   1  12
TORSDOF 4
ENDMDL
MODEL 5
REMARK VINA RESULT:      -7.1      2.388      6.709
REMARK  Name = 
REMARK  6 active torsions:
REMARK  status: ('A' for Active; 'I' for Inactive)
REMARK    1  A    between atoms: C_1  and  C_2
REMARK    2  A    between atoms: C_2  and  C_3
REMARK    3  A    between atoms: C_2  and  N_4
REMARK    4  A    between atoms: C_5  and  C_7
REMARK    5  A    between atoms: C_7  and  N_8
REMARK    6  A    between atoms: C_10  and  C_11
REMARK                            x       y       z     vdW  Elec       q    Type
REMARK                         _______ _______ _______ _____ _____    ______ ____
ROOT
ATOM      1  N   UNL     1       5.578   5.196  17.871  0.00  0.00    +0.000 N 
ATOM      2  C   UNL     1       6.207   4.508  16.872  0.00  0.00    +0.000 A 
ATOM      3  C   UNL     1       5.889   5.153  15.696  0.00  0.00    +0.000 A 
ATOM      4  C   UNL     1       5.071   6.232  16.109  0.00  0.00    +0.000 A 
ATOM      5  N   UNL     1       4.892   6.271  17.433  0.00  0.00    +0.000 NA
ENDROOT
BRANCH   3   6
ATOM      6  C   UNL     1       6.290   4.714  14.370  0.00  0.00    +0.000 A 
ATOM      7  C   UNL     1       7.414   5.283  13.754  0.00  0.00    +0.000 A 
ATOM      8  C   UNL     1       7.785   4.907  12.461  0.00  0.00    +0.000 A 
ATOM      9  C   UNL     1       7.041   3.954  11.771  0.00  0.00    +0.000 A 
ATOM     10  C   UNL     1       5.933   3.366  12.377  0.00  0.00    +0.000 A 
ATOM     11  C   UNL     1       5.560   3.742  13.671  0.00  0.00    +0.000 A 
ENDBRANCH   3   6
BRANCH   1  12
ATOM     12  C   UNL     1       5.563   4.861  19.279  0.00  0.00    +0.000 C 
BRANCH  12  14
ATOM     13  N   UNL     1       3.232   4.151  19.387  0.00  0.00    +0.000 N 
ATOM     14  C   UNL     1       4.548   3.784  19.567  0.00  0.00    +0.000 C 
ATOM     15  O   UNL     1       4.888   2.651  19.901  0.00  0.00    +0.000 OA
ATOM     16  H   UNL     1       3.032   5.109  19.102  0.00  0.00    +0.000 HD
BRANCH  13  18
ATOM     17  C   UNL     1       1.038   3.918  20.452  0.00  0.00    +0.000 C 
ATOM     18  C   UNL     1       2.128   3.234  19.631  0.00  0.00    +0.000 C 
ATOM     19  C   UNL     1       1.564   2.704  18.316  0.00  0.00    +0.000 C 
ENDBRANCH  13  18
ENDBRANCH  12  14
ENDBRANCH   1  12
TORSDOF 4
ENDMDL
MODEL 6
REMARK VINA RESULT:      -6.9      1.072      1.634
REMARK  Name = 
REMARK  6 active torsions:
REMARK  status: ('A' for Active; 'I' for Inactive)
REMARK    1  A    between atoms: C_1  and  C_2
REMARK    2  A    between atoms: C_2  and  C_3
REMARK    3  A    between atoms: C_2  and  N_4
REMARK    4  A    between atoms: C_5  and  C_7
REMARK    5  A    between atoms: C_7  and  N_8
REMARK    6  A    between atoms: C_10  and  C_11
REMARK                            x       y       z     vdW  Elec       q    Type
REMARK                         _______ _______ _______ _____ _____    ______ ____
ROOT
ATOM      1  N   UNL     1       6.116   4.495  17.318  0.00  0.00    +0.000 N 
ATOM      2  C   UNL     1       4.865   3.948  17.361  0.00  0.00    +0.000 A 
ATOM      3  C   UNL     1       4.292   4.379  18.539  0.00  0.00    +0.000 A 
ATOM      4  C   UNL     1       5.289   5.197  19.122  0.00  0.00    +0.000 A 
ATOM      5  N   UNL     1       6.394   5.283  18.376  0.00  0.00    +0.000 NA
ENDROOT
BRANCH   3   6
ATOM      6  C   UNL     1       2.983   3.977  19.026  0.00  0.00    +0.000 A 
ATOM      7  C   UNL     1       2.440   4.593  20.162  0.00  0.00    +0.000 A 
ATOM      8  C   UNL     1       1.205   4.186  20.671  0.00  0.00    +0.000 A 
ATOM      9  C   UNL     1       0.495   3.164  20.047  0.00  0.00    +0.000 A 
ATOM     10  C   UNL     1       1.014   2.556  18.906  0.00  0.00    +0.000 A 
ATOM     11  C   UNL     1       2.250   2.962  18.396  0.00  0.00    +0.000 A 
ENDBRANCH   3   6
BRANCH   1  12
ATOM     12  C   UNL     1       7.123   4.278  16.300  0.00  0.00    +0.000 C 
BRANCH  12  14
ATOM     13  N   UNL     1       6.588   3.675  13.998  0.00  0.00    +0.000 N 
ATOM     14  C   UNL     1       6.612   4.681  14.940  0.00  0.00    +0.000 C 
ATOM     15  O   UNL     1       6.214   5.821  14.713  0.00  0.00    +0.000 OA
ATOM     16  H   UNL     1       6.930   2.752  14.266  0.00  0.00    +0.000 HD
BRANCH  13  18
ATOM     17  C   UNL     1       7.277   4.417  11.768  0.00  0.00    +0.000 C 
ATOM     18  C   UNL     1       6.133   3.897  12.634  0.00  0.00    +0.000 C 
ATOM     19  C   UNL     1       5.544   2.619  12.044  0.00  0.00    +0.000 C 
ENDBRANCH  13  18
ENDBRANCH  12  14
ENDBRANCH   1  12
TORSDOF 4
ENDMDL
MODEL 7
REMARK VINA RESULT:      -6.9      0.992      1.257
REMARK  Name = 
REMARK  6 active torsions:
REMARK  status: ('A' for Active; 'I' for Inactive)
REMARK    1  A    between atoms: C_1  and  C_2
REMARK    2  A    between atoms: C_2  and  C_3
REMARK    3  A    between atoms: C_2  and  N_4
REMARK    4  A    between atoms: C_5  and  C_7
REMARK    5  A    between atoms: C_7  and  N_8
REMARK    6  A    between atoms: C_10  and  C_11
REMARK                            x       y       z     vdW  Elec       q    Type
REMARK                         _______ _______ _______ _____ _____    ______ ____
ROOT
ATOM      1  N   UNL     1       6.107   4.951  15.878  0.00  0.00    +0.000 N 
ATOM      2  C   UNL     1       5.326   3.924  16.326  0.00  0.00    +0.000 A 
ATOM      3  C   UNL     1       4.261   4.502  16.983  0.00  0.00    +0.000 A 
ATOM      4  C   UNL     1       4.497   5.892  16.854  0.00  0.00    +0.000 A 
ATOM      5  N   UNL     1       5.611   6.170  16.170  0.00  0.00    +0.000 NA
ENDROOT
BRANCH   3   6
ATOM      6  C   UNL     1       3.216   3.773  17.681  0.00  0.00    +0.000 A 
ATOM      7  C   UNL     1       1.924   4.310  17.764  0.00  0.00    +0.000 A 
ATOM      8  C   UNL     1       0.920   3.645  18.472  0.00  0.00    +0.000 A 
ATOM      9  C   UNL     1       1.194   2.432  19.099  0.00  0.00    +0.000 A 
ATOM     10  C   UNL     1       2.468   1.877  19.008  0.00  0.00    +0.000 A 
ATOM     11  C   UNL     1       3.474   2.542  18.301  0.00  0.00    +0.000 A 
ENDBRANCH   3   6
BRANCH   1  12
ATOM     12  C   UNL     1       7.374   4.840  15.184  0.00  0.00    +0.000 C 
BRANCH  12  14
ATOM     13  N   UNL     1       6.397   3.617  13.314  0.00  0.00    +0.000 N 
ATOM     14  C   UNL     1       7.165   4.694  13.698  0.00  0.00    +0.000 C 
ATOM     15  O   UNL     1       7.624   5.510  12.900  0.00  0.00    +0.000 OA
ATOM     16  H   UNL     1       6.047   2.989  14.037  0.00  0.00    +0.000 HD
BRANCH  13  18
ATOM     17  C   UNL     1       6.785   2.027  11.491  0.00  0.00    +0.000 C 
ATOM     18  C   UNL     1       6.108   3.326  11.917  0.00  0.00    +0.000 C 
ATOM     19  C   UNL     1       4.602   3.257  11.679  0.00  0.00    +0.000 C 
ENDBRANCH  13  18
ENDBRANCH  12  14
ENDBRANCH   1  12
TORSDOF 4
ENDMDL
MODEL 8
REMARK VINA RESULT:      -6.9      1.669      2.159
REMARK  Name = 
REMARK  6 active torsions:
REMARK  status: ('A' for Active; 'I' for Inactive)
REMARK    1  A    between atoms: C_1  and  C_2
REMARK    2  A    between atoms: C_2  and  C_3
REMARK    3  A    between atoms: C_2  and  N_4
REMARK    4  A    between atoms: C_5  and  C_7
REMARK    5  A    between atoms: C_7  and  N_8
REMARK    6  A    between atoms: C_10  and  C_11
REMARK                            x       y       z     vdW  Elec       q    Type
REMARK                         _______ _______ _______ _____ _____    ______ ____
ROOT
ATOM      1  N   UNL     1       5.397   6.136  17.695  0.00  0.00    +0.000 N 
ATOM      2  C   UNL     1       4.986   5.044  18.406  0.00  0.00    +0.000 A 
ATOM      3  C   UNL     1       3.654   5.247  18.696  0.00  0.00    +0.000 A 
ATOM      4  C   UNL     1       3.361   6.495  18.093  0.00  0.00    +0.000 A 
ATOM      5  N   UNL     1       4.414   7.031  17.470  0.00  0.00    +0.000 NA
ENDROOT
BRANCH   3   6
ATOM      6  C   UNL     1       2.831   4.362  19.503  0.00  0.00    +0.000 A 
ATOM      7  C   UNL     1       1.491   4.140  19.154  0.00  0.00    +0.000 A 
ATOM      8  C   UNL     1       0.674   3.330  19.947  0.00  0.00    +0.000 A 
ATOM      9  C   UNL     1       1.188   2.728  21.092  0.00  0.00    +0.000 A 
ATOM     10  C   UNL     1       2.522   2.924  21.439  0.00  0.00    +0.000 A 
ATOM     11  C   UNL     1       3.341   3.735  20.649  0.00  0.00    +0.000 A 
ENDBRANCH   3   6
BRANCH   1  12
ATOM     12  C   UNL     1       6.738   6.408  17.220  0.00  0.00    +0.000 C 
BRANCH  12  14
ATOM     13  N   UNL     1       6.843   5.541  14.943  0.00  0.00    +0.000 N 
ATOM     14  C   UNL     1       7.198   5.342  16.259  0.00  0.00    +0.000 C 
ATOM     15  O   UNL     1       7.875   4.386  16.634  0.00  0.00    +0.000 OA
ATOM     16  H   UNL     1       6.286   6.363  14.712  0.00  0.00    +0.000 HD
BRANCH  13  18
ATOM     17  C   UNL     1       5.967   3.839  13.416  0.00  0.00    +0.000 C 
ATOM     18  C   UNL     1       7.200   4.602  13.890  0.00  0.00    +0.000 C 
ATOM     19  C   UNL     1       7.873   5.324  12.726  0.00  0.00    +0.000 C 
ENDBRANCH  13  18
ENDBRANCH  12  14
ENDBRANCH   1  12
TORSDOF 4
ENDMDL
MODEL 9
REMARK VINA RESULT:      -6.9      1.204      1.367
REMARK  Name = 
REMARK  6 active torsions:
REMARK  status: ('A' for Active; 'I' for Inactive)
REMARK    1  A    between atoms: C_1  and  C_2
REMARK    2  A    between atoms: C_2  and  C_3
REMARK    3  A    between atoms: C_2  and  N_4
REMARK    4  A    between atoms: C_5  and  C_7
REMARK    5  A    between atoms: C_7  and  N_8
REMARK    6  A    between atoms: C_10  and  C_11
REMARK                            x       y       z     vdW  Elec       q    Type
REMARK                         _______ _______ _______ _____ _____    ______ ____
ROOT
ATOM      1  N   UNL     1       5.617   4.120  16.714  0.00  0.00    +0.000 N 
ATOM      2  C   UNL     1       5.273   3.750  17.984  0.00  0.00    +0.000 A 
ATOM      3  C   UNL     1       3.901   3.855  18.062  0.00  0.00    +0.000 A 
ATOM      4  C   UNL     1       3.518   4.284  16.769  0.00  0.00    +0.000 A 
ATOM      5  N   UNL     1       4.557   4.432  15.941  0.00  0.00    +0.000 NA
ENDROOT
BRANCH   3   6
ATOM      6  C   UNL     1       3.114   3.625  19.262  0.00  0.00    +0.000 A 
ATOM      7  C   UNL     1       3.594   2.764  20.259  0.00  0.00    +0.000 A 
ATOM      8  C   UNL     1       2.829   2.494  21.396  0.00  0.00    +0.000 A 
ATOM      9  C   UNL     1       1.578   3.087  21.553  0.00  0.00    +0.000 A 
ATOM     10  C   UNL     1       1.098   3.959  20.580  0.00  0.00    +0.000 A 
ATOM     11  C   UNL     1       1.862   4.229  19.441  0.00  0.00    +0.000 A 
ENDBRANCH   3   6
BRANCH   1  12
ATOM     12  C   UNL     1       6.956   4.231  16.175  0.00  0.00    +0.000 C 
BRANCH  12  14
ATOM     13  N   UNL     1       6.353   3.546  13.913  0.00  0.00    +0.000 N 
ATOM     14  C   UNL     1       6.921   4.527  14.697  0.00  0.00    +0.000 C 
ATOM     15  O   UNL     1       7.339   5.590  14.243  0.00  0.00    +0.000 OA
ATOM     16  H   UNL     1       6.023   2.694  14.367  0.00  0.00    +0.000 HD
BRANCH  13  18
ATOM     17  C   UNL     1       7.230   2.723  11.779  0.00  0.00    +0.000 C 
ATOM     18  C   UNL     1       6.250   3.669  12.467  0.00  0.00    +0.000 C 
ATOM     19  C   UNL     1       4.821   3.402  12.001  0.00  0.00    +0.000 C 
ENDBRANCH  13  18
ENDBRANCH  12  14
ENDBRANCH   1  12
TORSDOF 4
ENDMDL
