MODEL 1
REMARK VINA RESULT:     -10.1      0.000      0.000
REMARK  Name = 
REMARK  4 active torsions:
REMARK  status: ('A' for Active; 'I' for Inactive)
REMARK    1  A    between atoms: C_1  and  N_2
REMARK    2  A    between atoms: C_7  and  C_8
REMARK    3  A    between atoms: C_8  and  C_9
REMARK    4  A    between atoms: C_9  and  N_10
REMARK                            x       y       z     vdW  Elec       q    Type
REMARK                         _______ _______ _______ _____ _____    ______ ____
ROOT
ATOM      1  N   UNL     1       2.263   6.876  19.913  0.00  0.00    +0.000 N 
ATOM      2  C   UNL     1       3.182   6.753  18.824  0.00  0.00    +0.000 A 
ATOM      3  N   UNL     1       4.066   5.727  18.797  0.00  0.00    +0.000 NA
ATOM      4  C   UNL     1       4.990   5.547  17.835  0.00  0.00    +0.000 A 
ATOM      5  C   UNL     1       5.909   4.532  17.947  0.00  0.00    +0.000 A 
ATOM      6  C   UNL     1       6.948   4.369  16.992  0.00  0.00    +0.000 A 
ATOM      7  C   UNL     1       6.898   4.656  15.640  0.00  0.00    +0.000 A 
ATOM      8  C   UNL     1       6.049   5.788  15.653  0.00  0.00    +0.000 A 
ATOM      9  C   UNL     1       5.090   6.323  16.717  0.00  0.00    +0.000 A 
ATOM     10  C   UNL     1       4.212   7.480  16.786  0.00  0.00    +0.000 A 
ATOM     11  C   UNL     1       3.247   7.675  17.812  0.00  0.00    +0.000 A 
ATOM     12  S   UNL     1       2.116   9.028  17.694  0.00  0.00    +0.000 S 
ATOM     13  C   UNL     1       1.401   9.073  19.335  0.00  0.00    +0.000 A 
ATOM     14  C   UNL     1       0.693  10.236  19.617  0.00  0.00    +0.000 A 
ATOM     15  C   UNL     1       0.033  10.381  20.810  0.00  0.00    +0.000 A 
ATOM     16  C   UNL     1      -0.673  11.580  21.071  0.00  0.00    +0.000 A 
ATOM     17  C   UNL     1      -1.284  11.778  22.299  0.00  0.00    +0.000 A 
ATOM     18  C   UNL     1      -1.218  10.759  23.220  0.00  0.00    +0.000 A 
ATOM     19  C   UNL     1      -0.558   9.552  22.932  0.00  0.00    +0.000 A 
ATOM     20  C   UNL     1       0.114   9.318  21.726  0.00  0.00    +0.000 A 
ATOM     21  N   UNL     1       0.803   8.156  21.443  0.00  0.00    +0.000 NA
ATOM     22  C   UNL     1       1.474   8.020  20.254  0.00  0.00    +0.000 A 
ENDROOT
BRANCH   1  23
ATOM     23  C   UNL     1       2.179   5.688  20.775  0.00  0.00    +0.000 C 
BRANCH  23  24
ATOM     24  C   UNL     1       1.118   4.607  20.467  0.00  0.00    +0.000 C 
BRANCH  24  31
ATOM     25  C   UNL     1       2.890   2.407  21.588  0.00  0.00    +0.000 C 
ATOM     26  N   UNL     1       2.907   2.875  20.202  0.00  0.00    +0.000 NA
ATOM     27  C   UNL     1       3.344   1.728  19.407  0.00  0.00    +0.000 C 
ATOM     28  C   UNL     1       3.448   2.058  17.931  0.00  0.00    +0.000 C 
ATOM     29  C   UNL     1       2.106   2.524  17.394  0.00  0.00    +0.000 C 
ATOM     30  C   UNL     1       1.631   3.713  18.209  0.00  0.00    +0.000 C 
ATOM     31  C   UNL     1       1.583   3.357  19.724  0.00  0.00    +0.000 C 
ENDBRANCH  24  31
ENDBRANCH  23  24
ENDBRANCH   1  23
TORSDOF 3
ENDMDL
MODEL 2
REMARK VINA RESULT:      -8.8      0.598      1.304
REMARK  Name = 
REMARK  4 active torsions:
REMARK  status: ('A' for Active; 'I' for Inactive)
REMARK    1  A    between atoms: C_1  and  N_2
REMARK    2  A    between atoms: C_7  and  C_8
REMARK    3  A    between atoms: C_8  and  C_9
REMARK    4  A    between atoms: C_9  and  N_10
REMARK                            x       y       z     vdW  Elec       q    Type
REMARK                         _______ _______ _______ _____ _____    ______ ____
ROOT
ATOM      1  N   UNL     1       2.227   7.060  20.080  0.00  0.00    +0.000 N 
ATOM      2  C   UNL     1       3.126   6.899  18.979  0.00  0.00    +0.000 A 
ATOM      3  N   UNL     1       4.056   5.914  19.003  0.00  0.00    +0.000 NA
ATOM      4  C   UNL     1       4.964   5.705  18.032  0.00  0.00    +0.000 A 
ATOM      5  C   UNL     1       5.933   4.744  18.192  0.00  0.00    +0.000 A 
ATOM      6  C   UNL     1       6.955   4.558  17.224  0.00  0.00    +0.000 A 
ATOM      7  C   UNL     1       6.861   4.744  15.857  0.00  0.00    +0.000 A 
ATOM      8  C   UNL     1       5.960   5.834  15.811  0.00  0.00    +0.000 A 
ATOM      9  C   UNL     1       5.003   6.402  16.859  0.00  0.00    +0.000 A 
ATOM     10  C   UNL     1       4.074   7.520  16.868  0.00  0.00    +0.000 A 
ATOM     11  C   UNL     1       3.125   7.746  17.902  0.00  0.00    +0.000 A 
ATOM     12  S   UNL     1       1.930   9.035  17.717  0.00  0.00    +0.000 S 
ATOM     13  C   UNL     1       1.252   9.168  19.369  0.00  0.00    +0.000 A 
ATOM     14  C   UNL     1       0.497  10.315  19.585  0.00  0.00    +0.000 A 
ATOM     15  C   UNL     1      -0.142  10.517  20.782  0.00  0.00    +0.000 A 
ATOM     16  C   UNL     1      -0.896  11.699  20.975  0.00  0.00    +0.000 A 
ATOM     17  C   UNL     1      -1.488  11.959  22.201  0.00  0.00    +0.000 A 
ATOM     18  C   UNL     1      -1.353  11.014  23.191  0.00  0.00    +0.000 A 
ATOM     19  C   UNL     1      -0.644   9.820  22.973  0.00  0.00    +0.000 A 
ATOM     20  C   UNL     1       0.010   9.529  21.769  0.00  0.00    +0.000 A 
ATOM     21  N   UNL     1       0.745   8.381  21.553  0.00  0.00    +0.000 NA
ATOM     22  C   UNL     1       1.395   8.189  20.359  0.00  0.00    +0.000 A 
ENDROOT
BRANCH   1  23
ATOM     23  C   UNL     1       2.219   5.935  21.027  0.00  0.00    +0.000 C 
BRANCH  23  24
ATOM     24  C   UNL     1       1.713   4.554  20.553  0.00  0.00    +0.000 C 
BRANCH  24  31
ATOM     25  C   UNL     1       1.344   4.019  17.584  0.00  0.00    +0.000 C 
ATOM     26  N   UNL     1       1.916   3.074  18.543  0.00  0.00    +0.000 NA
ATOM     27  C   UNL     1       2.833   2.238  17.769  0.00  0.00    +0.000 C 
ATOM     28  C   UNL     1       3.493   1.170  18.620  0.00  0.00    +0.000 C 
ATOM     29  C   UNL     1       4.274   1.804  19.757  0.00  0.00    +0.000 C 
ATOM     30  C   UNL     1       3.342   2.681  20.572  0.00  0.00    +0.000 C 
ATOM     31  C   UNL     1       2.642   3.733  19.662  0.00  0.00    +0.000 C 
ENDBRANCH  24  31
ENDBRANCH  23  24
ENDBRANCH   1  23
TORSDOF 3
ENDMDL
MODEL 3
REMARK VINA RESULT:      -7.8      3.774      7.917
REMARK  Name = 
REMARK  4 active torsions:
REMARK  status: ('A' for Active; 'I' for Inactive)
REMARK    1  A    between atoms: C_1  and  N_2
REMARK    2  A    between atoms: C_7  and  C_8
REMARK    3  A    between atoms: C_8  and  C_9
REMARK    4  A    between atoms: C_9  and  N_10
REMARK                            x       y       z     vdW  Elec       q    Type
REMARK                         _______ _______ _______ _____ _____    ______ ____
ROOT
ATOM      1  N   UNL     1       0.008  11.417  20.313  0.00  0.00    +0.000 N 
ATOM      2  C   UNL     1       0.618  10.124  20.293  0.00  0.00    +0.000 A 
ATOM      3  N   UNL     1       1.273   9.701  19.186  0.00  0.00    +0.000 NA
ATOM      4  C   UNL     1       1.849   8.491  19.061  0.00  0.00    +0.000 A 
ATOM      5  C   UNL     1       2.404   8.114  17.861  0.00  0.00    +0.000 A 
ATOM      6  C   UNL     1       2.942   6.813  17.673  0.00  0.00    +0.000 A 
ATOM      7  C   UNL     1       3.562   6.017  18.618  0.00  0.00    +0.000 A 
ATOM      8  C   UNL     1       2.828   6.375  19.773  0.00  0.00    +0.000 A 
ATOM      9  C   UNL     1       1.923   7.572  20.068  0.00  0.00    +0.000 A 
ATOM     10  C   UNL     1       1.140   7.978  21.224  0.00  0.00    +0.000 A 
ATOM     11  C   UNL     1       0.522   9.252  21.346  0.00  0.00    +0.000 A 
ATOM     12  S   UNL     1      -0.254   9.696  22.871  0.00  0.00    +0.000 S 
ATOM     13  C   UNL     1      -1.179  11.161  22.417  0.00  0.00    +0.000 A 
ATOM     14  C   UNL     1      -2.127  11.551  23.356  0.00  0.00    +0.000 A 
ATOM     15  C   UNL     1      -2.862  12.695  23.175  0.00  0.00    +0.000 A 
ATOM     16  C   UNL     1      -3.825  13.061  24.145  0.00  0.00    +0.000 A 
ATOM     17  C   UNL     1      -4.631  14.172  23.946  0.00  0.00    +0.000 A 
ATOM     18  C   UNL     1      -4.426  14.917  22.808  0.00  0.00    +0.000 A 
ATOM     19  C   UNL     1      -3.432  14.572  21.876  0.00  0.00    +0.000 A 
ATOM     20  C   UNL     1      -2.622  13.437  22.006  0.00  0.00    +0.000 A 
ATOM     21  N   UNL     1      -1.671  13.061  21.079  0.00  0.00    +0.000 NA
ATOM     22  C   UNL     1      -0.948  11.909  21.256  0.00  0.00    +0.000 A 
ENDROOT
BRANCH   1  23
ATOM     23  C   UNL     1       0.405  12.293  19.200  0.00  0.00    +0.000 C 
BRANCH  23  24
ATOM     24  C   UNL     1       1.503  13.355  19.432  0.00  0.00    +0.000 C 
BRANCH  24  31
ATOM     25  C   UNL     1       3.829  14.871  18.196  0.00  0.00    +0.000 C 
ATOM     26  N   UNL     1       2.632  15.489  18.766  0.00  0.00    +0.000 NA
ATOM     27  C   UNL     1       2.462  16.750  18.045  0.00  0.00    +0.000 C 
ATOM     28  C   UNL     1       1.266  17.539  18.543  0.00  0.00    +0.000 C 
ATOM     29  C   UNL     1      -0.008  16.729  18.390  0.00  0.00    +0.000 C 
ATOM     30  C   UNL     1       0.148  15.412  19.127  0.00  0.00    +0.000 C 
ATOM     31  C   UNL     1       1.411  14.650  18.629  0.00  0.00    +0.000 C 
ENDBRANCH  24  31
ENDBRANCH  23  24
ENDBRANCH   1  23
TORSDOF 3
ENDMDL
MODEL 4
REMARK VINA RESULT:      -7.8      3.373      7.750
REMARK  Name = 
REMARK  4 active torsions:
REMARK  status: ('A' for Active; 'I' for Inactive)
REMARK    1  A    between atoms: C_1  and  N_2
REMARK    2  A    between atoms: C_7  and  C_8
REMARK    3  A    between atoms: C_8  and  C_9
REMARK    4  A    between atoms: C_9  and  N_10
REMARK                            x       y       z     vdW  Elec       q    Type
REMARK                         _______ _______ _______ _____ _____    ______ ____
ROOT
ATOM      1  N   UNL     1       0.033  11.309  20.247  0.00  0.00    +0.000 N 
ATOM      2  C   UNL     1       0.654  10.021  20.250  0.00  0.00    +0.000 A 
ATOM      3  N   UNL     1       1.299   9.578  19.145  0.00  0.00    +0.000 NA
ATOM      4  C   UNL     1       1.884   8.370  19.041  0.00  0.00    +0.000 A 
ATOM      5  C   UNL     1       2.427   7.971  17.843  0.00  0.00    +0.000 A 
ATOM      6  C   UNL     1       2.974   6.671  17.679  0.00  0.00    +0.000 A 
ATOM      7  C   UNL     1       3.614   5.902  18.634  0.00  0.00    +0.000 A 
ATOM      8  C   UNL     1       2.892   6.282  19.790  0.00  0.00    +0.000 A 
ATOM      9  C   UNL     1       1.980   7.477  20.068  0.00  0.00    +0.000 A 
ATOM     10  C   UNL     1       1.208   7.903  21.224  0.00  0.00    +0.000 A 
ATOM     11  C   UNL     1       0.579   9.174  21.325  0.00  0.00    +0.000 A 
ATOM     12  S   UNL     1      -0.181   9.648  22.849  0.00  0.00    +0.000 S 
ATOM     13  C   UNL     1      -1.125  11.092  22.373  0.00  0.00    +0.000 A 
ATOM     14  C   UNL     1      -2.064  11.497  23.315  0.00  0.00    +0.000 A 
ATOM     15  C   UNL     1      -2.812  12.629  23.116  0.00  0.00    +0.000 A 
ATOM     16  C   UNL     1      -3.766  13.010  24.090  0.00  0.00    +0.000 A 
ATOM     17  C   UNL     1      -4.584  14.108  23.875  0.00  0.00    +0.000 A 
ATOM     18  C   UNL     1      -4.401  14.828  22.718  0.00  0.00    +0.000 A 
ATOM     19  C   UNL     1      -3.416  14.470  21.781  0.00  0.00    +0.000 A 
ATOM     20  C   UNL     1      -2.594  13.345  21.927  0.00  0.00    +0.000 A 
ATOM     21  N   UNL     1      -1.652  12.956  20.996  0.00  0.00    +0.000 NA
ATOM     22  C   UNL     1      -0.916  11.815  21.192  0.00  0.00    +0.000 A 
ENDROOT
BRANCH   1  23
ATOM     23  C   UNL     1       0.407  12.162  19.109  0.00  0.00    +0.000 C 
BRANCH  23  24
ATOM     24  C   UNL     1       1.599  13.134  19.256  0.00  0.00    +0.000 C 
BRANCH  24  31
ATOM     25  C   UNL     1       2.419  14.850  21.627  0.00  0.00    +0.000 C 
ATOM     26  N   UNL     1       1.163  14.983  20.888  0.00  0.00    +0.000 NA
ATOM     27  C   UNL     1       0.778  16.387  21.020  0.00  0.00    +0.000 C 
ATOM     28  C   UNL     1      -0.538  16.689  20.328  0.00  0.00    +0.000 C 
ATOM     29  C   UNL     1      -0.450  16.358  18.849  0.00  0.00    +0.000 C 
ATOM     30  C   UNL     1      -0.046  14.904  18.689  0.00  0.00    +0.000 C 
ATOM     31  C   UNL     1       1.280  14.614  19.451  0.00  0.00    +0.000 C 
ENDBRANCH  24  31
ENDBRANCH  23  24
ENDBRANCH   1  23
TORSDOF 3
ENDMDL
MODEL 5
REMARK VINA RESULT:      -7.5      3.475      9.502
REMARK  Name = 
REMARK  4 active torsions:
REMARK  status: ('A' for Active; 'I' for Inactive)
REMARK    1  A    between atoms: C_1  and  N_2
REMARK    2  A    between atoms: C_7  and  C_8
REMARK    3  A    between atoms: C_8  and  C_9
REMARK    4  A    between atoms: C_9  and  N_10
REMARK                            x       y       z     vdW  Elec       q    Type
REMARK                         _______ _______ _______ _____ _____    ______ ____
ROOT
ATOM      1  N   UNL     1      -0.262  10.864  19.866  0.00  0.00    +0.000 N 
ATOM      2  C   UNL     1      -0.836  11.474  21.025  0.00  0.00    +0.000 A 
ATOM      3  N   UNL     1      -1.313  12.739  20.958  0.00  0.00    +0.000 NA
ATOM      4  C   UNL     1      -1.840  13.407  22.001  0.00  0.00    +0.000 A 
ATOM      5  C   UNL     1      -2.206  14.725  21.859  0.00  0.00    +0.000 A 
ATOM      6  C   UNL     1      -2.684  15.480  22.962  0.00  0.00    +0.000 A 
ATOM      7  C   UNL     1      -3.421  15.020  24.039  0.00  0.00    +0.000 A 
ATOM      8  C   UNL     1      -2.872  13.724  24.186  0.00  0.00    +0.000 A 
ATOM      9  C   UNL     1      -2.044  12.860  23.234  0.00  0.00    +0.000 A 
ATOM     10  C   UNL     1      -1.447  11.539  23.341  0.00  0.00    +0.000 A 
ATOM     11  C   UNL     1      -0.879  10.842  22.240  0.00  0.00    +0.000 A 
ATOM     12  S   UNL     1      -0.344   9.171  22.454  0.00  0.00    +0.000 S 
ATOM     13  C   UNL     1       0.608   8.880  20.966  0.00  0.00    +0.000 A 
ATOM     14  C   UNL     1       1.400   7.738  21.009  0.00  0.00    +0.000 A 
ATOM     15  C   UNL     1       2.131   7.352  19.915  0.00  0.00    +0.000 A 
ATOM     16  C   UNL     1       2.934   6.189  19.992  0.00  0.00    +0.000 A 
ATOM     17  C   UNL     1       3.738   5.822  18.925  0.00  0.00    +0.000 A 
ATOM     18  C   UNL     1       3.688   6.595  17.789  0.00  0.00    +0.000 A 
ATOM     19  C   UNL     1       2.849   7.720  17.704  0.00  0.00    +0.000 A 
ATOM     20  C   UNL     1       2.052   8.160  18.768  0.00  0.00    +0.000 A 
ATOM     21  N   UNL     1       1.255   9.286  18.716  0.00  0.00    +0.000 NA
ATOM     22  C   UNL     1       0.536   9.677  19.818  0.00  0.00    +0.000 A 
ENDROOT
BRANCH   1  23
ATOM     23  C   UNL     1      -0.508  11.591  18.611  0.00  0.00    +0.000 C 
BRANCH  23  24
ATOM     24  C   UNL     1      -1.180  10.853  17.432  0.00  0.00    +0.000 C 
BRANCH  24  31
ATOM     25  C   UNL     1      -2.933  10.194  15.038  0.00  0.00    +0.000 C 
ATOM     26  N   UNL     1      -3.278  11.142  16.097  0.00  0.00    +0.000 NA
ATOM     27  C   UNL     1      -4.739  11.141  16.162  0.00  0.00    +0.000 C 
ATOM     28  C   UNL     1      -5.269  12.110  17.202  0.00  0.00    +0.000 C 
ATOM     29  C   UNL     1      -4.732  11.759  18.578  0.00  0.00    +0.000 C 
ATOM     30  C   UNL     1      -3.216  11.750  18.533  0.00  0.00    +0.000 C 
ATOM     31  C   UNL     1      -2.705  10.785  17.422  0.00  0.00    +0.000 C 
ENDBRANCH  24  31
ENDBRANCH  23  24
ENDBRANCH   1  23
TORSDOF 3
ENDMDL
MODEL 6
REMARK VINA RESULT:      -7.5      3.436      7.586
REMARK  Name = 
REMARK  4 active torsions:
REMARK  status: ('A' for Active; 'I' for Inactive)
REMARK    1  A    between atoms: C_1  and  N_2
REMARK    2  A    between atoms: C_7  and  C_8
REMARK    3  A    between atoms: C_8  and  C_9
REMARK    4  A    between atoms: C_9  and  N_10
REMARK                            x       y       z     vdW  Elec       q    Type
REMARK                         _______ _______ _______ _____ _____    ______ ____
ROOT
ATOM      1  N   UNL     1       0.110  11.174  20.109  0.00  0.00    +0.000 N 
ATOM      2  C   UNL     1       0.742   9.892  20.144  0.00  0.00    +0.000 A 
ATOM      3  N   UNL     1       1.372   9.417  19.043  0.00  0.00    +0.000 NA
ATOM      4  C   UNL     1       1.965   8.211  18.970  0.00  0.00    +0.000 A 
ATOM      5  C   UNL     1       2.491   7.775  17.777  0.00  0.00    +0.000 A 
ATOM      6  C   UNL     1       3.047   6.474  17.647  0.00  0.00    +0.000 A 
ATOM      7  C   UNL     1       3.709   5.744  18.617  0.00  0.00    +0.000 A 
ATOM      8  C   UNL     1       3.003   6.156  19.771  0.00  0.00    +0.000 A 
ATOM      9  C   UNL     1       2.086   7.353  20.024  0.00  0.00    +0.000 A 
ATOM     10  C   UNL     1       1.330   7.812  21.179  0.00  0.00    +0.000 A 
ATOM     11  C   UNL     1       0.693   9.081  21.248  0.00  0.00    +0.000 A 
ATOM     12  S   UNL     1      -0.045   9.599  22.767  0.00  0.00    +0.000 S 
ATOM     13  C   UNL     1      -1.009  11.020  22.259  0.00  0.00    +0.000 A 
ATOM     14  C   UNL     1      -1.936  11.448  23.203  0.00  0.00    +0.000 A 
ATOM     15  C   UNL     1      -2.696  12.567  22.980  0.00  0.00    +0.000 A 
ATOM     16  C   UNL     1      -3.637  12.973  23.956  0.00  0.00    +0.000 A 
ATOM     17  C   UNL     1      -4.468  14.057  23.719  0.00  0.00    +0.000 A 
ATOM     18  C   UNL     1      -4.310  14.739  22.535  0.00  0.00    +0.000 A 
ATOM     19  C   UNL     1      -3.339  14.357  21.594  0.00  0.00    +0.000 A 
ATOM     20  C   UNL     1      -2.505  13.245  21.763  0.00  0.00    +0.000 A 
ATOM     21  N   UNL     1      -1.575  12.832  20.831  0.00  0.00    +0.000 NA
ATOM     22  C   UNL     1      -0.826  11.703  21.051  0.00  0.00    +0.000 A 
ENDROOT
BRANCH   1  23
ATOM     23  C   UNL     1       0.458  11.991  18.936  0.00  0.00    +0.000 C 
BRANCH  23  24
ATOM     24  C   UNL     1       1.712  12.892  18.991  0.00  0.00    +0.000 C 
BRANCH  24  31
ATOM     25  C   UNL     1       0.309  15.583  18.815  0.00  0.00    +0.000 C 
ATOM     26  N   UNL     1       1.606  15.351  19.451  0.00  0.00    +0.000 NA
ATOM     27  C   UNL     1       1.720  16.373  20.491  0.00  0.00    +0.000 C 
ATOM     28  C   UNL     1       3.040  16.292  21.234  0.00  0.00    +0.000 C 
ATOM     29  C   UNL     1       3.201  14.931  21.886  0.00  0.00    +0.000 C 
ATOM     30  C   UNL     1       3.082  13.854  20.824  0.00  0.00    +0.000 C 
ATOM     31  C   UNL     1       1.740  13.995  20.047  0.00  0.00    +0.000 C 
ENDBRANCH  24  31
ENDBRANCH  23  24
ENDBRANCH   1  23
TORSDOF 3
ENDMDL
MODEL 7
REMARK VINA RESULT:      -7.4      1.831      4.486
REMARK  Name = 
REMARK  4 active torsions:
REMARK  status: ('A' for Active; 'I' for Inactive)
REMARK    1  A    between atoms: C_1  and  N_2
REMARK    2  A    between atoms: C_7  and  C_8
REMARK    3  A    between atoms: C_8  and  C_9
REMARK    4  A    between atoms: C_9  and  N_10
REMARK                            x       y       z     vdW  Elec       q    Type
REMARK                         _______ _______ _______ _____ _____    ______ ____
ROOT
ATOM      1  N   UNL     1       2.515   7.984  18.471  0.00  0.00    +0.000 N 
ATOM      2  C   UNL     1       2.218   6.681  18.981  0.00  0.00    +0.000 A 
ATOM      3  N   UNL     1       2.533   5.582  18.255  0.00  0.00    +0.000 NA
ATOM      4  C   UNL     1       2.264   4.319  18.635  0.00  0.00    +0.000 A 
ATOM      5  C   UNL     1       2.532   3.274  17.784  0.00  0.00    +0.000 A 
ATOM      6  C   UNL     1       2.180   1.939  18.122  0.00  0.00    +0.000 A 
ATOM      7  C   UNL     1       2.149   1.373  19.383  0.00  0.00    +0.000 A 
ATOM      8  C   UNL     1       1.730   2.486  20.150  0.00  0.00    +0.000 A 
ATOM      9  C   UNL     1       1.722   3.983  19.842  0.00  0.00    +0.000 A 
ATOM     10  C   UNL     1       1.293   5.158  20.583  0.00  0.00    +0.000 A 
ATOM     11  C   UNL     1       1.567   6.491  20.172  0.00  0.00    +0.000 A 
ATOM     12  S   UNL     1       1.150   7.833  21.244  0.00  0.00    +0.000 S 
ATOM     13  C   UNL     1       1.322   9.252  20.165  0.00  0.00    +0.000 A 
ATOM     14  C   UNL     1       0.762  10.421  20.668  0.00  0.00    +0.000 A 
ATOM     15  C   UNL     1       0.878  11.603  19.982  0.00  0.00    +0.000 A 
ATOM     16  C   UNL     1       0.291  12.775  20.515  0.00  0.00    +0.000 A 
ATOM     17  C   UNL     1       0.331  13.964  19.803  0.00  0.00    +0.000 A 
ATOM     18  C   UNL     1       0.996  13.968  18.599  0.00  0.00    +0.000 A 
ATOM     19  C   UNL     1       1.620  12.810  18.103  0.00  0.00    +0.000 A 
ATOM     20  C   UNL     1       1.570  11.574  18.759  0.00  0.00    +0.000 A 
ATOM     21  N   UNL     1       2.141  10.418  18.265  0.00  0.00    +0.000 NA
ATOM     22  C   UNL     1       2.010   9.235  18.947  0.00  0.00    +0.000 A 
ENDROOT
BRANCH   1  23
ATOM     23  C   UNL     1       3.411   7.990  17.305  0.00  0.00    +0.000 C 
BRANCH  23  24
ATOM     24  C   UNL     1       4.896   7.606  17.493  0.00  0.00    +0.000 C 
BRANCH  24  31
ATOM     25  C   UNL     1       6.913   5.765  18.827  0.00  0.00    +0.000 C 
ATOM     26  N   UNL     1       6.734   5.909  17.382  0.00  0.00    +0.000 NA
ATOM     27  C   UNL     1       7.134   4.625  16.808  0.00  0.00    +0.000 C 
ATOM     28  C   UNL     1       7.037   4.616  15.295  0.00  0.00    +0.000 C 
ATOM     29  C   UNL     1       5.616   4.912  14.851  0.00  0.00    +0.000 C 
ATOM     30  C   UNL     1       5.178   6.240  15.440  0.00  0.00    +0.000 C 
ATOM     31  C   UNL     1       5.336   6.234  16.989  0.00  0.00    +0.000 C 
ENDBRANCH  24  31
ENDBRANCH  23  24
ENDBRANCH   1  23
TORSDOF 3
ENDMDL
MODEL 8
REMARK VINA RESULT:      -7.4      3.082      9.146
REMARK  Name = 
REMARK  4 active torsions:
REMARK  status: ('A' for Active; 'I' for Inactive)
REMARK    1  A    between atoms: C_1  and  N_2
REMARK    2  A    between atoms: C_7  and  C_8
REMARK    3  A    between atoms: C_8  and  C_9
REMARK    4  A    between atoms: C_9  and  N_10
REMARK                            x       y       z     vdW  Elec       q    Type
REMARK                         _______ _______ _______ _____ _____    ______ ____
ROOT
ATOM      1  N   UNL     1       0.263  10.924  19.807  0.00  0.00    +0.000 N 
ATOM      2  C   UNL     1      -0.350  11.523  20.952  0.00  0.00    +0.000 A 
ATOM      3  N   UNL     1      -0.655  12.843  20.943  0.00  0.00    +0.000 NA
ATOM      4  C   UNL     1      -1.201  13.502  21.982  0.00  0.00    +0.000 A 
ATOM      5  C   UNL     1      -1.382  14.862  21.915  0.00  0.00    +0.000 A 
ATOM      6  C   UNL     1      -1.876  15.597  23.025  0.00  0.00    +0.000 A 
ATOM      7  C   UNL     1      -2.775  15.166  23.984  0.00  0.00    +0.000 A 
ATOM      8  C   UNL     1      -2.411  13.802  24.077  0.00  0.00    +0.000 A 
ATOM      9  C   UNL     1      -1.602  12.903  23.141  0.00  0.00    +0.000 A 
ATOM     10  C   UNL     1      -1.191  11.509  23.196  0.00  0.00    +0.000 A 
ATOM     11  C   UNL     1      -0.601  10.820  22.101  0.00  0.00    +0.000 A 
ATOM     12  S   UNL     1      -0.306   9.082  22.227  0.00  0.00    +0.000 S 
ATOM     13  C   UNL     1       0.755   8.771  20.819  0.00  0.00    +0.000 A 
ATOM     14  C   UNL     1       1.388   7.533  20.844  0.00  0.00    +0.000 A 
ATOM     15  C   UNL     1       2.177   7.129  19.798  0.00  0.00    +0.000 A 
ATOM     16  C   UNL     1       2.814   5.867  19.856  0.00  0.00    +0.000 A 
ATOM     17  C   UNL     1       3.675   5.471  18.844  0.00  0.00    +0.000 A 
ATOM     18  C   UNL     1       3.843   6.321  17.776  0.00  0.00    +0.000 A 
ATOM     19  C   UNL     1       3.166   7.550  17.704  0.00  0.00    +0.000 A 
ATOM     20  C   UNL     1       2.322   8.019  18.718  0.00  0.00    +0.000 A 
ATOM     21  N   UNL     1       1.682   9.241  18.683  0.00  0.00    +0.000 NA
ATOM     22  C   UNL     1       0.906   9.648  19.738  0.00  0.00    +0.000 A 
ENDROOT
BRANCH   1  23
ATOM     23  C   UNL     1       0.245  11.762  18.599  0.00  0.00    +0.000 C 
BRANCH  23  24
ATOM     24  C   UNL     1      -1.026  12.577  18.266  0.00  0.00    +0.000 C 
BRANCH  24  31
ATOM     25  C   UNL     1      -3.853  12.569  19.381  0.00  0.00    +0.000 C 
ATOM     26  N   UNL     1      -3.198  11.427  18.743  0.00  0.00    +0.000 NA
ATOM     27  C   UNL     1      -4.277  10.634  18.157  0.00  0.00    +0.000 C 
ATOM     28  C   UNL     1      -3.765   9.379  17.476  0.00  0.00    +0.000 C 
ATOM     29  C   UNL     1      -2.785   9.735  16.373  0.00  0.00    +0.000 C 
ATOM     30  C   UNL     1      -1.657  10.564  16.958  0.00  0.00    +0.000 C 
ATOM     31  C   UNL     1      -2.219  11.817  17.693  0.00  0.00    +0.000 C 
ENDBRANCH  24  31
ENDBRANCH  23  24
ENDBRANCH   1  23
TORSDOF 3
ENDMDL
MODEL 9
REMARK VINA RESULT:      -7.4      3.824      7.836
REMARK  Name = 
REMARK  4 active torsions:
REMARK  status: ('A' for Active; 'I' for Inactive)
REMARK    1  A    between atoms: C_1  and  N_2
REMARK    2  A    between atoms: C_7  and  C_8
REMARK    3  A    between atoms: C_8  and  C_9
REMARK    4  A    between atoms: C_9  and  N_10
REMARK                            x       y       z     vdW  Elec       q    Type
REMARK                         _______ _______ _______ _____ _____    ______ ____
ROOT
ATOM      1  N   UNL     1      -0.307  11.636  20.232  0.00  0.00    +0.000 N 
ATOM      2  C   UNL     1       0.362  10.372  20.246  0.00  0.00    +0.000 A 
ATOM      3  N   UNL     1       1.006   9.935  19.138  0.00  0.00    +0.000 NA
ATOM      4  C   UNL     1       1.634   8.748  19.045  0.00  0.00    +0.000 A 
ATOM      5  C   UNL     1       2.174   8.349  17.846  0.00  0.00    +0.000 A 
ATOM      6  C   UNL     1       2.767   7.067  17.694  0.00  0.00    +0.000 A 
ATOM      7  C   UNL     1       3.449   6.339  18.652  0.00  0.00    +0.000 A 
ATOM      8  C   UNL     1       2.730   6.710  19.812  0.00  0.00    +0.000 A 
ATOM      9  C   UNL     1       1.778   7.876  20.084  0.00  0.00    +0.000 A 
ATOM     10  C   UNL     1       1.008   8.292  21.245  0.00  0.00    +0.000 A 
ATOM     11  C   UNL     1       0.334   9.540  21.335  0.00  0.00    +0.000 A 
ATOM     12  S   UNL     1      -0.421  10.011  22.863  0.00  0.00    +0.000 S 
ATOM     13  C   UNL     1      -1.425  11.411  22.378  0.00  0.00    +0.000 A 
ATOM     14  C   UNL     1      -2.365  11.796  23.327  0.00  0.00    +0.000 A 
ATOM     15  C   UNL     1      -3.157  12.896  23.122  0.00  0.00    +0.000 A 
ATOM     16  C   UNL     1      -4.110  13.258  24.104  0.00  0.00    +0.000 A 
ATOM     17  C   UNL     1      -4.971  14.321  23.884  0.00  0.00    +0.000 A 
ATOM     18  C   UNL     1      -4.832  15.028  22.713  0.00  0.00    +0.000 A 
ATOM     19  C   UNL     1      -3.848  14.692  21.767  0.00  0.00    +0.000 A 
ATOM     20  C   UNL     1      -2.983  13.601  21.918  0.00  0.00    +0.000 A 
ATOM     21  N   UNL     1      -2.041  13.232  20.980  0.00  0.00    +0.000 NA
ATOM     22  C   UNL     1      -1.260  12.121  21.182  0.00  0.00    +0.000 A 
ENDROOT
BRANCH   1  23
ATOM     23  C   UNL     1       0.019  12.483  19.075  0.00  0.00    +0.000 C 
BRANCH  23  24
ATOM     24  C   UNL     1       0.160  14.009  19.274  0.00  0.00    +0.000 C 
BRANCH  24  31
ATOM     25  C   UNL     1       0.869  16.961  19.403  0.00  0.00    +0.000 C 
ATOM     26  N   UNL     1       1.550  15.969  18.572  0.00  0.00    +0.000 NA
ATOM     27  C   UNL     1       2.918  16.463  18.415  0.00  0.00    +0.000 C 
ATOM     28  C   UNL     1       3.760  15.554  17.540  0.00  0.00    +0.000 C 
ATOM     29  C   UNL     1       3.824  14.157  18.130  0.00  0.00    +0.000 C 
ATOM     30  C   UNL     1       2.413  13.626  18.306  0.00  0.00    +0.000 C 
ATOM     31  C   UNL     1       1.561  14.606  19.166  0.00  0.00    +0.000 C 
ENDBRANCH  24  31
ENDBRANCH  23  24
ENDBRANCH   1  23
TORSDOF 3
ENDMDL
