MODEL 1
REMARK VINA RESULT:      -8.0      0.000      0.000
REMARK  Name = 
REMARK  3 active torsions:
REMARK  status: ('A' for Active; 'I' for Inactive)
REMARK    1  A    between atoms: C_7  and  C_8
REMARK    2  A    between atoms: C_11  and  C_12
REMARK    3  A    between atoms: C_15  and  C_16
REMARK                            x       y       z     vdW  Elec       q    Type
REMARK                         _______ _______ _______ _____ _____    ______ ____
ROOT
ATOM      1  C   UNL     1       4.605   5.011  16.867  0.00  0.00    +0.000 A 
ATOM      2  C   UNL     1       5.101   5.241  15.609  0.00  0.00    +0.000 A 
ATOM      3  C   UNL     1       6.160   6.157  15.745  0.00  0.00    +0.000 A 
ATOM      4  C   UNL     1       6.275   6.458  17.091  0.00  0.00    +0.000 A 
ATOM      5  O   UNL     1       5.305   5.759  17.778  0.00  0.00    +0.000 OA
ENDROOT
BRANCH   1  12
ATOM      6 CL   UNL     1       2.001   6.454  17.909  0.00  0.00    +0.000 Cl
ATOM      7  C   UNL     1       2.321   4.749  17.889  0.00  0.00    +0.000 A 
ATOM      8  C   UNL     1       1.329   3.937  18.447  0.00  0.00    +0.000 A 
ATOM      9  C   UNL     1       1.498   2.556  18.498  0.00  0.00    +0.000 A 
ATOM     10  C   UNL     1       2.651   1.981  17.969  0.00  0.00    +0.000 A 
ATOM     11  C   UNL     1       3.647   2.789  17.411  0.00  0.00    +0.000 A 
ATOM     12  C   UNL     1       3.512   4.188  17.386  0.00  0.00    +0.000 A 
ENDBRANCH   1  12
BRANCH   4  13
ATOM     13  C   UNL     1       7.213   7.341  17.704  0.00  0.00    +0.000 A 
ATOM     14  N   UNL     1       8.092   6.962  18.631  0.00  0.00    +0.000 NA
ATOM     15  N   UNL     1       8.867   8.060  18.927  0.00  0.00    +0.000 NA
ATOM     16  C   UNL     1       8.394   9.057  18.203  0.00  0.00    +0.000 A 
ATOM     17  O   UNL     1       7.352   8.671  17.401  0.00  0.00    +0.000 OA
BRANCH  16  18
ATOM     18  C   UNL     1       8.814  10.446  18.134  0.00  0.00    +0.000 A 
ATOM     19  C   UNL     1      10.091  10.826  18.586  0.00  0.00    +0.000 A 
ATOM     20  C   UNL     1      10.528  12.147  18.461  0.00  0.00    +0.000 A 
ATOM     21  C   UNL     1       9.685  13.105  17.902  0.00  0.00    +0.000 A 
ATOM     22 BR   UNL     1      10.287  14.884  17.697  0.00  0.00    +0.000 Br
ATOM     23  C   UNL     1       8.404  12.753  17.476  0.00  0.00    +0.000 A 
ATOM     24  C   UNL     1       7.974  11.433  17.593  0.00  0.00    +0.000 A 
ENDBRANCH  16  18
ENDBRANCH   4  13
TORSDOF 3
ENDMDL
MODEL 2
REMARK VINA RESULT:      -7.9      6.146      7.784
REMARK  Name = 
REMARK  3 active torsions:
REMARK  status: ('A' for Active; 'I' for Inactive)
REMARK    1  A    between atoms: C_7  and  C_8
REMARK    2  A    between atoms: C_11  and  C_12
REMARK    3  A    between atoms: C_15  and  C_16
REMARK                            x       y       z     vdW  Elec       q    Type
REMARK                         _______ _______ _______ _____ _____    ______ ____
ROOT
ATOM      1  C   UNL     1       3.960   5.620  18.376  0.00  0.00    +0.000 A 
ATOM      2  C   UNL     1       3.323   5.096  19.472  0.00  0.00    +0.000 A 
ATOM      3  C   UNL     1       2.401   6.062  19.913  0.00  0.00    +0.000 A 
ATOM      4  C   UNL     1       2.507   7.151  19.066  0.00  0.00    +0.000 A 
ATOM      5  O   UNL     1       3.479   6.879  18.128  0.00  0.00    +0.000 OA
ENDROOT
BRANCH   1  12
ATOM      6 CL   UNL     1       6.919   5.542  19.467  0.00  0.00    +0.000 Cl
ATOM      7  C   UNL     1       6.367   5.076  17.889  0.00  0.00    +0.000 A 
ATOM      8  C   UNL     1       7.361   4.672  16.992  0.00  0.00    +0.000 A 
ATOM      9  C   UNL     1       7.026   4.296  15.695  0.00  0.00    +0.000 A 
ATOM     10  C   UNL     1       5.690   4.304  15.296  0.00  0.00    +0.000 A 
ATOM     11  C   UNL     1       4.693   4.709  16.189  0.00  0.00    +0.000 A 
ATOM     12  C   UNL     1       5.016   5.128  17.491  0.00  0.00    +0.000 A 
ENDBRANCH   1  12
BRANCH   4  13
ATOM     13  C   UNL     1       1.767   8.370  19.125  0.00  0.00    +0.000 A 
ATOM     14  N   UNL     1       1.702   9.246  18.123  0.00  0.00    +0.000 NA
ATOM     15  N   UNL     1       0.845  10.249  18.519  0.00  0.00    +0.000 NA
ATOM     16  C   UNL     1       0.471   9.956  19.749  0.00  0.00    +0.000 A 
ATOM     17  O   UNL     1       1.011   8.777  20.193  0.00  0.00    +0.000 OA
BRANCH  16  18
ATOM     18  C   UNL     1      -0.405  10.677  20.657  0.00  0.00    +0.000 A 
ATOM     19  C   UNL     1      -0.388  10.396  22.035  0.00  0.00    +0.000 A 
ATOM     20  C   UNL     1      -1.178  11.132  22.923  0.00  0.00    +0.000 A 
ATOM     21  C   UNL     1      -2.007  12.141  22.439  0.00  0.00    +0.000 A 
ATOM     22 BR   UNL     1      -3.047  13.162  23.641  0.00  0.00    +0.000 Br
ATOM     23  C   UNL     1      -2.060  12.413  21.072  0.00  0.00    +0.000 A 
ATOM     24  C   UNL     1      -1.264  11.685  20.190  0.00  0.00    +0.000 A 
ENDBRANCH  16  18
ENDBRANCH   4  13
TORSDOF 3
ENDMDL
MODEL 3
REMARK VINA RESULT:      -7.8      6.094      7.778
REMARK  Name = 
REMARK  3 active torsions:
REMARK  status: ('A' for Active; 'I' for Inactive)
REMARK    1  A    between atoms: C_7  and  C_8
REMARK    2  A    between atoms: C_11  and  C_12
REMARK    3  A    between atoms: C_15  and  C_16
REMARK                            x       y       z     vdW  Elec       q    Type
REMARK                         _______ _______ _______ _____ _____    ______ ____
ROOT
ATOM      1  C   UNL     1       3.930   5.671  18.009  0.00  0.00    +0.000 A 
ATOM      2  C   UNL     1       3.128   5.054  18.935  0.00  0.00    +0.000 A 
ATOM      3  C   UNL     1       2.242   6.029  19.428  0.00  0.00    +0.000 A 
ATOM      4  C   UNL     1       2.537   7.218  18.783  0.00  0.00    +0.000 A 
ATOM      5  O   UNL     1       3.587   6.995  17.919  0.00  0.00    +0.000 OA
ENDROOT
BRANCH   1  12
ATOM      6 CL   UNL     1       6.799   5.451  19.302  0.00  0.00    +0.000 Cl
ATOM      7  C   UNL     1       6.356   5.105  17.660  0.00  0.00    +0.000 A 
ATOM      8  C   UNL     1       7.406   4.739  16.812  0.00  0.00    +0.000 A 
ATOM      9  C   UNL     1       7.160   4.460  15.471  0.00  0.00    +0.000 A 
ATOM     10  C   UNL     1       5.858   4.525  14.979  0.00  0.00    +0.000 A 
ATOM     11  C   UNL     1       4.805   4.892  15.823  0.00  0.00    +0.000 A 
ATOM     12  C   UNL     1       5.040   5.215  17.171  0.00  0.00    +0.000 A 
ENDBRANCH   1  12
BRANCH   4  13
ATOM     13  C   UNL     1       1.897   8.481  18.960  0.00  0.00    +0.000 A 
ATOM     14  N   UNL     1       1.987   9.485  18.089  0.00  0.00    +0.000 NA
ATOM     15  N   UNL     1       1.187  10.501  18.560  0.00  0.00    +0.000 NA
ATOM     16  C   UNL     1       0.690  10.083  19.709  0.00  0.00    +0.000 A 
ATOM     17  O   UNL     1       1.093   8.811  20.020  0.00  0.00    +0.000 OA
BRANCH  16  18
ATOM     18  C   UNL     1      -0.194  10.755  20.646  0.00  0.00    +0.000 A 
ATOM     19  C   UNL     1      -1.145  11.683  20.186  0.00  0.00    +0.000 A 
ATOM     20  C   UNL     1      -2.045  12.281  21.072  0.00  0.00    +0.000 A 
ATOM     21  C   UNL     1      -1.988  11.973  22.429  0.00  0.00    +0.000 A 
ATOM     22 BR   UNL     1      -3.227  12.752  23.624  0.00  0.00    +0.000 Br
ATOM     23  C   UNL     1      -1.031  11.078  22.909  0.00  0.00    +0.000 A 
ATOM     24  C   UNL     1      -0.142  10.475  22.021  0.00  0.00    +0.000 A 
ENDBRANCH  16  18
ENDBRANCH   4  13
TORSDOF 3
ENDMDL
MODEL 4
REMARK VINA RESULT:      -7.8      6.983      8.279
REMARK  Name = 
REMARK  3 active torsions:
REMARK  status: ('A' for Active; 'I' for Inactive)
REMARK    1  A    between atoms: C_7  and  C_8
REMARK    2  A    between atoms: C_11  and  C_12
REMARK    3  A    between atoms: C_15  and  C_16
REMARK                            x       y       z     vdW  Elec       q    Type
REMARK                         _______ _______ _______ _____ _____    ______ ____
ROOT
ATOM      1  C   UNL     1       2.473   6.256  18.794  0.00  0.00    +0.000 A 
ATOM      2  C   UNL     1       2.679   7.316  17.949  0.00  0.00    +0.000 A 
ATOM      3  C   UNL     1       2.196   8.463  18.603  0.00  0.00    +0.000 A 
ATOM      4  C   UNL     1       1.705   8.061  19.834  0.00  0.00    +0.000 A 
ATOM      5  O   UNL     1       1.867   6.696  19.941  0.00  0.00    +0.000 OA
ENDROOT
BRANCH   1  12
ATOM      6 CL   UNL     1       5.396   5.217  19.370  0.00  0.00    +0.000 Cl
ATOM      7  C   UNL     1       4.014   4.271  18.915  0.00  0.00    +0.000 A 
ATOM      8  C   UNL     1       4.246   2.903  18.736  0.00  0.00    +0.000 A 
ATOM      9  C   UNL     1       3.208   2.059  18.352  0.00  0.00    +0.000 A 
ATOM     10  C   UNL     1       1.928   2.578  18.167  0.00  0.00    +0.000 A 
ATOM     11  C   UNL     1       1.692   3.945  18.343  0.00  0.00    +0.000 A 
ATOM     12  C   UNL     1       2.735   4.819  18.693  0.00  0.00    +0.000 A 
ENDBRANCH   1  12
BRANCH   4  13
ATOM     13  C   UNL     1       1.116   8.882  20.841  0.00  0.00    +0.000 A 
ATOM     14  N   UNL     1       1.539   8.921  22.105  0.00  0.00    +0.000 NA
ATOM     15  N   UNL     1       0.782   9.870  22.754  0.00  0.00    +0.000 NA
ATOM     16  C   UNL     1      -0.085  10.325  21.871  0.00  0.00    +0.000 A 
ATOM     17  O   UNL     1       0.075   9.748  20.638  0.00  0.00    +0.000 OA
BRANCH  16  18
ATOM     18  C   UNL     1      -1.135  11.319  22.016  0.00  0.00    +0.000 A 
ATOM     19  C   UNL     1      -1.503  12.129  20.928  0.00  0.00    +0.000 A 
ATOM     20  C   UNL     1      -2.558  13.039  21.041  0.00  0.00    +0.000 A 
ATOM     21  C   UNL     1      -3.241  13.160  22.248  0.00  0.00    +0.000 A 
ATOM     22 BR   UNL     1      -4.691  14.362  22.392  0.00  0.00    +0.000 Br
ATOM     23  C   UNL     1      -2.871  12.387  23.348  0.00  0.00    +0.000 A 
ATOM     24  C   UNL     1      -1.825  11.473  23.230  0.00  0.00    +0.000 A 
ENDBRANCH  16  18
ENDBRANCH   4  13
TORSDOF 3
ENDMDL
MODEL 5
REMARK VINA RESULT:      -7.8      7.631      8.720
REMARK  Name = 
REMARK  3 active torsions:
REMARK  status: ('A' for Active; 'I' for Inactive)
REMARK    1  A    between atoms: C_7  and  C_8
REMARK    2  A    between atoms: C_11  and  C_12
REMARK    3  A    between atoms: C_15  and  C_16
REMARK                            x       y       z     vdW  Elec       q    Type
REMARK                         _______ _______ _______ _____ _____    ______ ____
ROOT
ATOM      1  C   UNL     1       2.374   7.591  18.690  0.00  0.00    +0.000 A 
ATOM      2  C   UNL     1       1.952   8.619  17.887  0.00  0.00    +0.000 A 
ATOM      3  C   UNL     1       1.249   9.520  18.706  0.00  0.00    +0.000 A 
ATOM      4  C   UNL     1       1.264   9.007  19.991  0.00  0.00    +0.000 A 
ATOM      5  O   UNL     1       1.948   7.811  19.974  0.00  0.00    +0.000 OA
ENDROOT
BRANCH   1  12
ATOM      6 CL   UNL     1       1.623   5.015  20.349  0.00  0.00    +0.000 Cl
ATOM      7  C   UNL     1       2.869   5.168  19.151  0.00  0.00    +0.000 A 
ATOM      8  C   UNL     1       3.656   4.031  18.943  0.00  0.00    +0.000 A 
ATOM      9  C   UNL     1       4.694   4.055  18.017  0.00  0.00    +0.000 A 
ATOM     10  C   UNL     1       4.936   5.212  17.280  0.00  0.00    +0.000 A 
ATOM     11  C   UNL     1       4.153   6.352  17.485  0.00  0.00    +0.000 A 
ATOM     12  C   UNL     1       3.125   6.359  18.443  0.00  0.00    +0.000 A 
ENDBRANCH   1  12
BRANCH   4  13
ATOM     13  C   UNL     1       0.677   9.579  21.159  0.00  0.00    +0.000 A 
ATOM     14  N   UNL     1       0.880   9.117  22.393  0.00  0.00    +0.000 NA
ATOM     15  N   UNL     1       0.215   9.960  23.254  0.00  0.00    +0.000 NA
ATOM     16  C   UNL     1      -0.392  10.859  22.503  0.00  0.00    +0.000 A 
ATOM     17  O   UNL     1      -0.137  10.682  21.168  0.00  0.00    +0.000 OA
BRANCH  16  18
ATOM     18  C   UNL     1      -1.249  11.970  22.881  0.00  0.00    +0.000 A 
ATOM     19  C   UNL     1      -2.559  11.735  23.335  0.00  0.00    +0.000 A 
ATOM     20  C   UNL     1      -3.365  12.793  23.764  0.00  0.00    +0.000 A 
ATOM     21  C   UNL     1      -2.877  14.096  23.725  0.00  0.00    +0.000 A 
ATOM     22 BR   UNL     1      -3.951  15.523  24.340  0.00  0.00    +0.000 Br
ATOM     23  C   UNL     1      -1.591  14.352  23.248  0.00  0.00    +0.000 A 
ATOM     24  C   UNL     1      -0.785  13.295  22.830  0.00  0.00    +0.000 A 
ENDBRANCH  16  18
ENDBRANCH   4  13
TORSDOF 3
ENDMDL
MODEL 6
REMARK VINA RESULT:      -7.8      7.837      8.936
REMARK  Name = 
REMARK  3 active torsions:
REMARK  status: ('A' for Active; 'I' for Inactive)
REMARK    1  A    between atoms: C_7  and  C_8
REMARK    2  A    between atoms: C_11  and  C_12
REMARK    3  A    between atoms: C_15  and  C_16
REMARK                            x       y       z     vdW  Elec       q    Type
REMARK                         _______ _______ _______ _____ _____    ______ ____
ROOT
ATOM      1  C   UNL     1       2.212   7.961  18.645  0.00  0.00    +0.000 A 
ATOM      2  C   UNL     1       1.637   8.924  17.857  0.00  0.00    +0.000 A 
ATOM      3  C   UNL     1       0.886   9.756  18.707  0.00  0.00    +0.000 A 
ATOM      4  C   UNL     1       1.028   9.267  19.994  0.00  0.00    +0.000 A 
ATOM      5  O   UNL     1       1.837   8.152  19.949  0.00  0.00    +0.000 OA
ENDROOT
BRANCH   1  12
ATOM      6 CL   UNL     1       1.713   5.280  20.232  0.00  0.00    +0.000 Cl
ATOM      7  C   UNL     1       2.938   5.585  19.041  0.00  0.00    +0.000 A 
ATOM      8  C   UNL     1       3.831   4.534  18.805  0.00  0.00    +0.000 A 
ATOM      9  C   UNL     1       4.862   4.683  17.882  0.00  0.00    +0.000 A 
ATOM     10  C   UNL     1       4.991   5.878  17.177  0.00  0.00    +0.000 A 
ATOM     11  C   UNL     1       4.102   6.932  17.411  0.00  0.00    +0.000 A 
ATOM     12  C   UNL     1       3.078   6.814  18.366  0.00  0.00    +0.000 A 
ENDBRANCH   1  12
BRANCH   4  13
ATOM     13  C   UNL     1       0.447   9.790  21.188  0.00  0.00    +0.000 A 
ATOM     14  N   UNL     1       0.646   9.268  22.398  0.00  0.00    +0.000 NA
ATOM     15  N   UNL     1      -0.010  10.076  23.299  0.00  0.00    +0.000 NA
ATOM     16  C   UNL     1      -0.607  11.016  22.592  0.00  0.00    +0.000 A 
ATOM     17  O   UNL     1      -0.354  10.899  21.250  0.00  0.00    +0.000 OA
BRANCH  16  18
ATOM     18  C   UNL     1      -1.452  12.117  23.022  0.00  0.00    +0.000 A 
ATOM     19  C   UNL     1      -0.973  13.438  22.987  0.00  0.00    +0.000 A 
ATOM     20  C   UNL     1      -1.802  14.507  23.335  0.00  0.00    +0.000 A 
ATOM     21  C   UNL     1      -3.112  14.264  23.740  0.00  0.00    +0.000 A 
ATOM     22 BR   UNL     1      -4.247  15.710  24.175  0.00  0.00    +0.000 Br
ATOM     23  C   UNL     1      -3.596  12.958  23.811  0.00  0.00    +0.000 A 
ATOM     24  C   UNL     1      -2.770  11.894  23.454  0.00  0.00    +0.000 A 
ENDBRANCH  16  18
ENDBRANCH   4  13
TORSDOF 3
ENDMDL
MODEL 7
REMARK VINA RESULT:      -7.8      7.181      9.009
REMARK  Name = 
REMARK  3 active torsions:
REMARK  status: ('A' for Active; 'I' for Inactive)
REMARK    1  A    between atoms: C_7  and  C_8
REMARK    2  A    between atoms: C_11  and  C_12
REMARK    3  A    between atoms: C_15  and  C_16
REMARK                            x       y       z     vdW  Elec       q    Type
REMARK                         _______ _______ _______ _____ _____    ______ ____
ROOT
ATOM      1  C   UNL     1      -1.698  11.607  18.700  0.00  0.00    +0.000 A 
ATOM      2  C   UNL     1      -0.698  12.500  18.986  0.00  0.00    +0.000 A 
ATOM      3  C   UNL     1       0.467  11.751  19.225  0.00  0.00    +0.000 A 
ATOM      4  C   UNL     1       0.137  10.415  19.078  0.00  0.00    +0.000 A 
ATOM      5  O   UNL     1      -1.203  10.331  18.767  0.00  0.00    +0.000 OA
ENDROOT
BRANCH   1  12
ATOM      6 CL   UNL     1      -2.666  10.933  15.774  0.00  0.00    +0.000 Cl
ATOM      7  C   UNL     1      -3.637  11.489  17.101  0.00  0.00    +0.000 A 
ATOM      8  C   UNL     1      -4.987  11.710  16.815  0.00  0.00    +0.000 A 
ATOM      9  C   UNL     1      -5.848  12.175  17.805  0.00  0.00    +0.000 A 
ATOM     10  C   UNL     1      -5.363  12.401  19.092  0.00  0.00    +0.000 A 
ATOM     11  C   UNL     1      -4.013  12.183  19.382  0.00  0.00    +0.000 A 
ATOM     12  C   UNL     1      -3.120  11.751  18.385  0.00  0.00    +0.000 A 
ENDBRANCH   1  12
BRANCH   4  13
ATOM     13  C   UNL     1       0.999   9.288  19.225  0.00  0.00    +0.000 A 
ATOM     14  N   UNL     1       1.218   8.669  20.385  0.00  0.00    +0.000 NA
ATOM     15  N   UNL     1       2.039   7.596  20.121  0.00  0.00    +0.000 NA
ATOM     16  C   UNL     1       2.312   7.642  18.831  0.00  0.00    +0.000 A 
ATOM     17  O   UNL     1       1.681   8.683  18.201  0.00  0.00    +0.000 OA
BRANCH  16  18
ATOM     18  C   UNL     1       3.146   6.773  18.019  0.00  0.00    +0.000 A 
ATOM     19  C   UNL     1       4.197   7.308  17.254  0.00  0.00    +0.000 A 
ATOM     20  C   UNL     1       5.046   6.471  16.524  0.00  0.00    +0.000 A 
ATOM     21  C   UNL     1       4.839   5.094  16.537  0.00  0.00    +0.000 A 
ATOM     22 BR   UNL     1       6.007   3.957  15.582  0.00  0.00    +0.000 Br
ATOM     23  C   UNL     1       3.782   4.547  17.265  0.00  0.00    +0.000 A 
ATOM     24  C   UNL     1       2.943   5.383  18.000  0.00  0.00    +0.000 A 
ENDBRANCH  16  18
ENDBRANCH   4  13
TORSDOF 3
ENDMDL
MODEL 8
REMARK VINA RESULT:      -7.7      6.372      8.052
REMARK  Name = 
REMARK  3 active torsions:
REMARK  status: ('A' for Active; 'I' for Inactive)
REMARK    1  A    between atoms: C_7  and  C_8
REMARK    2  A    between atoms: C_11  and  C_12
REMARK    3  A    between atoms: C_15  and  C_16
REMARK                            x       y       z     vdW  Elec       q    Type
REMARK                         _______ _______ _______ _____ _____    ______ ____
ROOT
ATOM      1  C   UNL     1       3.791   6.038  18.422  0.00  0.00    +0.000 A 
ATOM      2  C   UNL     1       3.284   5.537  19.594  0.00  0.00    +0.000 A 
ATOM      3  C   UNL     1       2.352   6.475  20.073  0.00  0.00    +0.000 A 
ATOM      4  C   UNL     1       2.324   7.526  19.172  0.00  0.00    +0.000 A 
ATOM      5  O   UNL     1       3.223   7.258  18.162  0.00  0.00    +0.000 OA
ENDROOT
BRANCH   1  12
ATOM      6 CL   UNL     1       3.228   3.342  16.885  0.00  0.00    +0.000 Cl
ATOM      7  C   UNL     1       4.631   4.355  16.752  0.00  0.00    +0.000 A 
ATOM      8  C   UNL     1       5.641   3.886  15.906  0.00  0.00    +0.000 A 
ATOM      9  C   UNL     1       6.816   4.615  15.745  0.00  0.00    +0.000 A 
ATOM     10  C   UNL     1       6.976   5.826  16.415  0.00  0.00    +0.000 A 
ATOM     11  C   UNL     1       5.969   6.297  17.263  0.00  0.00    +0.000 A 
ATOM     12  C   UNL     1       4.792   5.557  17.468  0.00  0.00    +0.000 A 
ENDBRANCH   1  12
BRANCH   4  13
ATOM     13  C   UNL     1       1.525   8.706  19.243  0.00  0.00    +0.000 A 
ATOM     14  N   UNL     1       1.341   9.539  18.219  0.00  0.00    +0.000 NA
ATOM     15  N   UNL     1       0.463  10.511  18.642  0.00  0.00    +0.000 NA
ATOM     16  C   UNL     1       0.195  10.248  19.907  0.00  0.00    +0.000 A 
ATOM     17  O   UNL     1       0.828   9.116  20.350  0.00  0.00    +0.000 OA
BRANCH  16  18
ATOM     18  C   UNL     1      -0.650  10.958  20.852  0.00  0.00    +0.000 A 
ATOM     19  C   UNL     1      -1.536  11.955  20.405  0.00  0.00    +0.000 A 
ATOM     20  C   UNL     1      -2.400  12.594  21.298  0.00  0.00    +0.000 A 
ATOM     21  C   UNL     1      -2.372  12.256  22.649  0.00  0.00    +0.000 A 
ATOM     22 BR   UNL     1      -3.565  13.092  23.851  0.00  0.00    +0.000 Br
ATOM     23  C   UNL     1      -1.480  11.292  23.116  0.00  0.00    +0.000 A 
ATOM     24  C   UNL     1      -0.626  10.649  22.222  0.00  0.00    +0.000 A 
ENDBRANCH  16  18
ENDBRANCH   4  13
TORSDOF 3
ENDMDL
MODEL 9
REMARK VINA RESULT:      -7.7      6.431      7.678
REMARK  Name = 
REMARK  3 active torsions:
REMARK  status: ('A' for Active; 'I' for Inactive)
REMARK    1  A    between atoms: C_7  and  C_8
REMARK    2  A    between atoms: C_11  and  C_12
REMARK    3  A    between atoms: C_15  and  C_16
REMARK                            x       y       z     vdW  Elec       q    Type
REMARK                         _______ _______ _______ _____ _____    ______ ____
ROOT
ATOM      1  C   UNL     1       2.844   5.916  18.237  0.00  0.00    +0.000 A 
ATOM      2  C   UNL     1       3.737   6.577  17.434  0.00  0.00    +0.000 A 
ATOM      3  C   UNL     1       3.434   7.947  17.523  0.00  0.00    +0.000 A 
ATOM      4  C   UNL     1       2.357   8.077  18.382  0.00  0.00    +0.000 A 
ATOM      5  O   UNL     1       1.988   6.820  18.809  0.00  0.00    +0.000 OA
ENDROOT
BRANCH   1  12
ATOM      6 CL   UNL     1       5.299   4.199  19.225  0.00  0.00    +0.000 Cl
ATOM      7  C   UNL     1       3.668   3.659  18.985  0.00  0.00    +0.000 A 
ATOM      8  C   UNL     1       3.439   2.298  19.206  0.00  0.00    +0.000 A 
ATOM      9  C   UNL     1       2.169   1.760  19.022  0.00  0.00    +0.000 A 
ATOM     10  C   UNL     1       1.117   2.588  18.635  0.00  0.00    +0.000 A 
ATOM     11  C   UNL     1       1.341   3.950  18.411  0.00  0.00    +0.000 A 
ATOM     12  C   UNL     1       2.625   4.504  18.554  0.00  0.00    +0.000 A 
ENDBRANCH   1  12
BRANCH   4  13
ATOM     13  C   UNL     1       1.703   9.283  18.775  0.00  0.00    +0.000 A 
ATOM     14  N   UNL     1       1.821  10.437  18.119  0.00  0.00    +0.000 NA
ATOM     15  N   UNL     1       0.997  11.344  18.746  0.00  0.00    +0.000 NA
ATOM     16  C   UNL     1       0.458  10.712  19.772  0.00  0.00    +0.000 A 
ATOM     17  O   UNL     1       0.856   9.403  19.845  0.00  0.00    +0.000 OA
BRANCH  16  18
ATOM     18  C   UNL     1      -0.466  11.191  20.785  0.00  0.00    +0.000 A 
ATOM     19  C   UNL     1      -1.450  12.141  20.459  0.00  0.00    +0.000 A 
ATOM     20  C   UNL     1      -2.386  12.555  21.411  0.00  0.00    +0.000 A 
ATOM     21  C   UNL     1      -2.334  12.038  22.703  0.00  0.00    +0.000 A 
ATOM     22 BR   UNL     1      -3.620  12.568  23.981  0.00  0.00    +0.000 Br
ATOM     23  C   UNL     1      -1.346  11.118  23.054  0.00  0.00    +0.000 A 
ATOM     24  C   UNL     1      -0.420  10.699  22.100  0.00  0.00    +0.000 A 
ENDBRANCH  16  18
ENDBRANCH   4  13
TORSDOF 3
ENDMDL
