MODEL 1
REMARK VINA RESULT:      -7.4      0.000      0.000
REMARK  Name = 
REMARK  3 active torsions:
REMARK  status: ('A' for Active; 'I' for Inactive)
REMARK    1  A    between atoms: C_5  and  C_6
REMARK    2  A    between atoms: C_6  and  C_7
REMARK    3  A    between atoms: C_19  and  C_20
REMARK                            x       y       z     vdW  Elec       q    Type
REMARK                         _______ _______ _______ _____ _____    ______ ____
ROOT
ATOM      1  C   UNL     1      -0.633  11.382  19.546  0.00  0.00    +0.000 C 
ATOM      2  O   UNL     1      -0.663  11.672  20.952  0.00  0.00    +0.000 OA
ATOM      3  O   UNL     1       0.521  12.508  21.164  0.00  0.00    +0.000 OA
ATOM      4  C   UNL     1       0.644  13.227  19.936  0.00  0.00    +0.000 C 
ATOM      5  C   UNL     1       2.114  13.241  19.504  0.00  0.00    +0.000 C 
ATOM      6  C   UNL     1       2.973  14.233  20.284  0.00  0.00    +0.000 C 
ATOM      7  C   UNL     1       2.377  15.658  20.279  0.00  0.00    +0.000 C 
ATOM      8  C   UNL     1       0.977  15.544  20.930  0.00  0.00    +0.000 C 
ATOM      9  C   UNL     1       0.050  14.623  20.134  0.00  0.00    +0.000 C 
ATOM     10  O   UNL     1      -0.097  12.551  18.921  0.00  0.00    +0.000 OA
ENDROOT
BRANCH   1  15
ATOM     11  F   UNL     1      -5.873  10.630  17.494  0.00  0.00    +0.000 F 
ATOM     12  C   UNL     1      -4.644  10.793  17.998  0.00  0.00    +0.000 A 
ATOM     13  C   UNL     1      -4.391  11.846  18.868  0.00  0.00    +0.000 A 
ATOM     14  C   UNL     1      -3.106  12.029  19.383  0.00  0.00    +0.000 A 
ATOM     15  C   UNL     1      -2.054  11.165  19.021  0.00  0.00    +0.000 A 
ATOM     16  C   UNL     1      -2.349  10.093  18.152  0.00  0.00    +0.000 A 
ATOM     17  C   UNL     1      -3.634   9.909  17.639  0.00  0.00    +0.000 A 
ENDBRANCH   1  15
BRANCH   1  18
ATOM     18  C   UNL     1       0.296  10.191  19.277  0.00  0.00    +0.000 A 
ATOM     19  C   UNL     1       0.911  10.020  18.020  0.00  0.00    +0.000 A 
ATOM     20  C   UNL     1       1.853   9.009  17.815  0.00  0.00    +0.000 A 
ATOM     21  C   UNL     1       2.171   8.148  18.856  0.00  0.00    +0.000 A 
ATOM     22  F   UNL     1       3.094   7.196  18.667  0.00  0.00    +0.000 F 
ATOM     23  C   UNL     1       1.553   8.266  20.093  0.00  0.00    +0.000 A 
ATOM     24  C   UNL     1       0.616   9.279  20.304  0.00  0.00    +0.000 A 
ENDBRANCH   1  18
BRANCH   7  25
ATOM     25  C   UNL     1       2.393  16.369  18.920  0.00  0.00    +0.000 A 
ATOM     26  C   UNL     1       1.449  17.363  18.601  0.00  0.00    +0.000 A 
ATOM     27  C   UNL     1       1.452  18.008  17.361  0.00  0.00    +0.000 A 
ATOM     28  C   UNL     1       2.420  17.697  16.416  0.00  0.00    +0.000 A 
ATOM     29  C   UNL     1       3.395  16.752  16.720  0.00  0.00    +0.000 A 
ATOM     30  C   UNL     1       3.387  16.105  17.961  0.00  0.00    +0.000 A 
ENDBRANCH   7  25
TORSDOF 3
ENDMDL
MODEL 2
REMARK VINA RESULT:      -7.3      4.609      8.183
REMARK  Name = 
REMARK  3 active torsions:
REMARK  status: ('A' for Active; 'I' for Inactive)
REMARK    1  A    between atoms: C_5  and  C_6
REMARK    2  A    between atoms: C_6  and  C_7
REMARK    3  A    between atoms: C_19  and  C_20
REMARK                            x       y       z     vdW  Elec       q    Type
REMARK                         _______ _______ _______ _____ _____    ______ ____
ROOT
ATOM      1  C   UNL     1      -3.160  12.795  22.679  0.00  0.00    +0.000 C 
ATOM      2  O   UNL     1      -4.116  12.028  23.427  0.00  0.00    +0.000 OA
ATOM      3  O   UNL     1      -5.395  12.676  23.131  0.00  0.00    +0.000 OA
ATOM      4  C   UNL     1      -5.228  13.145  21.792  0.00  0.00    +0.000 C 
ATOM      5  C   UNL     1      -5.778  14.571  21.684  0.00  0.00    +0.000 C 
ATOM      6  C   UNL     1      -7.303  14.637  21.620  0.00  0.00    +0.000 C 
ATOM      7  C   UNL     1      -7.884  13.729  20.513  0.00  0.00    +0.000 C 
ATOM      8  C   UNL     1      -7.431  12.288  20.852  0.00  0.00    +0.000 C 
ATOM      9  C   UNL     1      -5.906  12.152  20.846  0.00  0.00    +0.000 C 
ATOM     10  O   UNL     1      -3.836  13.197  21.485  0.00  0.00    +0.000 OA
ENDROOT
BRANCH   1  15
ATOM     11  F   UNL     1       1.179   9.460  21.166  0.00  0.00    +0.000 F 
ATOM     12  C   UNL     1       0.173  10.264  21.531  0.00  0.00    +0.000 A 
ATOM     13  C   UNL     1      -0.335  10.187  22.822  0.00  0.00    +0.000 A 
ATOM     14  C   UNL     1      -1.396  11.012  23.201  0.00  0.00    +0.000 A 
ATOM     15  C   UNL     1      -1.970  11.917  22.286  0.00  0.00    +0.000 A 
ATOM     16  C   UNL     1      -1.416  11.985  20.989  0.00  0.00    +0.000 A 
ATOM     17  C   UNL     1      -0.355  11.162  20.611  0.00  0.00    +0.000 A 
ENDBRANCH   1  15
BRANCH   1  18
ATOM     18  C   UNL     1      -2.751  14.041  23.475  0.00  0.00    +0.000 A 
ATOM     19  C   UNL     1      -2.151  15.146  22.835  0.00  0.00    +0.000 A 
ATOM     20  C   UNL     1      -1.894  16.327  23.536  0.00  0.00    +0.000 A 
ATOM     21  C   UNL     1      -2.213  16.405  24.885  0.00  0.00    +0.000 A 
ATOM     22  F   UNL     1      -1.992  17.547  25.550  0.00  0.00    +0.000 F 
ATOM     23  C   UNL     1      -2.767  15.321  25.552  0.00  0.00    +0.000 A 
ATOM     24  C   UNL     1      -3.031  14.142  24.853  0.00  0.00    +0.000 A 
ENDBRANCH   1  18
BRANCH   7  25
ATOM     25  C   UNL     1      -7.581  14.172  19.076  0.00  0.00    +0.000 A 
ATOM     26  C   UNL     1      -7.356  15.525  18.759  0.00  0.00    +0.000 A 
ATOM     27  C   UNL     1      -7.089  15.938  17.451  0.00  0.00    +0.000 A 
ATOM     28  C   UNL     1      -7.011  15.003  16.428  0.00  0.00    +0.000 A 
ATOM     29  C   UNL     1      -7.183  13.653  16.718  0.00  0.00    +0.000 A 
ATOM     30  C   UNL     1      -7.454  13.243  18.029  0.00  0.00    +0.000 A 
ENDBRANCH   7  25
TORSDOF 3
ENDMDL
MODEL 3
REMARK VINA RESULT:      -7.3      0.561      1.043
REMARK  Name = 
REMARK  3 active torsions:
REMARK  status: ('A' for Active; 'I' for Inactive)
REMARK    1  A    between atoms: C_5  and  C_6
REMARK    2  A    between atoms: C_6  and  C_7
REMARK    3  A    between atoms: C_19  and  C_20
REMARK                            x       y       z     vdW  Elec       q    Type
REMARK                         _______ _______ _______ _____ _____    ______ ____
ROOT
ATOM      1  C   UNL     1      -1.034  11.741  19.608  0.00  0.00    +0.000 C 
ATOM      2  O   UNL     1      -1.086  12.083  21.001  0.00  0.00    +0.000 OA
ATOM      3  O   UNL     1       0.082  12.942  21.197  0.00  0.00    +0.000 OA
ATOM      4  C   UNL     1       0.212  13.617  19.946  0.00  0.00    +0.000 C 
ATOM      5  C   UNL     1       1.687  13.637  19.531  0.00  0.00    +0.000 C 
ATOM      6  C   UNL     1       2.522  14.669  20.285  0.00  0.00    +0.000 C 
ATOM      7  C   UNL     1       1.906  16.084  20.220  0.00  0.00    +0.000 C 
ATOM      8  C   UNL     1       0.500  15.974  20.857  0.00  0.00    +0.000 C 
ATOM      9  C   UNL     1      -0.404  15.011  20.084  0.00  0.00    +0.000 C 
ATOM     10  O   UNL     1      -0.506  12.894  18.947  0.00  0.00    +0.000 OA
ENDROOT
BRANCH   1  15
ATOM     11  F   UNL     1      -6.292  10.724  17.722  0.00  0.00    +0.000 F 
ATOM     12  C   UNL     1      -5.049  10.980  18.147  0.00  0.00    +0.000 A 
ATOM     13  C   UNL     1      -3.986  10.231  17.657  0.00  0.00    +0.000 A 
ATOM     14  C   UNL     1      -2.690  10.485  18.112  0.00  0.00    +0.000 A 
ATOM     15  C   UNL     1      -2.444  11.484  19.073  0.00  0.00    +0.000 A 
ATOM     16  C   UNL     1      -3.543  12.241  19.533  0.00  0.00    +0.000 A 
ATOM     17  C   UNL     1      -4.838  11.989  19.078  0.00  0.00    +0.000 A 
ENDBRANCH   1  15
BRANCH   1  18
ATOM     18  C   UNL     1      -0.084  10.555  19.395  0.00  0.00    +0.000 A 
ATOM     19  C   UNL     1       0.596  10.380  18.172  0.00  0.00    +0.000 A 
ATOM     20  C   UNL     1       1.553   9.374  18.022  0.00  0.00    +0.000 A 
ATOM     21  C   UNL     1       1.822   8.521  19.084  0.00  0.00    +0.000 A 
ATOM     22  F   UNL     1       2.760   7.574  18.949  0.00  0.00    +0.000 F 
ATOM     23  C   UNL     1       1.140   8.642  20.287  0.00  0.00    +0.000 A 
ATOM     24  C   UNL     1       0.187   9.651  20.442  0.00  0.00    +0.000 A 
ENDBRANCH   1  18
BRANCH   7  25
ATOM     25  C   UNL     1       1.930  16.745  18.836  0.00  0.00    +0.000 A 
ATOM     26  C   UNL     1       0.983  17.720  18.472  0.00  0.00    +0.000 A 
ATOM     27  C   UNL     1       0.992  18.319  17.209  0.00  0.00    +0.000 A 
ATOM     28  C   UNL     1       1.972  17.980  16.285  0.00  0.00    +0.000 A 
ATOM     29  C   UNL     1       2.950  17.054  16.632  0.00  0.00    +0.000 A 
ATOM     30  C   UNL     1       2.935  16.453  17.897  0.00  0.00    +0.000 A 
ENDBRANCH   7  25
TORSDOF 3
ENDMDL
MODEL 4
REMARK VINA RESULT:      -7.3      3.873      6.074
REMARK  Name = 
REMARK  3 active torsions:
REMARK  status: ('A' for Active; 'I' for Inactive)
REMARK    1  A    between atoms: C_5  and  C_6
REMARK    2  A    between atoms: C_6  and  C_7
REMARK    3  A    between atoms: C_19  and  C_20
REMARK                            x       y       z     vdW  Elec       q    Type
REMARK                         _______ _______ _______ _____ _____    ______ ____
ROOT
ATOM      1  C   UNL     1      -1.381  12.214  20.199  0.00  0.00    +0.000 C 
ATOM      2  O   UNL     1      -1.090  11.300  21.268  0.00  0.00    +0.000 OA
ATOM      3  O   UNL     1      -1.281  12.101  22.478  0.00  0.00    +0.000 OA
ATOM      4  C   UNL     1      -2.323  13.008  22.114  0.00  0.00    +0.000 C 
ATOM      5  C   UNL     1      -1.967  14.413  22.612  0.00  0.00    +0.000 C 
ATOM      6  C   UNL     1      -2.188  14.606  24.111  0.00  0.00    +0.000 C 
ATOM      7  C   UNL     1      -3.613  14.203  24.551  0.00  0.00    +0.000 C 
ATOM      8  C   UNL     1      -3.774  12.709  24.182  0.00  0.00    +0.000 C 
ATOM      9  C   UNL     1      -3.644  12.475  22.675  0.00  0.00    +0.000 C 
ATOM     10  O   UNL     1      -2.417  13.067  20.692  0.00  0.00    +0.000 OA
ENDROOT
BRANCH   1  15
ATOM     11  F   UNL     1      -3.324   9.469  15.624  0.00  0.00    +0.000 F 
ATOM     12  C   UNL     1      -2.876  10.098  16.718  0.00  0.00    +0.000 A 
ATOM     13  C   UNL     1      -3.692  11.016  17.367  0.00  0.00    +0.000 A 
ATOM     14  C   UNL     1      -3.222  11.686  18.498  0.00  0.00    +0.000 A 
ATOM     15  C   UNL     1      -1.921  11.454  18.986  0.00  0.00    +0.000 A 
ATOM     16  C   UNL     1      -1.125  10.499  18.316  0.00  0.00    +0.000 A 
ATOM     17  C   UNL     1      -1.596   9.828  17.186  0.00  0.00    +0.000 A 
ENDBRANCH   1  15
BRANCH   1  18
ATOM     18  C   UNL     1      -0.140  13.056  19.878  0.00  0.00    +0.000 A 
ATOM     19  C   UNL     1       1.156  12.578  20.163  0.00  0.00    +0.000 A 
ATOM     20  C   UNL     1       2.288  13.289  19.758  0.00  0.00    +0.000 A 
ATOM     21  C   UNL     1       2.134  14.493  19.084  0.00  0.00    +0.000 A 
ATOM     22  F   UNL     1       3.220  15.161  18.671  0.00  0.00    +0.000 F 
ATOM     23  C   UNL     1       0.873  15.010  18.824  0.00  0.00    +0.000 A 
ATOM     24  C   UNL     1      -0.261  14.299  19.223  0.00  0.00    +0.000 A 
ENDBRANCH   1  18
BRANCH   7  25
ATOM     25  C   UNL     1      -4.738  15.112  24.040  0.00  0.00    +0.000 A 
ATOM     26  C   UNL     1      -6.014  14.601  23.740  0.00  0.00    +0.000 A 
ATOM     27  C   UNL     1      -7.041  15.421  23.265  0.00  0.00    +0.000 A 
ATOM     28  C   UNL     1      -6.826  16.784  23.105  0.00  0.00    +0.000 A 
ATOM     29  C   UNL     1      -5.589  17.326  23.437  0.00  0.00    +0.000 A 
ATOM     30  C   UNL     1      -4.562  16.501  23.910  0.00  0.00    +0.000 A 
ENDBRANCH   7  25
TORSDOF 3
ENDMDL
MODEL 5
REMARK VINA RESULT:      -7.2      1.034      1.228
REMARK  Name = 
REMARK  3 active torsions:
REMARK  status: ('A' for Active; 'I' for Inactive)
REMARK    1  A    between atoms: C_5  and  C_6
REMARK    2  A    between atoms: C_6  and  C_7
REMARK    3  A    between atoms: C_19  and  C_20
REMARK                            x       y       z     vdW  Elec       q    Type
REMARK                         _______ _______ _______ _____ _____    ______ ____
ROOT
ATOM      1  C   UNL     1      -1.516  12.117  19.742  0.00  0.00    +0.000 C 
ATOM      2  O   UNL     1      -1.572  12.518  21.120  0.00  0.00    +0.000 OA
ATOM      3  O   UNL     1      -0.427  13.416  21.271  0.00  0.00    +0.000 OA
ATOM      4  C   UNL     1      -0.321  14.039  19.990  0.00  0.00    +0.000 C 
ATOM      5  C   UNL     1       1.152  14.080  19.568  0.00  0.00    +0.000 C 
ATOM      6  C   UNL     1       1.961  15.167  20.271  0.00  0.00    +0.000 C 
ATOM      7  C   UNL     1       1.307  16.561  20.147  0.00  0.00    +0.000 C 
ATOM      8  C   UNL     1      -0.093  16.441  20.795  0.00  0.00    +0.000 C 
ATOM      9  C   UNL     1      -0.974  15.420  20.070  0.00  0.00    +0.000 C 
ATOM     10  O   UNL     1      -1.023  13.253  19.028  0.00  0.00    +0.000 OA
ENDROOT
BRANCH   1  15
ATOM     11  F   UNL     1      -6.714  11.014  17.740  0.00  0.00    +0.000 F 
ATOM     12  C   UNL     1      -5.491  11.255  18.229  0.00  0.00    +0.000 A 
ATOM     13  C   UNL     1      -5.338  12.128  19.299  0.00  0.00    +0.000 A 
ATOM     14  C   UNL     1      -4.062  12.394  19.800  0.00  0.00    +0.000 A 
ATOM     15  C   UNL     1      -2.922  11.799  19.227  0.00  0.00    +0.000 A 
ATOM     16  C   UNL     1      -3.115  10.900  18.155  0.00  0.00    +0.000 A 
ATOM     17  C   UNL     1      -4.390  10.632  17.656  0.00  0.00    +0.000 A 
ENDBRANCH   1  15
BRANCH   1  18
ATOM     18  C   UNL     1      -0.536  10.948  19.577  0.00  0.00    +0.000 A 
ATOM     19  C   UNL     1       0.184  10.769  18.377  0.00  0.00    +0.000 A 
ATOM     20  C   UNL     1       1.166   9.782  18.272  0.00  0.00    +0.000 A 
ATOM     21  C   UNL     1       1.422   8.952  19.355  0.00  0.00    +0.000 A 
ATOM     22  F   UNL     1       2.383   8.023  19.263  0.00  0.00    +0.000 F 
ATOM     23  C   UNL     1       0.702   9.077  20.535  0.00  0.00    +0.000 A 
ATOM     24  C   UNL     1      -0.277  10.067  20.646  0.00  0.00    +0.000 A 
ENDBRANCH   1  18
BRANCH   7  25
ATOM     25  C   UNL     1       1.307  17.160  18.735  0.00  0.00    +0.000 A 
ATOM     26  C   UNL     1       0.253  17.976  18.284  0.00  0.00    +0.000 A 
ATOM     27  C   UNL     1       0.241  18.517  16.996  0.00  0.00    +0.000 A 
ATOM     28  C   UNL     1       1.302  18.281  16.132  0.00  0.00    +0.000 A 
ATOM     29  C   UNL     1       2.381  17.517  16.565  0.00  0.00    +0.000 A 
ATOM     30  C   UNL     1       2.387  16.973  17.854  0.00  0.00    +0.000 A 
ENDBRANCH   7  25
TORSDOF 3
ENDMDL
MODEL 6
REMARK VINA RESULT:      -7.2      4.464      7.984
REMARK  Name = 
REMARK  3 active torsions:
REMARK  status: ('A' for Active; 'I' for Inactive)
REMARK    1  A    between atoms: C_5  and  C_6
REMARK    2  A    between atoms: C_6  and  C_7
REMARK    3  A    between atoms: C_19  and  C_20
REMARK                            x       y       z     vdW  Elec       q    Type
REMARK                         _______ _______ _______ _____ _____    ______ ____
ROOT
ATOM      1  C   UNL     1      -2.810  12.658  22.660  0.00  0.00    +0.000 C 
ATOM      2  O   UNL     1      -3.771  11.973  23.478  0.00  0.00    +0.000 OA
ATOM      3  O   UNL     1      -5.020  12.698  23.237  0.00  0.00    +0.000 OA
ATOM      4  C   UNL     1      -4.898  13.128  21.880  0.00  0.00    +0.000 C 
ATOM      5  C   UNL     1      -5.358  14.585  21.767  0.00  0.00    +0.000 C 
ATOM      6  C   UNL     1      -6.876  14.751  21.785  0.00  0.00    +0.000 C 
ATOM      7  C   UNL     1      -7.577  13.862  20.734  0.00  0.00    +0.000 C 
ATOM      8  C   UNL     1      -7.201  12.401  21.083  0.00  0.00    +0.000 C 
ATOM      9  C   UNL     1      -5.691  12.164  20.996  0.00  0.00    +0.000 C 
ATOM     10  O   UNL     1      -3.524  13.080  21.495  0.00  0.00    +0.000 OA
ENDROOT
BRANCH   1  15
ATOM     11  F   UNL     1       1.374   9.158  21.088  0.00  0.00    +0.000 F 
ATOM     12  C   UNL     1       0.370   9.965  21.451  0.00  0.00    +0.000 A 
ATOM     13  C   UNL     1      -0.189  10.830  20.519  0.00  0.00    +0.000 A 
ATOM     14  C   UNL     1      -1.225  11.686  20.899  0.00  0.00    +0.000 A 
ATOM     15  C   UNL     1      -1.705  11.695  22.224  0.00  0.00    +0.000 A 
ATOM     16  C   UNL     1      -1.129  10.789  23.140  0.00  0.00    +0.000 A 
ATOM     17  C   UNL     1      -0.095   9.933  22.760  0.00  0.00    +0.000 A 
ENDBRANCH   1  15
BRANCH   1  18
ATOM     18  C   UNL     1      -2.276  13.891  23.402  0.00  0.00    +0.000 A 
ATOM     19  C   UNL     1      -2.768  14.239  24.677  0.00  0.00    +0.000 A 
ATOM     20  C   UNL     1      -2.194  15.285  25.404  0.00  0.00    +0.000 A 
ATOM     21  C   UNL     1      -1.142  16.005  24.855  0.00  0.00    +0.000 A 
ATOM     22  F   UNL     1      -0.574  16.990  25.564  0.00  0.00    +0.000 F 
ATOM     23  C   UNL     1      -0.663  15.711  23.586  0.00  0.00    +0.000 A 
ATOM     24  C   UNL     1      -1.229  14.662  22.858  0.00  0.00    +0.000 A 
ENDBRANCH   1  18
BRANCH   7  25
ATOM     25  C   UNL     1      -7.327  14.255  19.273  0.00  0.00    +0.000 A 
ATOM     26  C   UNL     1      -7.387  13.304  18.238  0.00  0.00    +0.000 A 
ATOM     27  C   UNL     1      -7.150  13.652  16.905  0.00  0.00    +0.000 A 
ATOM     28  C   UNL     1      -6.876  14.971  16.569  0.00  0.00    +0.000 A 
ATOM     29  C   UNL     1      -6.856  15.942  17.564  0.00  0.00    +0.000 A 
ATOM     30  C   UNL     1      -7.090  15.589  18.898  0.00  0.00    +0.000 A 
ENDBRANCH   7  25
TORSDOF 3
ENDMDL
MODEL 7
REMARK VINA RESULT:      -7.2      5.543      9.253
REMARK  Name = 
REMARK  3 active torsions:
REMARK  status: ('A' for Active; 'I' for Inactive)
REMARK    1  A    between atoms: C_5  and  C_6
REMARK    2  A    between atoms: C_6  and  C_7
REMARK    3  A    between atoms: C_19  and  C_20
REMARK                            x       y       z     vdW  Elec       q    Type
REMARK                         _______ _______ _______ _____ _____    ______ ____
ROOT
ATOM      1  C   UNL     1       3.147   6.400  18.977  0.00  0.00    +0.000 C 
ATOM      2  O   UNL     1       4.317   6.715  19.748  0.00  0.00    +0.000 OA
ATOM      3  O   UNL     1       5.333   5.795  19.235  0.00  0.00    +0.000 OA
ATOM      4  C   UNL     1       4.981   5.643  17.859  0.00  0.00    +0.000 C 
ATOM      5  C   UNL     1       5.080   4.163  17.472  0.00  0.00    +0.000 C 
ATOM      6  C   UNL     1       6.513   3.680  17.259  0.00  0.00    +0.000 C 
ATOM      7  C   UNL     1       7.292   4.570  16.265  0.00  0.00    +0.000 C 
ATOM      8  C   UNL     1       7.298   5.994  16.872  0.00  0.00    +0.000 C 
ATOM      9  C   UNL     1       5.883   6.556  17.027  0.00  0.00    +0.000 C 
ATOM     10  O   UNL     1       3.624   6.045  17.676  0.00  0.00    +0.000 OA
ENDROOT
BRANCH   1  15
ATOM     11  F   UNL     1      -0.259  10.915  18.472  0.00  0.00    +0.000 F 
ATOM     12  C   UNL     1       0.564   9.866  18.595  0.00  0.00    +0.000 A 
ATOM     13  C   UNL     1       1.201   9.357  17.470  0.00  0.00    +0.000 A 
ATOM     14  C   UNL     1       2.047   8.252  17.591  0.00  0.00    +0.000 A 
ATOM     15  C   UNL     1       2.255   7.636  18.841  0.00  0.00    +0.000 A 
ATOM     16  C   UNL     1       1.609   8.191  19.966  0.00  0.00    +0.000 A 
ATOM     17  C   UNL     1       0.766   9.296  19.845  0.00  0.00    +0.000 A 
ENDBRANCH   1  15
BRANCH   1  18
ATOM     18  C   UNL     1       2.420   5.199  19.595  0.00  0.00    +0.000 A 
ATOM     19  C   UNL     1       1.663   4.318  18.795  0.00  0.00    +0.000 A 
ATOM     20  C   UNL     1       1.106   3.157  19.337  0.00  0.00    +0.000 A 
ATOM     21  C   UNL     1       1.282   2.879  20.686  0.00  0.00    +0.000 A 
ATOM     22  F   UNL     1       0.772   1.751  21.199  0.00  0.00    +0.000 F 
ATOM     23  C   UNL     1       1.988   3.747  21.508  0.00  0.00    +0.000 A 
ATOM     24  C   UNL     1       2.551   4.905  20.968  0.00  0.00    +0.000 A 
ENDBRANCH   1  18
BRANCH   7  25
ATOM     25  C   UNL     1       6.813   4.498  14.809  0.00  0.00    +0.000 A 
ATOM     26  C   UNL     1       7.583   5.028  13.758  0.00  0.00    +0.000 A 
ATOM     27  C   UNL     1       7.149   4.975  12.430  0.00  0.00    +0.000 A 
ATOM     28  C   UNL     1       5.943   4.362  12.116  0.00  0.00    +0.000 A 
ATOM     29  C   UNL     1       5.182   3.788  13.128  0.00  0.00    +0.000 A 
ATOM     30  C   UNL     1       5.618   3.847  14.457  0.00  0.00    +0.000 A 
ENDBRANCH   7  25
TORSDOF 3
ENDMDL
MODEL 8
REMARK VINA RESULT:      -7.2      0.504      1.604
REMARK  Name = 
REMARK  3 active torsions:
REMARK  status: ('A' for Active; 'I' for Inactive)
REMARK    1  A    between atoms: C_5  and  C_6
REMARK    2  A    between atoms: C_6  and  C_7
REMARK    3  A    between atoms: C_19  and  C_20
REMARK                            x       y       z     vdW  Elec       q    Type
REMARK                         _______ _______ _______ _____ _____    ______ ____
ROOT
ATOM      1  C   UNL     1      -0.777  11.746  19.588  0.00  0.00    +0.000 C 
ATOM      2  O   UNL     1      -0.864  12.092  20.979  0.00  0.00    +0.000 OA
ATOM      3  O   UNL     1       0.256  13.012  21.183  0.00  0.00    +0.000 OA
ATOM      4  C   UNL     1       0.366  13.686  19.928  0.00  0.00    +0.000 C 
ATOM      5  C   UNL     1       1.844  13.779  19.531  0.00  0.00    +0.000 C 
ATOM      6  C   UNL     1       2.615  14.857  20.289  0.00  0.00    +0.000 C 
ATOM      7  C   UNL     1       1.928  16.238  20.207  0.00  0.00    +0.000 C 
ATOM      8  C   UNL     1       0.522  16.060  20.828  0.00  0.00    +0.000 C 
ATOM      9  C   UNL     1      -0.322  15.047  20.050  0.00  0.00    +0.000 C 
ATOM     10  O   UNL     1      -0.301  12.921  18.926  0.00  0.00    +0.000 OA
ENDROOT
BRANCH   1  15
ATOM     11  F   UNL     1      -5.956  10.456  17.650  0.00  0.00    +0.000 F 
ATOM     12  C   UNL     1      -4.731  10.775  18.087  0.00  0.00    +0.000 A 
ATOM     13  C   UNL     1      -3.638  10.018  17.683  0.00  0.00    +0.000 A 
ATOM     14  C   UNL     1      -2.361  10.338  18.150  0.00  0.00    +0.000 A 
ATOM     15  C   UNL     1      -2.166  11.414  19.038  0.00  0.00    +0.000 A 
ATOM     16  C   UNL     1      -3.294  12.176  19.410  0.00  0.00    +0.000 A 
ATOM     17  C   UNL     1      -4.570  11.857  18.942  0.00  0.00    +0.000 A 
ENDBRANCH   1  15
BRANCH   1  18
ATOM     18  C   UNL     1       0.235  10.609  19.394  0.00  0.00    +0.000 A 
ATOM     19  C   UNL     1       0.446   9.647  20.403  0.00  0.00    +0.000 A 
ATOM     20  C   UNL     1       1.273   8.543  20.177  0.00  0.00    +0.000 A 
ATOM     21  C   UNL     1       1.911   8.404  18.952  0.00  0.00    +0.000 A 
ATOM     22  F   UNL     1       2.681   7.331  18.727  0.00  0.00    +0.000 F 
ATOM     23  C   UNL     1       1.754   9.356  17.954  0.00  0.00    +0.000 A 
ATOM     24  C   UNL     1       0.924  10.457  18.174  0.00  0.00    +0.000 A 
ENDBRANCH   1  18
BRANCH   7  25
ATOM     25  C   UNL     1       1.935  16.892  18.819  0.00  0.00    +0.000 A 
ATOM     26  C   UNL     1       2.879  16.525  17.842  0.00  0.00    +0.000 A 
ATOM     27  C   UNL     1       2.898  17.122  16.578  0.00  0.00    +0.000 A 
ATOM     28  C   UNL     1       1.952  18.084  16.248  0.00  0.00    +0.000 A 
ATOM     29  C   UNL     1       0.978  18.434  17.178  0.00  0.00    +0.000 A 
ATOM     30  C   UNL     1       0.964  17.836  18.443  0.00  0.00    +0.000 A 
ENDBRANCH   7  25
TORSDOF 3
ENDMDL
MODEL 9
REMARK VINA RESULT:      -7.2      3.871      6.062
REMARK  Name = 
REMARK  3 active torsions:
REMARK  status: ('A' for Active; 'I' for Inactive)
REMARK    1  A    between atoms: C_5  and  C_6
REMARK    2  A    between atoms: C_6  and  C_7
REMARK    3  A    between atoms: C_19  and  C_20
REMARK                            x       y       z     vdW  Elec       q    Type
REMARK                         _______ _______ _______ _____ _____    ______ ____
ROOT
ATOM      1  C   UNL     1      -1.308  12.185  20.216  0.00  0.00    +0.000 C 
ATOM      2  O   UNL     1      -1.053  11.256  21.281  0.00  0.00    +0.000 OA
ATOM      3  O   UNL     1      -1.246  12.050  22.495  0.00  0.00    +0.000 OA
ATOM      4  C   UNL     1      -2.262  12.983  22.123  0.00  0.00    +0.000 C 
ATOM      5  C   UNL     1      -1.883  14.376  22.639  0.00  0.00    +0.000 C 
ATOM      6  C   UNL     1      -2.124  14.561  24.136  0.00  0.00    +0.000 C 
ATOM      7  C   UNL     1      -3.564  14.185  24.551  0.00  0.00    +0.000 C 
ATOM      8  C   UNL     1      -3.751  12.698  24.165  0.00  0.00    +0.000 C 
ATOM      9  C   UNL     1      -3.602  12.475  22.659  0.00  0.00    +0.000 C 
ATOM     10  O   UNL     1      -2.333  13.056  20.700  0.00  0.00    +0.000 OA
ENDROOT
BRANCH   1  15
ATOM     11  F   UNL     1      -3.356   9.370  15.731  0.00  0.00    +0.000 F 
ATOM     12  C   UNL     1      -2.864  10.052  16.773  0.00  0.00    +0.000 A 
ATOM     13  C   UNL     1      -1.558   9.823  17.190  0.00  0.00    +0.000 A 
ATOM     14  C   UNL     1      -1.048  10.521  18.287  0.00  0.00    +0.000 A 
ATOM     15  C   UNL     1      -1.844  11.447  18.988  0.00  0.00    +0.000 A 
ATOM     16  C   UNL     1      -3.159  11.671  18.525  0.00  0.00    +0.000 A 
ATOM     17  C   UNL     1      -3.668  10.976  17.427  0.00  0.00    +0.000 A 
ENDBRANCH   1  15
BRANCH   1  18
ATOM     18  C   UNL     1      -0.043  13.003  19.922  0.00  0.00    +0.000 A 
ATOM     19  C   UNL     1      -0.115  14.219  19.211  0.00  0.00    +0.000 A 
ATOM     20  C   UNL     1       1.016  15.023  19.053  0.00  0.00    +0.000 A 
ATOM     21  C   UNL     1       2.230  14.610  19.583  0.00  0.00    +0.000 A 
ATOM     22  F   UNL     1       3.309  15.395  19.455  0.00  0.00    +0.000 F 
ATOM     23  C   UNL     1       2.341  13.399  20.253  0.00  0.00    +0.000 A 
ATOM     24  C   UNL     1       1.212  12.595  20.418  0.00  0.00    +0.000 A 
ENDBRANCH   1  18
BRANCH   7  25
ATOM     25  C   UNL     1      -4.660  15.123  24.030  0.00  0.00    +0.000 A 
ATOM     26  C   UNL     1      -5.954  14.650  23.744  0.00  0.00    +0.000 A 
ATOM     27  C   UNL     1      -6.956  15.496  23.260  0.00  0.00    +0.000 A 
ATOM     28  C   UNL     1      -6.697  16.848  23.078  0.00  0.00    +0.000 A 
ATOM     29  C   UNL     1      -5.441  17.354  23.396  0.00  0.00    +0.000 A 
ATOM     30  C   UNL     1      -4.439  16.503  23.877  0.00  0.00    +0.000 A 
ENDBRANCH   7  25
TORSDOF 3
ENDMDL
