MODEL 1
REMARK VINA RESULT:      -6.4      0.000      0.000
REMARK  Name = 
REMARK  4 active torsions:
REMARK  status: ('A' for Active; 'I' for Inactive)
REMARK    1  A    between atoms: C_1  and  C_2
REMARK    2  A    between atoms: C_4  and  C_5
REMARK    3  A    between atoms: C_8  and  O_9
REMARK    4  A    between atoms: C_11  and  O_12
REMARK                            x       y       z     vdW  Elec       q    Type
REMARK                         _______ _______ _______ _____ _____    ______ ____
ROOT
ATOM      1  C   UNL     1       3.373   4.159  18.953  0.00  0.00    +0.000 A 
ATOM      2  C   UNL     1       2.100   4.659  19.282  0.00  0.00    +0.000 A 
ATOM      3  C   UNL     1       1.371   4.133  20.354  0.00  0.00    +0.000 A 
ATOM      4  C   UNL     1       1.919   3.104  21.110  0.00  0.00    +0.000 A 
ATOM      5  C   UNL     1       3.181   2.602  20.823  0.00  0.00    +0.000 A 
ATOM      6  C   UNL     1       3.907   3.131  19.751  0.00  0.00    +0.000 A 
ENDROOT
BRANCH   1  10
ATOM      7  C   UNL     1       5.842   4.165  14.658  0.00  0.00    +0.000 C 
ATOM      8  C   UNL     1       5.196   4.682  15.894  0.00  0.00    +0.000 A 
ATOM      9  N   UNL     1       4.643   3.931  16.824  0.00  0.00    +0.000 NA
ATOM     10  C   UNL     1       4.081   4.735  17.810  0.00  0.00    +0.000 A 
ATOM     11  C   UNL     1       4.291   6.089  17.632  0.00  0.00    +0.000 A 
ATOM     12  S   UNL     1       5.141   6.375  16.174  0.00  0.00    +0.000 S 
ENDBRANCH   1  10
BRANCH   4  13
ATOM     13  O   UNL     1       1.247   2.552  22.160  0.00  0.00    +0.000 OA
ATOM     14  H   UNL     1       1.121   1.604  21.985  0.00  0.00    +0.000 HD
ENDBRANCH   4  13
BRANCH   6  15
ATOM     15  O   UNL     1       5.162   2.638  19.507  0.00  0.00    +0.000 OA
ATOM     16  H   UNL     1       5.185   1.701  19.760  0.00  0.00    +0.000 HD
ENDBRANCH   6  15
TORSDOF 3
ENDMDL
MODEL 2
REMARK VINA RESULT:      -6.4      2.332      2.676
REMARK  Name = 
REMARK  4 active torsions:
REMARK  status: ('A' for Active; 'I' for Inactive)
REMARK    1  A    between atoms: C_1  and  C_2
REMARK    2  A    between atoms: C_4  and  C_5
REMARK    3  A    between atoms: C_8  and  O_9
REMARK    4  A    between atoms: C_11  and  O_12
REMARK                            x       y       z     vdW  Elec       q    Type
REMARK                         _______ _______ _______ _____ _____    ______ ____
ROOT
ATOM      1  C   UNL     1       3.841   4.035  18.305  0.00  0.00    +0.000 A 
ATOM      2  C   UNL     1       2.647   4.581  17.799  0.00  0.00    +0.000 A 
ATOM      3  C   UNL     1       1.446   3.864  17.852  0.00  0.00    +0.000 A 
ATOM      4  C   UNL     1       1.433   2.597  18.422  0.00  0.00    +0.000 A 
ATOM      5  C   UNL     1       2.591   2.040  18.947  0.00  0.00    +0.000 A 
ATOM      6  C   UNL     1       3.790   2.759  18.892  0.00  0.00    +0.000 A 
ENDROOT
BRANCH   1  10
ATOM      7  C   UNL     1       8.266   5.766  19.707  0.00  0.00    +0.000 C 
ATOM      8  C   UNL     1       7.040   5.579  18.886  0.00  0.00    +0.000 A 
ATOM      9  N   UNL     1       6.019   4.819  19.223  0.00  0.00    +0.000 NA
ATOM     10  C   UNL     1       5.070   4.823  18.205  0.00  0.00    +0.000 A 
ATOM     11  C   UNL     1       5.373   5.654  17.144  0.00  0.00    +0.000 A 
ATOM     12  S   UNL     1       6.900   6.392  17.380  0.00  0.00    +0.000 S 
ENDBRANCH   1  10
BRANCH   4  13
ATOM     13  O   UNL     1       0.291   1.856  18.492  0.00  0.00    +0.000 OA
ATOM     14  H   UNL     1       0.238   1.450  19.374  0.00  0.00    +0.000 HD
ENDBRANCH   4  13
BRANCH   6  15
ATOM     15  O   UNL     1       4.912   2.199  19.444  0.00  0.00    +0.000 OA
ATOM     16  H   UNL     1       4.903   1.244  19.270  0.00  0.00    +0.000 HD
ENDBRANCH   6  15
TORSDOF 3
ENDMDL
MODEL 3
REMARK VINA RESULT:      -6.4      2.799      5.567
REMARK  Name = 
REMARK  4 active torsions:
REMARK  status: ('A' for Active; 'I' for Inactive)
REMARK    1  A    between atoms: C_1  and  C_2
REMARK    2  A    between atoms: C_4  and  C_5
REMARK    3  A    between atoms: C_8  and  O_9
REMARK    4  A    between atoms: C_11  and  O_12
REMARK                            x       y       z     vdW  Elec       q    Type
REMARK                         _______ _______ _______ _____ _____    ______ ____
ROOT
ATOM      1  C   UNL     1       4.906   4.032  17.316  0.00  0.00    +0.000 A 
ATOM      2  C   UNL     1       4.658   4.092  15.932  0.00  0.00    +0.000 A 
ATOM      3  C   UNL     1       5.623   4.584  15.046  0.00  0.00    +0.000 A 
ATOM      4  C   UNL     1       6.848   5.013  15.542  0.00  0.00    +0.000 A 
ATOM      5  C   UNL     1       7.129   4.948  16.900  0.00  0.00    +0.000 A 
ATOM      6  C   UNL     1       6.162   4.455  17.782  0.00  0.00    +0.000 A 
ENDROOT
BRANCH   1  10
ATOM      7  C   UNL     1       2.091   3.808  21.387  0.00  0.00    +0.000 C 
ATOM      8  C   UNL     1       2.632   3.458  20.046  0.00  0.00    +0.000 A 
ATOM      9  N   UNL     1       3.649   4.060  19.465  0.00  0.00    +0.000 NA
ATOM     10  C   UNL     1       3.853   3.526  18.195  0.00  0.00    +0.000 A 
ATOM     11  C   UNL     1       3.017   2.473  17.878  0.00  0.00    +0.000 A 
ATOM     12  S   UNL     1       1.908   2.184  19.149  0.00  0.00    +0.000 S 
ENDBRANCH   1  10
BRANCH   4  13
ATOM     13  O   UNL     1       7.819   5.506  14.721  0.00  0.00    +0.000 OA
ATOM     14  H   UNL     1       8.633   4.992  14.859  0.00  0.00    +0.000 HD
ENDBRANCH   4  13
BRANCH   6  15
ATOM     15  O   UNL     1       6.476   4.375  19.114  0.00  0.00    +0.000 OA
ATOM     16  H   UNL     1       6.553   5.274  19.472  0.00  0.00    +0.000 HD
ENDBRANCH   6  15
TORSDOF 3
ENDMDL
MODEL 4
REMARK VINA RESULT:      -6.2      2.847      5.209
REMARK  Name = 
REMARK  4 active torsions:
REMARK  status: ('A' for Active; 'I' for Inactive)
REMARK    1  A    between atoms: C_1  and  C_2
REMARK    2  A    between atoms: C_4  and  C_5
REMARK    3  A    between atoms: C_8  and  O_9
REMARK    4  A    between atoms: C_11  and  O_12
REMARK                            x       y       z     vdW  Elec       q    Type
REMARK                         _______ _______ _______ _____ _____    ______ ____
ROOT
ATOM      1  C   UNL     1       4.117   4.961  18.195  0.00  0.00    +0.000 A 
ATOM      2  C   UNL     1       3.799   6.137  17.491  0.00  0.00    +0.000 A 
ATOM      3  C   UNL     1       4.804   6.978  16.998  0.00  0.00    +0.000 A 
ATOM      4  C   UNL     1       6.136   6.640  17.202  0.00  0.00    +0.000 A 
ATOM      5  C   UNL     1       6.481   5.476  17.876  0.00  0.00    +0.000 A 
ATOM      6  C   UNL     1       5.474   4.639  18.367  0.00  0.00    +0.000 A 
ENDROOT
BRANCH   1  10
ATOM      7  C   UNL     1       1.369   2.637  21.599  0.00  0.00    +0.000 C 
ATOM      8  C   UNL     1       1.838   3.097  20.265  0.00  0.00    +0.000 A 
ATOM      9  N   UNL     1       2.912   3.830  20.057  0.00  0.00    +0.000 NA
ATOM     10  C   UNL     1       3.025   4.131  18.703  0.00  0.00    +0.000 A 
ATOM     11  C   UNL     1       2.060   3.547  17.906  0.00  0.00    +0.000 A 
ATOM     12  S   UNL     1       0.947   2.666  18.861  0.00  0.00    +0.000 S 
ENDBRANCH   1  10
BRANCH   4  13
ATOM     13  O   UNL     1       7.151   7.429  16.748  0.00  0.00    +0.000 OA
ATOM     14  H   UNL     1       7.836   6.859  16.357  0.00  0.00    +0.000 HD
ENDBRANCH   4  13
BRANCH   6  15
ATOM     15  O   UNL     1       5.841   3.482  19.003  0.00  0.00    +0.000 OA
ATOM     16  H   UNL     1       5.588   3.545  19.938  0.00  0.00    +0.000 HD
ENDBRANCH   6  15
TORSDOF 3
ENDMDL
MODEL 5
REMARK VINA RESULT:      -6.2      2.599      5.277
REMARK  Name = 
REMARK  4 active torsions:
REMARK  status: ('A' for Active; 'I' for Inactive)
REMARK    1  A    between atoms: C_1  and  C_2
REMARK    2  A    between atoms: C_4  and  C_5
REMARK    3  A    between atoms: C_8  and  O_9
REMARK    4  A    between atoms: C_11  and  O_12
REMARK                            x       y       z     vdW  Elec       q    Type
REMARK                         _______ _______ _______ _____ _____    ______ ____
ROOT
ATOM      1  C   UNL     1       4.538   5.225  17.979  0.00  0.00    +0.000 A 
ATOM      2  C   UNL     1       4.414   6.148  16.925  0.00  0.00    +0.000 A 
ATOM      3  C   UNL     1       5.414   6.276  15.955  0.00  0.00    +0.000 A 
ATOM      4  C   UNL     1       6.543   5.471  16.030  0.00  0.00    +0.000 A 
ATOM      5  C   UNL     1       6.685   4.536  17.047  0.00  0.00    +0.000 A 
ATOM      6  C   UNL     1       5.684   4.411  18.015  0.00  0.00    +0.000 A 
ENDROOT
BRANCH   1  10
ATOM      7  C   UNL     1       1.349   3.040  21.078  0.00  0.00    +0.000 C 
ATOM      8  C   UNL     1       2.050   4.121  20.335  0.00  0.00    +0.000 A 
ATOM      9  N   UNL     1       2.984   3.925  19.426  0.00  0.00    +0.000 NA
ATOM     10  C   UNL     1       3.469   5.149  18.975  0.00  0.00    +0.000 A 
ATOM     11  C   UNL     1       2.830   6.249  19.511  0.00  0.00    +0.000 A 
ATOM     12  S   UNL     1       1.650   5.761  20.651  0.00  0.00    +0.000 S 
ENDBRANCH   1  10
BRANCH   4  13
ATOM     13  O   UNL     1       7.549   5.561  15.114  0.00  0.00    +0.000 OA
ATOM     14  H   UNL     1       8.171   4.828  15.262  0.00  0.00    +0.000 HD
ENDBRANCH   4  13
BRANCH   6  15
ATOM     15  O   UNL     1       5.835   3.462  18.991  0.00  0.00    +0.000 OA
ATOM     16  H   UNL     1       6.243   2.672  18.599  0.00  0.00    +0.000 HD
ENDBRANCH   6  15
TORSDOF 3
ENDMDL
MODEL 6
REMARK VINA RESULT:      -6.2      1.366      1.649
REMARK  Name = 
REMARK  4 active torsions:
REMARK  status: ('A' for Active; 'I' for Inactive)
REMARK    1  A    between atoms: C_1  and  C_2
REMARK    2  A    between atoms: C_4  and  C_5
REMARK    3  A    between atoms: C_8  and  O_9
REMARK    4  A    between atoms: C_11  and  O_12
REMARK                            x       y       z     vdW  Elec       q    Type
REMARK                         _______ _______ _______ _____ _____    ______ ____
ROOT
ATOM      1  C   UNL     1       3.535   4.329  19.498  0.00  0.00    +0.000 A 
ATOM      2  C   UNL     1       2.331   4.953  19.872  0.00  0.00    +0.000 A 
ATOM      3  C   UNL     1       1.452   4.346  20.776  0.00  0.00    +0.000 A 
ATOM      4  C   UNL     1       1.782   3.110  21.320  0.00  0.00    +0.000 A 
ATOM      5  C   UNL     1       2.973   2.479  20.986  0.00  0.00    +0.000 A 
ATOM      6  C   UNL     1       3.847   3.089  20.081  0.00  0.00    +0.000 A 
ENDROOT
BRANCH   1  10
ATOM      7  C   UNL     1       7.592   6.672  17.886  0.00  0.00    +0.000 C 
ATOM      8  C   UNL     1       6.235   6.062  17.866  0.00  0.00    +0.000 A 
ATOM      9  N   UNL     1       5.633   5.537  18.913  0.00  0.00    +0.000 NA
ATOM     10  C   UNL     1       4.404   5.003  18.534  0.00  0.00    +0.000 A 
ATOM     11  C   UNL     1       4.078   5.207  17.207  0.00  0.00    +0.000 A 
ATOM     12  S   UNL     1       5.351   6.014  16.395  0.00  0.00    +0.000 S 
ENDBRANCH   1  10
BRANCH   4  13
ATOM     13  O   UNL     1       0.958   2.474  22.200  0.00  0.00    +0.000 OA
ATOM     14  H   UNL     1       0.046   2.774  22.045  0.00  0.00    +0.000 HD
ENDBRANCH   4  13
BRANCH   6  15
ATOM     15  O   UNL     1       5.029   2.459  19.791  0.00  0.00    +0.000 OA
ATOM     16  H   UNL     1       4.938   2.001  18.939  0.00  0.00    +0.000 HD
ENDBRANCH   6  15
TORSDOF 3
ENDMDL
MODEL 7
REMARK VINA RESULT:      -6.2      1.417      1.467
REMARK  Name = 
REMARK  4 active torsions:
REMARK  status: ('A' for Active; 'I' for Inactive)
REMARK    1  A    between atoms: C_1  and  C_2
REMARK    2  A    between atoms: C_4  and  C_5
REMARK    3  A    between atoms: C_8  and  O_9
REMARK    4  A    between atoms: C_11  and  O_12
REMARK                            x       y       z     vdW  Elec       q    Type
REMARK                         _______ _______ _______ _____ _____    ______ ____
ROOT
ATOM      1  C   UNL     1       3.920   3.724  18.699  0.00  0.00    +0.000 A 
ATOM      2  C   UNL     1       3.378   4.739  19.508  0.00  0.00    +0.000 A 
ATOM      3  C   UNL     1       2.310   4.479  20.375  0.00  0.00    +0.000 A 
ATOM      4  C   UNL     1       1.784   3.195  20.442  0.00  0.00    +0.000 A 
ATOM      5  C   UNL     1       2.311   2.168  19.670  0.00  0.00    +0.000 A 
ATOM      6  C   UNL     1       3.377   2.431  18.805  0.00  0.00    +0.000 A 
ENDROOT
BRANCH   1  10
ATOM      7  C   UNL     1       6.325   4.078  14.382  0.00  0.00    +0.000 C 
ATOM      8  C   UNL     1       6.063   4.179  15.843  0.00  0.00    +0.000 A 
ATOM      9  N   UNL     1       4.969   3.755  16.441  0.00  0.00    +0.000 NA
ATOM     10  C   UNL     1       5.023   4.058  17.798  0.00  0.00    +0.000 A 
ATOM     11  C   UNL     1       6.204   4.647  18.205  0.00  0.00    +0.000 A 
ATOM     12  S   UNL     1       7.242   4.896  16.866  0.00  0.00    +0.000 S 
ENDBRANCH   1  10
BRANCH   4  13
ATOM     13  O   UNL     1       0.740   2.892  21.265  0.00  0.00    +0.000 OA
ATOM     14  H   UNL     1       0.677   1.925  21.343  0.00  0.00    +0.000 HD
ENDBRANCH   4  13
BRANCH   6  15
ATOM     15  O   UNL     1       3.897   1.394  18.077  0.00  0.00    +0.000 OA
ATOM     16  H   UNL     1       3.688   1.535  17.138  0.00  0.00    +0.000 HD
ENDBRANCH   6  15
TORSDOF 3
ENDMDL
MODEL 8
REMARK VINA RESULT:      -6.2      1.804      2.153
REMARK  Name = 
REMARK  4 active torsions:
REMARK  status: ('A' for Active; 'I' for Inactive)
REMARK    1  A    between atoms: C_1  and  C_2
REMARK    2  A    between atoms: C_4  and  C_5
REMARK    3  A    between atoms: C_8  and  O_9
REMARK    4  A    between atoms: C_11  and  O_12
REMARK                            x       y       z     vdW  Elec       q    Type
REMARK                         _______ _______ _______ _____ _____    ______ ____
ROOT
ATOM      1  C   UNL     1       3.896   4.181  18.216  0.00  0.00    +0.000 A 
ATOM      2  C   UNL     1       2.634   4.664  17.825  0.00  0.00    +0.000 A 
ATOM      3  C   UNL     1       1.459   4.167  18.401  0.00  0.00    +0.000 A 
ATOM      4  C   UNL     1       1.544   3.187  19.382  0.00  0.00    +0.000 A 
ATOM      5  C   UNL     1       2.776   2.704  19.803  0.00  0.00    +0.000 A 
ATOM      6  C   UNL     1       3.947   3.203  19.224  0.00  0.00    +0.000 A 
ENDROOT
BRANCH   1  10
ATOM      7  C   UNL     1       7.614   7.363  17.447  0.00  0.00    +0.000 C 
ATOM      8  C   UNL     1       6.725   6.187  17.252  0.00  0.00    +0.000 A 
ATOM      9  N   UNL     1       5.651   5.929  17.970  0.00  0.00    +0.000 NA
ATOM     10  C   UNL     1       5.087   4.723  17.564  0.00  0.00    +0.000 A 
ATOM     11  C   UNL     1       5.719   4.132  16.488  0.00  0.00    +0.000 A 
ATOM     12  S   UNL     1       7.083   5.052  16.014  0.00  0.00    +0.000 S 
ENDBRANCH   1  10
BRANCH   4  13
ATOM     13  O   UNL     1       0.430   2.666  19.971  0.00  0.00    +0.000 OA
ATOM     14  H   UNL     1      -0.067   2.163  19.304  0.00  0.00    +0.000 HD
ENDBRANCH   4  13
BRANCH   6  15
ATOM     15  O   UNL     1       5.151   2.731  19.678  0.00  0.00    +0.000 OA
ATOM     16  H   UNL     1       5.517   2.120  19.017  0.00  0.00    +0.000 HD
ENDBRANCH   6  15
TORSDOF 3
ENDMDL
MODEL 9
REMARK VINA RESULT:      -6.2      2.742      5.339
REMARK  Name = 
REMARK  4 active torsions:
REMARK  status: ('A' for Active; 'I' for Inactive)
REMARK    1  A    between atoms: C_1  and  C_2
REMARK    2  A    between atoms: C_4  and  C_5
REMARK    3  A    between atoms: C_8  and  O_9
REMARK    4  A    between atoms: C_11  and  O_12
REMARK                            x       y       z     vdW  Elec       q    Type
REMARK                         _______ _______ _______ _____ _____    ______ ____
ROOT
ATOM      1  C   UNL     1       4.830   4.660  18.133  0.00  0.00    +0.000 A 
ATOM      2  C   UNL     1       4.506   4.407  16.788  0.00  0.00    +0.000 A 
ATOM      3  C   UNL     1       5.484   4.453  15.788  0.00  0.00    +0.000 A 
ATOM      4  C   UNL     1       6.798   4.745  16.133  0.00  0.00    +0.000 A 
ATOM      5  C   UNL     1       7.152   4.979  17.455  0.00  0.00    +0.000 A 
ATOM      6  C   UNL     1       6.172   4.933  18.451  0.00  0.00    +0.000 A 
ENDROOT
BRANCH   1  10
ATOM      7  C   UNL     1       1.934   2.657  21.618  0.00  0.00    +0.000 C 
ATOM      8  C   UNL     1       2.483   3.668  20.675  0.00  0.00    +0.000 A 
ATOM      9  N   UNL     1       3.455   3.444  19.815  0.00  0.00    +0.000 NA
ATOM     10  C   UNL     1       3.763   4.617  19.132  0.00  0.00    +0.000 A 
ATOM     11  C   UNL     1       2.954   5.691  19.449  0.00  0.00    +0.000 A 
ATOM     12  S   UNL     1       1.836   5.259  20.671  0.00  0.00    +0.000 S 
ENDBRANCH   1  10
BRANCH   4  13
ATOM     13  O   UNL     1       7.786   4.808  15.196  0.00  0.00    +0.000 OA
ATOM     14  H   UNL     1       8.187   5.693  15.226  0.00  0.00    +0.000 HD
ENDBRANCH   4  13
BRANCH   6  15
ATOM     15  O   UNL     1       6.553   5.139  19.751  0.00  0.00    +0.000 OA
ATOM     16  H   UNL     1       6.068   4.520  20.321  0.00  0.00    +0.000 HD
ENDBRANCH   6  15
TORSDOF 3
ENDMDL
