MODEL 1
REMARK VINA RESULT:      -7.9      0.000      0.000
REMARK  Name = 
REMARK  6 active torsions:
REMARK  status: ('A' for Active; 'I' for Inactive)
REMARK    1  A    between atoms: C_2  and  C_3
REMARK    2  A    between atoms: C_2  and  C_12
REMARK    3  A    between atoms: C_4  and  C_5
REMARK    4  A    between atoms: C_10  and  O_11
REMARK    5  A    between atoms: C_16  and  O_17
REMARK    6  A    between atoms: C_18  and  O_19
REMARK                            x       y       z     vdW  Elec       q    Type
REMARK                         _______ _______ _______ _____ _____    ______ ____
ROOT
ATOM      1  O   UNL     1       3.917   6.884  17.883  0.00  0.00    +0.000 OA
ATOM      2  C   UNL     1       4.200   5.790  17.410  0.00  0.00    +0.000 C 
ENDROOT
BRANCH   2   3
ATOM      3  C   UNL     1       3.755   4.538  18.085  0.00  0.00    +0.000 A 
ATOM      4  C   UNL     1       2.406   4.173  17.959  0.00  0.00    +0.000 A 
ATOM      5  C   UNL     1       1.934   2.985  18.529  0.00  0.00    +0.000 A 
ATOM      6  C   UNL     1       2.798   2.153  19.242  0.00  0.00    +0.000 A 
ATOM      7  C   UNL     1       4.126   2.531  19.394  0.00  0.00    +0.000 A 
ATOM      8  C   UNL     1       4.607   3.716  18.830  0.00  0.00    +0.000 A 
BRANCH   7   9
ATOM      9  O   UNL     1       5.017   1.766  20.098  0.00  0.00    +0.000 OA
ATOM     10  H   UNL     1       5.750   1.526  19.505  0.00  0.00    +0.000 HD
ENDBRANCH   7   9
BRANCH   8  11
ATOM     11  O   UNL     1       5.920   4.034  19.057  0.00  0.00    +0.000 OA
ATOM     12  H   UNL     1       6.282   3.272  19.556  0.00  0.00    +0.000 HD
ENDBRANCH   8  11
ENDBRANCH   2   3
BRANCH   2  13
ATOM     13  C   UNL     1       4.910   5.642  16.115  0.00  0.00    +0.000 C 
ATOM     14  C   UNL     1       5.251   4.448  15.609  0.00  0.00    +0.000 C 
BRANCH  14  15
ATOM     15  C   UNL     1       5.882   4.307  14.279  0.00  0.00    +0.000 A 
ATOM     16  C   UNL     1       5.260   3.535  13.280  0.00  0.00    +0.000 A 
ATOM     17  C   UNL     1       5.836   3.381  12.018  0.00  0.00    +0.000 A 
ATOM     18  C   UNL     1       7.059   3.980  11.736  0.00  0.00    +0.000 A 
ATOM     19  C   UNL     1       7.709   4.727  12.718  0.00  0.00    +0.000 A 
ATOM     20  C   UNL     1       7.127   4.882  13.982  0.00  0.00    +0.000 A 
BRANCH  20  21
ATOM     21  O   UNL     1       7.786   5.613  14.936  0.00  0.00    +0.000 OA
ATOM     22  H   UNL     1       7.151   6.197  15.377  0.00  0.00    +0.000 HD
ENDBRANCH  20  21
ENDBRANCH  14  15
ENDBRANCH   2  13
TORSDOF 6
ENDMDL
MODEL 2
REMARK VINA RESULT:      -7.9      3.089      6.397
REMARK  Name = 
REMARK  6 active torsions:
REMARK  status: ('A' for Active; 'I' for Inactive)
REMARK    1  A    between atoms: C_2  and  C_3
REMARK    2  A    between atoms: C_2  and  C_12
REMARK    3  A    between atoms: C_4  and  C_5
REMARK    4  A    between atoms: C_10  and  O_11
REMARK    5  A    between atoms: C_16  and  O_17
REMARK    6  A    between atoms: C_18  and  O_19
REMARK                            x       y       z     vdW  Elec       q    Type
REMARK                         _______ _______ _______ _____ _____    ______ ____
ROOT
ATOM      1  O   UNL     1       2.937   3.055  17.829  0.00  0.00    +0.000 OA
ATOM      2  C   UNL     1       3.370   4.184  17.628  0.00  0.00    +0.000 C 
ENDROOT
BRANCH   2   3
ATOM      3  C   UNL     1       4.706   4.379  16.996  0.00  0.00    +0.000 A 
ATOM      4  C   UNL     1       4.740   4.842  15.673  0.00  0.00    +0.000 A 
ATOM      5  C   UNL     1       5.962   5.089  15.036  0.00  0.00    +0.000 A 
ATOM      6  C   UNL     1       7.164   4.867  15.708  0.00  0.00    +0.000 A 
ATOM      7  C   UNL     1       7.130   4.378  17.007  0.00  0.00    +0.000 A 
ATOM      8  C   UNL     1       5.916   4.126  17.651  0.00  0.00    +0.000 A 
BRANCH   7   9
ATOM      9  O   UNL     1       8.277   4.123  17.711  0.00  0.00    +0.000 OA
ATOM     10  H   UNL     1       8.078   4.207  18.661  0.00  0.00    +0.000 HD
ENDBRANCH   7   9
BRANCH   8  11
ATOM     11  O   UNL     1       5.970   3.609  18.919  0.00  0.00    +0.000 OA
ATOM     12  H   UNL     1       5.491   4.257  19.477  0.00  0.00    +0.000 HD
ENDBRANCH   8  11
ENDBRANCH   2   3
BRANCH   2  13
ATOM     13  C   UNL     1       2.574   5.404  17.909  0.00  0.00    +0.000 C 
ATOM     14  C   UNL     1       3.040   6.419  18.651  0.00  0.00    +0.000 C 
BRANCH  14  15
ATOM     15  C   UNL     1       2.272   7.666  18.854  0.00  0.00    +0.000 A 
ATOM     16  C   UNL     1       2.141   8.595  17.805  0.00  0.00    +0.000 A 
ATOM     17  C   UNL     1       1.425   9.781  17.972  0.00  0.00    +0.000 A 
ATOM     18  C   UNL     1       0.843  10.073  19.200  0.00  0.00    +0.000 A 
ATOM     19  C   UNL     1       0.982   9.182  20.264  0.00  0.00    +0.000 A 
ATOM     20  C   UNL     1       1.698   7.992  20.092  0.00  0.00    +0.000 A 
BRANCH  20  21
ATOM     21  O   UNL     1       1.830   7.133  21.153  0.00  0.00    +0.000 OA
ATOM     22  H   UNL     1       2.765   6.900  21.254  0.00  0.00    +0.000 HD
ENDBRANCH  20  21
ENDBRANCH  14  15
ENDBRANCH   2  13
TORSDOF 6
ENDMDL
MODEL 3
REMARK VINA RESULT:      -7.7      1.448      1.972
REMARK  Name = 
REMARK  6 active torsions:
REMARK  status: ('A' for Active; 'I' for Inactive)
REMARK    1  A    between atoms: C_2  and  C_3
REMARK    2  A    between atoms: C_2  and  C_12
REMARK    3  A    between atoms: C_4  and  C_5
REMARK    4  A    between atoms: C_10  and  O_11
REMARK    5  A    between atoms: C_16  and  O_17
REMARK    6  A    between atoms: C_18  and  O_19
REMARK                            x       y       z     vdW  Elec       q    Type
REMARK                         _______ _______ _______ _____ _____    ______ ____
ROOT
ATOM      1  O   UNL     1       5.943   4.726  19.039  0.00  0.00    +0.000 OA
ATOM      2  C   UNL     1       5.231   4.167  18.213  0.00  0.00    +0.000 C 
ENDROOT
BRANCH   2   3
ATOM      3  C   UNL     1       3.821   3.818  18.543  0.00  0.00    +0.000 A 
ATOM      4  C   UNL     1       3.260   2.700  17.907  0.00  0.00    +0.000 A 
ATOM      5  C   UNL     1       1.955   2.290  18.207  0.00  0.00    +0.000 A 
ATOM      6  C   UNL     1       1.191   2.997  19.135  0.00  0.00    +0.000 A 
ATOM      7  C   UNL     1       1.735   4.122  19.740  0.00  0.00    +0.000 A 
ATOM      8  C   UNL     1       3.036   4.541  19.447  0.00  0.00    +0.000 A 
BRANCH   7   9
ATOM      9  O   UNL     1       1.027   4.868  20.645  0.00  0.00    +0.000 OA
ATOM     10  H   UNL     1       1.054   4.413  21.505  0.00  0.00    +0.000 HD
ENDBRANCH   7   9
BRANCH   8  11
ATOM     11  O   UNL     1       3.484   5.682  20.059  0.00  0.00    +0.000 OA
ATOM     12  H   UNL     1       3.917   5.374  20.881  0.00  0.00    +0.000 HD
ENDBRANCH   8  11
ENDBRANCH   2   3
BRANCH   2  13
ATOM     13  C   UNL     1       5.687   3.890  16.828  0.00  0.00    +0.000 C 
ATOM     14  C   UNL     1       5.365   4.675  15.789  0.00  0.00    +0.000 C 
BRANCH  14  15
ATOM     15  C   UNL     1       5.894   4.437  14.428  0.00  0.00    +0.000 A 
ATOM     16  C   UNL     1       5.181   3.628  13.524  0.00  0.00    +0.000 A 
ATOM     17  C   UNL     1       5.660   3.384  12.236  0.00  0.00    +0.000 A 
ATOM     18  C   UNL     1       6.874   3.927  11.833  0.00  0.00    +0.000 A 
ATOM     19  C   UNL     1       7.614   4.710  12.720  0.00  0.00    +0.000 A 
ATOM     20  C   UNL     1       7.129   4.955  14.010  0.00  0.00    +0.000 A 
BRANCH  20  21
ATOM     21  O   UNL     1       7.875   5.720  14.869  0.00  0.00    +0.000 OA
ATOM     22  H   UNL     1       7.749   6.655  14.646  0.00  0.00    +0.000 HD
ENDBRANCH  20  21
ENDBRANCH  14  15
ENDBRANCH   2  13
TORSDOF 6
ENDMDL
MODEL 4
REMARK VINA RESULT:      -7.6      1.227      1.846
REMARK  Name = 
REMARK  6 active torsions:
REMARK  status: ('A' for Active; 'I' for Inactive)
REMARK    1  A    between atoms: C_2  and  C_3
REMARK    2  A    between atoms: C_2  and  C_12
REMARK    3  A    between atoms: C_4  and  C_5
REMARK    4  A    between atoms: C_10  and  O_11
REMARK    5  A    between atoms: C_16  and  O_17
REMARK    6  A    between atoms: C_18  and  O_19
REMARK                            x       y       z     vdW  Elec       q    Type
REMARK                         _______ _______ _______ _____ _____    ______ ____
ROOT
ATOM      1  O   UNL     1       6.198   4.622  18.916  0.00  0.00    +0.000 OA
ATOM      2  C   UNL     1       5.440   4.179  18.061  0.00  0.00    +0.000 C 
ENDROOT
BRANCH   2   3
ATOM      3  C   UNL     1       3.992   3.988  18.360  0.00  0.00    +0.000 A 
ATOM      4  C   UNL     1       3.213   5.136  18.567  0.00  0.00    +0.000 A 
ATOM      5  C   UNL     1       1.837   5.029  18.806  0.00  0.00    +0.000 A 
ATOM      6  C   UNL     1       1.226   3.776  18.855  0.00  0.00    +0.000 A 
ATOM      7  C   UNL     1       2.004   2.639  18.682  0.00  0.00    +0.000 A 
ATOM      8  C   UNL     1       3.378   2.734  18.444  0.00  0.00    +0.000 A 
BRANCH   7   9
ATOM      9  O   UNL     1       1.465   1.381  18.738  0.00  0.00    +0.000 OA
ATOM     10  H   UNL     1       1.642   0.934  17.892  0.00  0.00    +0.000 HD
ENDBRANCH   7   9
BRANCH   8  11
ATOM     11  O   UNL     1       4.080   1.564  18.323  0.00  0.00    +0.000 OA
ATOM     12  H   UNL     1       4.865   1.795  17.784  0.00  0.00    +0.000 HD
ENDBRANCH   8  11
ENDBRANCH   2   3
BRANCH   2  13
ATOM     13  C   UNL     1       5.884   3.894  16.674  0.00  0.00    +0.000 C 
ATOM     14  C   UNL     1       5.431   4.577  15.613  0.00  0.00    +0.000 C 
BRANCH  14  15
ATOM     15  C   UNL     1       5.943   4.342  14.246  0.00  0.00    +0.000 A 
ATOM     16  C   UNL     1       5.233   3.511  13.359  0.00  0.00    +0.000 A 
ATOM     17  C   UNL     1       5.696   3.268  12.065  0.00  0.00    +0.000 A 
ATOM     18  C   UNL     1       6.892   3.836  11.639  0.00  0.00    +0.000 A 
ATOM     19  C   UNL     1       7.629   4.640  12.508  0.00  0.00    +0.000 A 
ATOM     20  C   UNL     1       7.159   4.884  13.804  0.00  0.00    +0.000 A 
BRANCH  20  21
ATOM     21  O   UNL     1       7.901   5.671  14.646  0.00  0.00    +0.000 OA
ATOM     22  H   UNL     1       8.780   5.801  14.260  0.00  0.00    +0.000 HD
ENDBRANCH  20  21
ENDBRANCH  14  15
ENDBRANCH   2  13
TORSDOF 6
ENDMDL
MODEL 5
REMARK VINA RESULT:      -7.5      3.467      6.407
REMARK  Name = 
REMARK  6 active torsions:
REMARK  status: ('A' for Active; 'I' for Inactive)
REMARK    1  A    between atoms: C_2  and  C_3
REMARK    2  A    between atoms: C_2  and  C_12
REMARK    3  A    between atoms: C_4  and  C_5
REMARK    4  A    between atoms: C_10  and  O_11
REMARK    5  A    between atoms: C_16  and  O_17
REMARK    6  A    between atoms: C_18  and  O_19
REMARK                            x       y       z     vdW  Elec       q    Type
REMARK                         _______ _______ _______ _____ _____    ______ ____
ROOT
ATOM      1  O   UNL     1       4.857   6.042  16.954  0.00  0.00    +0.000 OA
ATOM      2  C   UNL     1       3.798   5.785  17.514  0.00  0.00    +0.000 C 
ENDROOT
BRANCH   2   3
ATOM      3  C   UNL     1       3.525   4.411  18.022  0.00  0.00    +0.000 A 
ATOM      4  C   UNL     1       2.295   3.825  17.689  0.00  0.00    +0.000 A 
ATOM      5  C   UNL     1       1.995   2.519  18.094  0.00  0.00    +0.000 A 
ATOM      6  C   UNL     1       2.913   1.787  18.847  0.00  0.00    +0.000 A 
ATOM      7  C   UNL     1       4.118   2.379  19.204  0.00  0.00    +0.000 A 
ATOM      8  C   UNL     1       4.426   3.682  18.805  0.00  0.00    +0.000 A 
BRANCH   7   9
ATOM      9  O   UNL     1       5.051   1.717  19.957  0.00  0.00    +0.000 OA
ATOM     10  H   UNL     1       4.604   1.340  20.735  0.00  0.00    +0.000 HD
ENDBRANCH   7   9
BRANCH   8  11
ATOM     11  O   UNL     1       5.619   4.206  19.230  0.00  0.00    +0.000 OA
ATOM     12  H   UNL     1       6.206   3.431  19.351  0.00  0.00    +0.000 HD
ENDBRANCH   8  11
ENDBRANCH   2   3
BRANCH   2  13
ATOM     13  C   UNL     1       2.777   6.824  17.801  0.00  0.00    +0.000 C 
ATOM     14  C   UNL     1       2.627   7.377  19.014  0.00  0.00    +0.000 C 
BRANCH  14  15
ATOM     15  C   UNL     1       1.665   8.471  19.268  0.00  0.00    +0.000 A 
ATOM     16  C   UNL     1       1.228   9.289  18.210  0.00  0.00    +0.000 A 
ATOM     17  C   UNL     1       0.324  10.330  18.422  0.00  0.00    +0.000 A 
ATOM     18  C   UNL     1      -0.145  10.589  19.705  0.00  0.00    +0.000 A 
ATOM     19  C   UNL     1       0.294   9.811  20.776  0.00  0.00    +0.000 A 
ATOM     20  C   UNL     1       1.198   8.765  20.558  0.00  0.00    +0.000 A 
BRANCH  20  21
ATOM     21  O   UNL     1       1.624   8.016  21.625  0.00  0.00    +0.000 OA
ATOM     22  H   UNL     1       2.592   7.987  21.621  0.00  0.00    +0.000 HD
ENDBRANCH  20  21
ENDBRANCH  14  15
ENDBRANCH   2  13
TORSDOF 6
ENDMDL
MODEL 6
REMARK VINA RESULT:      -7.5      3.826      7.003
REMARK  Name = 
REMARK  6 active torsions:
REMARK  status: ('A' for Active; 'I' for Inactive)
REMARK    1  A    between atoms: C_2  and  C_3
REMARK    2  A    between atoms: C_2  and  C_12
REMARK    3  A    between atoms: C_4  and  C_5
REMARK    4  A    between atoms: C_10  and  O_11
REMARK    5  A    between atoms: C_16  and  O_17
REMARK    6  A    between atoms: C_18  and  O_19
REMARK                            x       y       z     vdW  Elec       q    Type
REMARK                         _______ _______ _______ _____ _____    ______ ____
ROOT
ATOM      1  O   UNL     1       3.803   4.458  17.375  0.00  0.00    +0.000 OA
ATOM      2  C   UNL     1       4.073   5.587  17.767  0.00  0.00    +0.000 C 
ENDROOT
BRANCH   2   3
ATOM      3  C   UNL     1       5.487   5.980  18.025  0.00  0.00    +0.000 A 
ATOM      4  C   UNL     1       6.041   6.988  17.222  0.00  0.00    +0.000 A 
ATOM      5  C   UNL     1       7.349   7.436  17.442  0.00  0.00    +0.000 A 
ATOM      6  C   UNL     1       8.124   6.876  18.457  0.00  0.00    +0.000 A 
ATOM      7  C   UNL     1       7.586   5.855  19.231  0.00  0.00    +0.000 A 
ATOM      8  C   UNL     1       6.282   5.400  19.019  0.00  0.00    +0.000 A 
BRANCH   7   9
ATOM      9  O   UNL     1       8.304   5.254  20.230  0.00  0.00    +0.000 OA
ATOM     10  H   UNL     1       8.388   5.882  20.968  0.00  0.00    +0.000 HD
ENDBRANCH   7   9
BRANCH   8  11
ATOM     11  O   UNL     1       5.841   4.365  19.800  0.00  0.00    +0.000 OA
ATOM     12  H   UNL     1       5.132   4.752  20.355  0.00  0.00    +0.000 HD
ENDBRANCH   8  11
ENDBRANCH   2   3
BRANCH   2  13
ATOM     13  C   UNL     1       3.042   6.644  17.920  0.00  0.00    +0.000 C 
ATOM     14  C   UNL     1       2.704   7.160  19.111  0.00  0.00    +0.000 C 
BRANCH  14  15
ATOM     15  C   UNL     1       1.737   8.271  19.243  0.00  0.00    +0.000 A 
ATOM     16  C   UNL     1       1.306   8.973  18.102  0.00  0.00    +0.000 A 
ATOM     17  C   UNL     1       0.398  10.028  18.199  0.00  0.00    +0.000 A 
ATOM     18  C   UNL     1      -0.081  10.418  19.445  0.00  0.00    +0.000 A 
ATOM     19  C   UNL     1       0.353   9.757  20.594  0.00  0.00    +0.000 A 
ATOM     20  C   UNL     1       1.261   8.697  20.492  0.00  0.00    +0.000 A 
BRANCH  20  21
ATOM     21  O   UNL     1       1.681   8.065  21.635  0.00  0.00    +0.000 OA
ATOM     22  H   UNL     1       2.609   7.809  21.528  0.00  0.00    +0.000 HD
ENDBRANCH  20  21
ENDBRANCH  14  15
ENDBRANCH   2  13
TORSDOF 6
ENDMDL
MODEL 7
REMARK VINA RESULT:      -7.3      3.683      6.920
REMARK  Name = 
REMARK  6 active torsions:
REMARK  status: ('A' for Active; 'I' for Inactive)
REMARK    1  A    between atoms: C_2  and  C_3
REMARK    2  A    between atoms: C_2  and  C_12
REMARK    3  A    between atoms: C_4  and  C_5
REMARK    4  A    between atoms: C_10  and  O_11
REMARK    5  A    between atoms: C_16  and  O_17
REMARK    6  A    between atoms: C_18  and  O_19
REMARK                            x       y       z     vdW  Elec       q    Type
REMARK                         _______ _______ _______ _____ _____    ______ ____
ROOT
ATOM      1  O   UNL     1       3.640   4.464  16.911  0.00  0.00    +0.000 OA
ATOM      2  C   UNL     1       3.881   5.383  17.686  0.00  0.00    +0.000 C 
ENDROOT
BRANCH   2   3
ATOM      3  C   UNL     1       5.289   5.784  17.966  0.00  0.00    +0.000 A 
ATOM      4  C   UNL     1       5.901   6.678  17.075  0.00  0.00    +0.000 A 
ATOM      5  C   UNL     1       7.206   7.131  17.306  0.00  0.00    +0.000 A 
ATOM      6  C   UNL     1       7.918   6.689  18.421  0.00  0.00    +0.000 A 
ATOM      7  C   UNL     1       7.323   5.780  19.285  0.00  0.00    +0.000 A 
ATOM      8  C   UNL     1       6.022   5.320  19.063  0.00  0.00    +0.000 A 
BRANCH   7   9
ATOM      9  O   UNL     1       7.978   5.295  20.385  0.00  0.00    +0.000 OA
ATOM     10  H   UNL     1       8.494   4.516  20.116  0.00  0.00    +0.000 HD
ENDBRANCH   7   9
BRANCH   8  11
ATOM     11  O   UNL     1       5.521   4.395  19.941  0.00  0.00    +0.000 OA
ATOM     12  H   UNL     1       6.310   3.984  20.352  0.00  0.00    +0.000 HD
ENDBRANCH   8  11
ENDBRANCH   2   3
BRANCH   2  13
ATOM     13  C   UNL     1       2.811   6.198  18.311  0.00  0.00    +0.000 C 
ATOM     14  C   UNL     1       3.023   7.437  18.778  0.00  0.00    +0.000 C 
BRANCH  14  15
ATOM     15  C   UNL     1       1.930   8.272  19.323  0.00  0.00    +0.000 A 
ATOM     16  C   UNL     1       1.398   7.998  20.596  0.00  0.00    +0.000 A 
ATOM     17  C   UNL     1       0.365   8.767  21.132  0.00  0.00    +0.000 A 
ATOM     18  C   UNL     1      -0.174   9.815  20.394  0.00  0.00    +0.000 A 
ATOM     19  C   UNL     1       0.317  10.090  19.117  0.00  0.00    +0.000 A 
ATOM     20  C   UNL     1       1.356   9.318  18.585  0.00  0.00    +0.000 A 
BRANCH  20  21
ATOM     21  O   UNL     1       1.819   9.600  17.326  0.00  0.00    +0.000 OA
ATOM     22  H   UNL     1       2.772   9.427  17.296  0.00  0.00    +0.000 HD
ENDBRANCH  20  21
ENDBRANCH  14  15
ENDBRANCH   2  13
TORSDOF 6
ENDMDL
MODEL 8
REMARK VINA RESULT:      -7.3      1.372      1.881
REMARK  Name = 
REMARK  6 active torsions:
REMARK  status: ('A' for Active; 'I' for Inactive)
REMARK    1  A    between atoms: C_2  and  C_3
REMARK    2  A    between atoms: C_2  and  C_12
REMARK    3  A    between atoms: C_4  and  C_5
REMARK    4  A    between atoms: C_10  and  O_11
REMARK    5  A    between atoms: C_16  and  O_17
REMARK    6  A    between atoms: C_18  and  O_19
REMARK                            x       y       z     vdW  Elec       q    Type
REMARK                         _______ _______ _______ _____ _____    ______ ____
ROOT
ATOM      1  O   UNL     1       3.501   6.640  18.008  0.00  0.00    +0.000 OA
ATOM      2  C   UNL     1       3.970   5.594  17.575  0.00  0.00    +0.000 C 
ENDROOT
BRANCH   2   3
ATOM      3  C   UNL     1       3.652   4.295  18.231  0.00  0.00    +0.000 A 
ATOM      4  C   UNL     1       4.638   3.717  19.046  0.00  0.00    +0.000 A 
ATOM      5  C   UNL     1       4.386   2.521  19.728  0.00  0.00    +0.000 A 
ATOM      6  C   UNL     1       3.154   1.880  19.596  0.00  0.00    +0.000 A 
ATOM      7  C   UNL     1       2.191   2.435  18.765  0.00  0.00    +0.000 A 
ATOM      8  C   UNL     1       2.432   3.628  18.078  0.00  0.00    +0.000 A 
BRANCH   7   9
ATOM      9  O   UNL     1       0.970   1.843  18.581  0.00  0.00    +0.000 OA
ATOM     10  H   UNL     1       0.283   2.529  18.650  0.00  0.00    +0.000 HD
ENDBRANCH   7   9
BRANCH   8  11
ATOM     11  O   UNL     1       1.443   4.089  17.249  0.00  0.00    +0.000 OA
ATOM     12  H   UNL     1       1.207   3.322  16.687  0.00  0.00    +0.000 HD
ENDBRANCH   8  11
ENDBRANCH   2   3
BRANCH   2  13
ATOM     13  C   UNL     1       4.792   5.542  16.340  0.00  0.00    +0.000 C 
ATOM     14  C   UNL     1       5.117   4.390  15.735  0.00  0.00    +0.000 C 
BRANCH  14  15
ATOM     15  C   UNL     1       5.864   4.353  14.459  0.00  0.00    +0.000 A 
ATOM     16  C   UNL     1       5.380   3.594  13.377  0.00  0.00    +0.000 A 
ATOM     17  C   UNL     1       6.068   3.539  12.164  0.00  0.00    +0.000 A 
ATOM     18  C   UNL     1       7.268   4.224  12.016  0.00  0.00    +0.000 A 
ATOM     19  C   UNL     1       7.785   4.961  13.083  0.00  0.00    +0.000 A 
ATOM     20  C   UNL     1       7.090   5.017  14.296  0.00  0.00    +0.000 A 
BRANCH  20  21
ATOM     21  O   UNL     1       7.618   5.740  15.335  0.00  0.00    +0.000 OA
ATOM     22  H   UNL     1       7.108   5.554  16.138  0.00  0.00    +0.000 HD
ENDBRANCH  20  21
ENDBRANCH  14  15
ENDBRANCH   2  13
TORSDOF 6
ENDMDL
MODEL 9
REMARK VINA RESULT:      -7.3      1.935      2.353
REMARK  Name = 
REMARK  6 active torsions:
REMARK  status: ('A' for Active; 'I' for Inactive)
REMARK    1  A    between atoms: C_2  and  C_3
REMARK    2  A    between atoms: C_2  and  C_12
REMARK    3  A    between atoms: C_4  and  C_5
REMARK    4  A    between atoms: C_10  and  O_11
REMARK    5  A    between atoms: C_16  and  O_17
REMARK    6  A    between atoms: C_18  and  O_19
REMARK                            x       y       z     vdW  Elec       q    Type
REMARK                         _______ _______ _______ _____ _____    ______ ____
ROOT
ATOM      1  O   UNL     1       2.813   6.930  19.342  0.00  0.00    +0.000 OA
ATOM      2  C   UNL     1       2.940   5.875  18.731  0.00  0.00    +0.000 C 
ENDROOT
BRANCH   2   3
ATOM      3  C   UNL     1       2.214   4.651  19.176  0.00  0.00    +0.000 A 
ATOM      4  C   UNL     1       1.578   3.877  18.195  0.00  0.00    +0.000 A 
ATOM      5  C   UNL     1       0.918   2.692  18.541  0.00  0.00    +0.000 A 
ATOM      6  C   UNL     1       0.875   2.271  19.870  0.00  0.00    +0.000 A 
ATOM      7  C   UNL     1       1.478   3.055  20.845  0.00  0.00    +0.000 A 
ATOM      8  C   UNL     1       2.138   4.241  20.511  0.00  0.00    +0.000 A 
BRANCH   7   9
ATOM      9  O   UNL     1       1.453   2.704  22.169  0.00  0.00    +0.000 OA
ATOM     10  H   UNL     1       2.364   2.738  22.512  0.00  0.00    +0.000 HD
ENDBRANCH   7   9
BRANCH   8  11
ATOM     11  O   UNL     1       2.673   4.974  21.537  0.00  0.00    +0.000 OA
ATOM     12  H   UNL     1       1.936   5.531  21.861  0.00  0.00    +0.000 HD
ENDBRANCH   8  11
ENDBRANCH   2   3
BRANCH   2  13
ATOM     13  C   UNL     1       3.734   5.770  17.481  0.00  0.00    +0.000 C 
ATOM     14  C   UNL     1       4.847   5.027  17.391  0.00  0.00    +0.000 C 
BRANCH  14  15
ATOM     15  C   UNL     1       5.583   4.862  16.119  0.00  0.00    +0.000 A 
ATOM     16  C   UNL     1       4.998   4.157  15.050  0.00  0.00    +0.000 A 
ATOM     17  C   UNL     1       5.671   3.983  13.840  0.00  0.00    +0.000 A 
ATOM     18  C   UNL     1       6.956   4.490  13.683  0.00  0.00    +0.000 A 
ATOM     19  C   UNL     1       7.570   5.167  14.737  0.00  0.00    +0.000 A 
ATOM     20  C   UNL     1       6.889   5.344  15.947  0.00  0.00    +0.000 A 
BRANCH  20  21
ATOM     21  O   UNL     1       7.513   6.006  16.974  0.00  0.00    +0.000 OA
ATOM     22  H   UNL     1       7.140   6.897  17.044  0.00  0.00    +0.000 HD
ENDBRANCH  20  21
ENDBRANCH  14  15
ENDBRANCH   2  13
TORSDOF 6
ENDMDL
