MODEL 1
REMARK VINA RESULT:      -8.8      0.000      0.000
REMARK  Name = 
REMARK  6 active torsions:
REMARK  status: ('A' for Active; 'I' for Inactive)
REMARK    1  A    between atoms: C_1  and  C_2
REMARK    2  A    between atoms: C_4  and  C_5
REMARK    3  A    between atoms: C_7  and  N_8
REMARK    4  A    between atoms: C_12  and  S_13
REMARK    5  A    between atoms: S_13  and  C_14
REMARK    6  A    between atoms: C_14  and  C_15
REMARK                            x       y       z     vdW  Elec       q    Type
REMARK                         _______ _______ _______ _____ _____    ______ ____
ROOT
ATOM      1  S   UNL     1       7.666   6.581  18.214  0.00  0.00    +0.000 S 
ENDROOT
BRANCH   1   6
ATOM      2  N   UNL     1       5.475   5.247  17.156  0.00  0.00    +0.000 N 
ATOM      3  C   UNL     1       5.287   4.232  16.233  0.00  0.00    +0.000 A 
ATOM      4  C   UNL     1       6.488   4.069  15.588  0.00  0.00    +0.000 A 
ATOM      5  N   UNL     1       7.442   4.888  16.121  0.00  0.00    +0.000 NA
ATOM      6  C   UNL     1       6.832   5.560  17.076  0.00  0.00    +0.000 A 
BRANCH   2  13
ATOM      7  C   UNL     1       2.138   8.860  17.799  0.00  0.00    +0.000 C 
ATOM      8  C   UNL     1       2.753   7.569  18.254  0.00  0.00    +0.000 A 
ATOM      9  C   UNL     1       2.245   6.867  19.352  0.00  0.00    +0.000 A 
ATOM     10  C   UNL     1       2.814   5.651  19.747  0.00  0.00    +0.000 A 
ATOM     11  C   UNL     1       2.246   4.872  20.898  0.00  0.00    +0.000 C 
ATOM     12  C   UNL     1       3.907   5.141  19.034  0.00  0.00    +0.000 A 
ATOM     13  C   UNL     1       4.427   5.830  17.927  0.00  0.00    +0.000 A 
ATOM     14  C   UNL     1       3.841   7.042  17.546  0.00  0.00    +0.000 A 
ENDBRANCH   2  13
ENDBRANCH   1   6
BRANCH   1  15
ATOM     15  C   UNL     1       7.496   8.220  17.462  0.00  0.00    +0.000 C 
BRANCH  15  16
ATOM     16  C   UNL     1       8.381   9.225  18.196  0.00  0.00    +0.000 C 
ATOM     17  O   UNL     1       9.040   8.856  19.169  0.00  0.00    +0.000 OA
ATOM     18  N   UNL     1       8.370  10.495  17.647  0.00  0.00    +0.000 N 
ATOM     19  C   UNL     1       9.089  11.579  18.098  0.00  0.00    +0.000 A 
ATOM     20  N   UNL     1       8.829  12.804  17.695  0.00  0.00    +0.000 NA
ATOM     21  C   UNL     1       9.681  13.697  18.337  0.00  0.00    +0.000 A 
ATOM     22  C   UNL     1       9.678  15.106  18.211  0.00  0.00    +0.000 A 
ATOM     23  C   UNL     1      10.600  15.874  18.935  0.00  0.00    +0.000 A 
ATOM     24  C   UNL     1      11.520  15.262  19.780  0.00  0.00    +0.000 A 
ATOM     25  C   UNL     1      11.546  13.873  19.921  0.00  0.00    +0.000 A 
ATOM     26  C   UNL     1      10.616  13.114  19.193  0.00  0.00    +0.000 A 
ATOM     27  S   UNL     1      10.405  11.411  19.165  0.00  0.00    +0.000 S 
ATOM     28  H   UNL     1       7.653  10.729  16.974  0.00  0.00    +0.000 HD
ENDBRANCH  15  16
ENDBRANCH   1  15
TORSDOF 4
ENDMDL
MODEL 2
REMARK VINA RESULT:      -8.7      5.916      8.080
REMARK  Name = 
REMARK  6 active torsions:
REMARK  status: ('A' for Active; 'I' for Inactive)
REMARK    1  A    between atoms: C_1  and  C_2
REMARK    2  A    between atoms: C_4  and  C_5
REMARK    3  A    between atoms: C_7  and  N_8
REMARK    4  A    between atoms: C_12  and  S_13
REMARK    5  A    between atoms: S_13  and  C_14
REMARK    6  A    between atoms: C_14  and  C_15
REMARK                            x       y       z     vdW  Elec       q    Type
REMARK                         _______ _______ _______ _____ _____    ______ ____
ROOT
ATOM      1  S   UNL     1       2.864   6.150  19.617  0.00  0.00    +0.000 S 
ENDROOT
BRANCH   1   6
ATOM      2  N   UNL     1       3.266   3.912  18.026  0.00  0.00    +0.000 N 
ATOM      3  C   UNL     1       2.492   2.840  17.614  0.00  0.00    +0.000 A 
ATOM      4  C   UNL     1       1.364   2.854  18.396  0.00  0.00    +0.000 A 
ATOM      5  N   UNL     1       1.363   3.936  19.230  0.00  0.00    +0.000 NA
ATOM      6  C   UNL     1       2.487   4.575  18.974  0.00  0.00    +0.000 A 
BRANCH   2  13
ATOM      7  C   UNL     1       6.523   4.214  14.298  0.00  0.00    +0.000 C 
ATOM      8  C   UNL     1       6.211   4.353  15.759  0.00  0.00    +0.000 A 
ATOM      9  C   UNL     1       7.162   4.833  16.665  0.00  0.00    +0.000 A 
ATOM     10  C   UNL     1       6.846   4.982  18.020  0.00  0.00    +0.000 A 
ATOM     11  C   UNL     1       7.849   5.535  18.990  0.00  0.00    +0.000 C 
ATOM     12  C   UNL     1       5.562   4.639  18.467  0.00  0.00    +0.000 A 
ATOM     13  C   UNL     1       4.594   4.161  17.570  0.00  0.00    +0.000 A 
ATOM     14  C   UNL     1       4.929   4.024  16.219  0.00  0.00    +0.000 A 
ENDBRANCH   2  13
ENDBRANCH   1   6
BRANCH   1  15
ATOM     15  C   UNL     1       2.825   7.193  18.136  0.00  0.00    +0.000 C 
BRANCH  15  16
ATOM     16  C   UNL     1       1.996   8.447  18.403  0.00  0.00    +0.000 C 
ATOM     17  O   UNL     1       1.870   9.291  17.516  0.00  0.00    +0.000 OA
ATOM     18  N   UNL     1       1.423   8.490  19.662  0.00  0.00    +0.000 N 
ATOM     19  C   UNL     1       0.616   9.492  20.152  0.00  0.00    +0.000 A 
ATOM     20  N   UNL     1       0.330   9.592  21.432  0.00  0.00    +0.000 NA
ATOM     21  C   UNL     1      -0.469  10.711  21.645  0.00  0.00    +0.000 A 
ATOM     22  C   UNL     1      -0.941  11.187  22.890  0.00  0.00    +0.000 A 
ATOM     23  C   UNL     1      -1.735  12.342  22.942  0.00  0.00    +0.000 A 
ATOM     24  C   UNL     1      -2.063  13.026  21.776  0.00  0.00    +0.000 A 
ATOM     25  C   UNL     1      -1.611  12.576  20.533  0.00  0.00    +0.000 A 
ATOM     26  C   UNL     1      -0.815  11.420  20.494  0.00  0.00    +0.000 A 
ATOM     27  S   UNL     1      -0.118  10.641  19.133  0.00  0.00    +0.000 S 
ATOM     28  H   UNL     1       1.748   7.842  20.367  0.00  0.00    +0.000 HD
ENDBRANCH  15  16
ENDBRANCH   1  15
TORSDOF 4
ENDMDL
MODEL 3
REMARK VINA RESULT:      -8.6      0.135      1.667
REMARK  Name = 
REMARK  6 active torsions:
REMARK  status: ('A' for Active; 'I' for Inactive)
REMARK    1  A    between atoms: C_1  and  C_2
REMARK    2  A    between atoms: C_4  and  C_5
REMARK    3  A    between atoms: C_7  and  N_8
REMARK    4  A    between atoms: C_12  and  S_13
REMARK    5  A    between atoms: S_13  and  C_14
REMARK    6  A    between atoms: C_14  and  C_15
REMARK                            x       y       z     vdW  Elec       q    Type
REMARK                         _______ _______ _______ _____ _____    ______ ____
ROOT
ATOM      1  S   UNL     1       7.496   6.521  18.245  0.00  0.00    +0.000 S 
ENDROOT
BRANCH   1   6
ATOM      2  N   UNL     1       5.407   5.106  17.090  0.00  0.00    +0.000 N 
ATOM      3  C   UNL     1       5.299   4.092  16.153  0.00  0.00    +0.000 A 
ATOM      4  C   UNL     1       6.531   3.983  15.556  0.00  0.00    +0.000 A 
ATOM      5  N   UNL     1       7.428   4.837  16.133  0.00  0.00    +0.000 NA
ATOM      6  C   UNL     1       6.752   5.475  17.068  0.00  0.00    +0.000 A 
BRANCH   2  13
ATOM      7  C   UNL     1       2.267   4.808  20.918  0.00  0.00    +0.000 C 
ATOM      8  C   UNL     1       2.771   5.542  19.710  0.00  0.00    +0.000 A 
ATOM      9  C   UNL     1       2.259   6.794  19.353  0.00  0.00    +0.000 A 
ATOM     10  C   UNL     1       2.759   7.477  18.239  0.00  0.00    +0.000 A 
ATOM     11  C   UNL     1       2.243   8.840  17.875  0.00  0.00    +0.000 C 
ATOM     12  C   UNL     1       3.777   6.892  17.474  0.00  0.00    +0.000 A 
ATOM     13  C   UNL     1       4.305   5.639  17.821  0.00  0.00    +0.000 A 
ATOM     14  C   UNL     1       3.795   4.974  18.941  0.00  0.00    +0.000 A 
ENDBRANCH   2  13
ENDBRANCH   1   6
BRANCH   1  15
ATOM     15  C   UNL     1       7.435   8.134  17.425  0.00  0.00    +0.000 C 
BRANCH  15  16
ATOM     16  C   UNL     1       8.320   9.131  18.169  0.00  0.00    +0.000 C 
ATOM     17  O   UNL     1       8.980   8.752  19.137  0.00  0.00    +0.000 OA
ATOM     18  N   UNL     1       8.309  10.407  17.634  0.00  0.00    +0.000 N 
ATOM     19  C   UNL     1       9.029  11.486  18.096  0.00  0.00    +0.000 A 
ATOM     20  N   UNL     1       8.768  12.715  17.706  0.00  0.00    +0.000 NA
ATOM     21  C   UNL     1       9.621  13.602  18.357  0.00  0.00    +0.000 A 
ATOM     22  C   UNL     1       9.618  15.011  18.246  0.00  0.00    +0.000 A 
ATOM     23  C   UNL     1      10.541  15.772  18.977  0.00  0.00    +0.000 A 
ATOM     24  C   UNL     1      11.462  15.151  19.814  0.00  0.00    +0.000 A 
ATOM     25  C   UNL     1      11.488  13.760  19.940  0.00  0.00    +0.000 A 
ATOM     26  C   UNL     1      10.557  13.009  19.205  0.00  0.00    +0.000 A 
ATOM     27  S   UNL     1      10.346  11.307  19.159  0.00  0.00    +0.000 S 
ATOM     28  H   UNL     1       7.591  10.648  16.964  0.00  0.00    +0.000 HD
ENDBRANCH  15  16
ENDBRANCH   1  15
TORSDOF 4
ENDMDL
MODEL 4
REMARK VINA RESULT:      -8.6      5.416      8.194
REMARK  Name = 
REMARK  6 active torsions:
REMARK  status: ('A' for Active; 'I' for Inactive)
REMARK    1  A    between atoms: C_1  and  C_2
REMARK    2  A    between atoms: C_4  and  C_5
REMARK    3  A    between atoms: C_7  and  N_8
REMARK    4  A    between atoms: C_12  and  S_13
REMARK    5  A    between atoms: S_13  and  C_14
REMARK    6  A    between atoms: C_14  and  C_15
REMARK                            x       y       z     vdW  Elec       q    Type
REMARK                         _______ _______ _______ _____ _____    ______ ____
ROOT
ATOM      1  S   UNL     1       2.064   5.451  18.202  0.00  0.00    +0.000 S 
ENDROOT
BRANCH   1   6
ATOM      2  N   UNL     1       4.228   3.829  18.823  0.00  0.00    +0.000 N 
ATOM      3  C   UNL     1       4.441   2.740  19.650  0.00  0.00    +0.000 A 
ATOM      4  C   UNL     1       3.344   2.658  20.472  0.00  0.00    +0.000 A 
ATOM      5  N   UNL     1       2.417   3.606  20.143  0.00  0.00    +0.000 NA
ATOM      6  C   UNL     1       2.943   4.274  19.137  0.00  0.00    +0.000 A 
BRANCH   2  13
ATOM      7  C   UNL     1       6.214   3.976  14.281  0.00  0.00    +0.000 C 
ATOM      8  C   UNL     1       6.179   4.475  15.695  0.00  0.00    +0.000 A 
ATOM      9  C   UNL     1       7.003   5.522  16.119  0.00  0.00    +0.000 A 
ATOM     10  C   UNL     1       6.938   5.993  17.434  0.00  0.00    +0.000 A 
ATOM     11  C   UNL     1       7.790   7.145  17.884  0.00  0.00    +0.000 C 
ATOM     12  C   UNL     1       6.040   5.401  18.333  0.00  0.00    +0.000 A 
ATOM     13  C   UNL     1       5.202   4.352  17.923  0.00  0.00    +0.000 A 
ATOM     14  C   UNL     1       5.279   3.898  16.602  0.00  0.00    +0.000 A 
ENDBRANCH   2  13
ENDBRANCH   1   6
BRANCH   1  15
ATOM     15  C   UNL     1       2.775   7.014  18.778  0.00  0.00    +0.000 C 
BRANCH  15  16
ATOM     16  C   UNL     1       1.873   7.637  19.842  0.00  0.00    +0.000 C 
ATOM     17  O   UNL     1       1.651   7.021  20.885  0.00  0.00    +0.000 OA
ATOM     18  N   UNL     1       1.403   8.897  19.518  0.00  0.00    +0.000 N 
ATOM     19  C   UNL     1       0.593   9.687  20.303  0.00  0.00    +0.000 A 
ATOM     20  N   UNL     1      -0.022  10.746  19.824  0.00  0.00    +0.000 NA
ATOM     21  C   UNL     1      -0.797  11.327  20.823  0.00  0.00    +0.000 A 
ATOM     22  C   UNL     1      -1.645  12.450  20.688  0.00  0.00    +0.000 A 
ATOM     23  C   UNL     1      -2.372  12.915  21.794  0.00  0.00    +0.000 A 
ATOM     24  C   UNL     1      -2.266  12.278  23.026  0.00  0.00    +0.000 A 
ATOM     25  C   UNL     1      -1.433  11.169  23.187  0.00  0.00    +0.000 A 
ATOM     26  C   UNL     1      -0.712  10.711  22.073  0.00  0.00    +0.000 A 
ATOM     27  S   UNL     1       0.372   9.386  21.964  0.00  0.00    +0.000 S 
ATOM     28  H   UNL     1       1.492   9.220  18.564  0.00  0.00    +0.000 HD
ENDBRANCH  15  16
ENDBRANCH   1  15
TORSDOF 4
ENDMDL
MODEL 5
REMARK VINA RESULT:      -8.6      5.933      8.065
REMARK  Name = 
REMARK  6 active torsions:
REMARK  status: ('A' for Active; 'I' for Inactive)
REMARK    1  A    between atoms: C_1  and  C_2
REMARK    2  A    between atoms: C_4  and  C_5
REMARK    3  A    between atoms: C_7  and  N_8
REMARK    4  A    between atoms: C_12  and  S_13
REMARK    5  A    between atoms: S_13  and  C_14
REMARK    6  A    between atoms: C_14  and  C_15
REMARK                            x       y       z     vdW  Elec       q    Type
REMARK                         _______ _______ _______ _____ _____    ______ ____
ROOT
ATOM      1  S   UNL     1       2.763   6.276  19.550  0.00  0.00    +0.000 S 
ENDROOT
BRANCH   1   6
ATOM      2  N   UNL     1       3.257   4.061  17.953  0.00  0.00    +0.000 N 
ATOM      3  C   UNL     1       2.530   2.955  17.545  0.00  0.00    +0.000 A 
ATOM      4  C   UNL     1       1.407   2.917  18.333  0.00  0.00    +0.000 A 
ATOM      5  N   UNL     1       1.363   3.997  19.169  0.00  0.00    +0.000 NA
ATOM      6  C   UNL     1       2.454   4.687  18.907  0.00  0.00    +0.000 A 
BRANCH   2  13
ATOM      7  C   UNL     1       7.918   5.454  18.919  0.00  0.00    +0.000 C 
ATOM      8  C   UNL     1       6.875   5.018  17.933  0.00  0.00    +0.000 A 
ATOM      9  C   UNL     1       7.190   4.799  16.588  0.00  0.00    +0.000 A 
ATOM     10  C   UNL     1       6.211   4.367  15.687  0.00  0.00    +0.000 A 
ATOM     11  C   UNL     1       6.553   4.089  14.251  0.00  0.00    +0.000 C 
ATOM     12  C   UNL     1       4.902   4.160  16.142  0.00  0.00    +0.000 A 
ATOM     13  C   UNL     1       4.569   4.371  17.489  0.00  0.00    +0.000 A 
ATOM     14  C   UNL     1       5.564   4.798  18.375  0.00  0.00    +0.000 A 
ENDBRANCH   2  13
ENDBRANCH   1   6
BRANCH   1  15
ATOM     15  C   UNL     1       2.746   7.307  18.060  0.00  0.00    +0.000 C 
BRANCH  15  16
ATOM     16  C   UNL     1       1.993   8.606  18.334  0.00  0.00    +0.000 C 
ATOM     17  O   UNL     1       1.954   9.479  17.466  0.00  0.00    +0.000 OA
ATOM     18  N   UNL     1       1.380   8.655  19.573  0.00  0.00    +0.000 N 
ATOM     19  C   UNL     1       0.623   9.696  20.063  0.00  0.00    +0.000 A 
ATOM     20  N   UNL     1       0.299   9.783  21.334  0.00  0.00    +0.000 NA
ATOM     21  C   UNL     1      -0.432  10.947  21.551  0.00  0.00    +0.000 A 
ATOM     22  C   UNL     1      -0.916  11.422  22.792  0.00  0.00    +0.000 A 
ATOM     23  C   UNL     1      -1.633  12.625  22.849  0.00  0.00    +0.000 A 
ATOM     24  C   UNL     1      -1.874  13.359  21.692  0.00  0.00    +0.000 A 
ATOM     25  C   UNL     1      -1.409  12.911  20.454  0.00  0.00    +0.000 A 
ATOM     26  C   UNL     1      -0.689  11.707  20.409  0.00  0.00    +0.000 A 
ATOM     27  S   UNL     1       0.002  10.917  19.052  0.00  0.00    +0.000 S 
ATOM     28  H   UNL     1       1.636   7.970  20.271  0.00  0.00    +0.000 HD
ENDBRANCH  15  16
ENDBRANCH   1  15
TORSDOF 4
ENDMDL
MODEL 6
REMARK VINA RESULT:      -8.5      1.064      1.109
REMARK  Name = 
REMARK  6 active torsions:
REMARK  status: ('A' for Active; 'I' for Inactive)
REMARK    1  A    between atoms: C_1  and  C_2
REMARK    2  A    between atoms: C_4  and  C_5
REMARK    3  A    between atoms: C_7  and  N_8
REMARK    4  A    between atoms: C_12  and  S_13
REMARK    5  A    between atoms: S_13  and  C_14
REMARK    6  A    between atoms: C_14  and  C_15
REMARK                            x       y       z     vdW  Elec       q    Type
REMARK                         _______ _______ _______ _____ _____    ______ ____
ROOT
ATOM      1  S   UNL     1       7.458   6.419  17.717  0.00  0.00    +0.000 S 
ENDROOT
BRANCH   1   6
ATOM      2  N   UNL     1       5.585   5.065  16.182  0.00  0.00    +0.000 N 
ATOM      3  C   UNL     1       5.616   4.319  15.016  0.00  0.00    +0.000 A 
ATOM      4  C   UNL     1       6.845   4.543  14.446  0.00  0.00    +0.000 A 
ATOM      5  N   UNL     1       7.614   5.340  15.246  0.00  0.00    +0.000 NA
ATOM      6  C   UNL     1       6.862   5.614  16.292  0.00  0.00    +0.000 A 
BRANCH   2  13
ATOM      7  C   UNL     1       2.349   8.054  18.460  0.00  0.00    +0.000 C 
ATOM      8  C   UNL     1       2.797   6.670  18.095  0.00  0.00    +0.000 A 
ATOM      9  C   UNL     1       2.039   5.545  18.436  0.00  0.00    +0.000 A 
ATOM     10  C   UNL     1       2.459   4.263  18.064  0.00  0.00    +0.000 A 
ATOM     11  C   UNL     1       1.628   3.055  18.389  0.00  0.00    +0.000 C 
ATOM     12  C   UNL     1       3.654   4.112  17.348  0.00  0.00    +0.000 A 
ATOM     13  C   UNL     1       4.425   5.230  16.994  0.00  0.00    +0.000 A 
ATOM     14  C   UNL     1       3.986   6.504  17.371  0.00  0.00    +0.000 A 
ENDBRANCH   2  13
ENDBRANCH   1   6
BRANCH   1  15
ATOM     15  C   UNL     1       7.112   8.159  17.354  0.00  0.00    +0.000 C 
BRANCH  15  16
ATOM     16  C   UNL     1       8.125   9.052  18.067  0.00  0.00    +0.000 C 
ATOM     17  O   UNL     1       8.846   8.573  18.942  0.00  0.00    +0.000 OA
ATOM     18  N   UNL     1       8.146  10.359  17.612  0.00  0.00    +0.000 N 
ATOM     19  C   UNL     1       8.973  11.362  18.065  0.00  0.00    +0.000 A 
ATOM     20  N   UNL     1       8.757  12.626  17.776  0.00  0.00    +0.000 NA
ATOM     21  C   UNL     1       9.722  13.417  18.392  0.00  0.00    +0.000 A 
ATOM     22  C   UNL     1       9.800  14.829  18.366  0.00  0.00    +0.000 A 
ATOM     23  C   UNL     1      10.834  15.486  19.048  0.00  0.00    +0.000 A 
ATOM     24  C   UNL     1      11.787  14.759  19.754  0.00  0.00    +0.000 A 
ATOM     25  C   UNL     1      11.734  13.364  19.794  0.00  0.00    +0.000 A 
ATOM     26  C   UNL     1      10.693  12.717  19.109  0.00  0.00    +0.000 A 
ATOM     27  S   UNL     1      10.369  11.037  18.983  0.00  0.00    +0.000 S 
ATOM     28  H   UNL     1       7.386  10.685  17.030  0.00  0.00    +0.000 HD
ENDBRANCH  15  16
ENDBRANCH   1  15
TORSDOF 4
ENDMDL
MODEL 7
REMARK VINA RESULT:      -8.4      5.361      8.083
REMARK  Name = 
REMARK  6 active torsions:
REMARK  status: ('A' for Active; 'I' for Inactive)
REMARK    1  A    between atoms: C_1  and  C_2
REMARK    2  A    between atoms: C_4  and  C_5
REMARK    3  A    between atoms: C_7  and  N_8
REMARK    4  A    between atoms: C_12  and  S_13
REMARK    5  A    between atoms: S_13  and  C_14
REMARK    6  A    between atoms: C_14  and  C_15
REMARK                            x       y       z     vdW  Elec       q    Type
REMARK                         _______ _______ _______ _____ _____    ______ ____
ROOT
ATOM      1  S   UNL     1       1.967   5.472  18.186  0.00  0.00    +0.000 S 
ENDROOT
BRANCH   1   6
ATOM      2  N   UNL     1       4.216   3.980  18.830  0.00  0.00    +0.000 N 
ATOM      3  C   UNL     1       4.479   2.887  19.638  0.00  0.00    +0.000 A 
ATOM      4  C   UNL     1       3.369   2.713  20.427  0.00  0.00    +0.000 A 
ATOM      5  N   UNL     1       2.391   3.606  20.094  0.00  0.00    +0.000 NA
ATOM      6  C   UNL     1       2.898   4.332  19.118  0.00  0.00    +0.000 A 
BRANCH   2  13
ATOM      7  C   UNL     1       8.000   7.121  18.184  0.00  0.00    +0.000 C 
ATOM      8  C   UNL     1       7.060   6.094  17.625  0.00  0.00    +0.000 A 
ATOM      9  C   UNL     1       7.181   5.635  16.309  0.00  0.00    +0.000 A 
ATOM     10  C   UNL     1       6.313   4.657  15.812  0.00  0.00    +0.000 A 
ATOM     11  C   UNL     1       6.464   4.130  14.414  0.00  0.00    +0.000 C 
ATOM     12  C   UNL     1       5.310   4.141  16.645  0.00  0.00    +0.000 A 
ATOM     13  C   UNL     1       5.178   4.587  17.969  0.00  0.00    +0.000 A 
ATOM     14  C   UNL     1       6.059   5.562  18.449  0.00  0.00    +0.000 A 
ENDBRANCH   2  13
ENDBRANCH   1   6
BRANCH   1  15
ATOM     15  C   UNL     1       3.023   6.944  18.207  0.00  0.00    +0.000 C 
BRANCH  15  16
ATOM     16  C   UNL     1       2.178   8.187  18.476  0.00  0.00    +0.000 C 
ATOM     17  O   UNL     1       2.057   9.041  17.596  0.00  0.00    +0.000 OA
ATOM     18  N   UNL     1       1.587   8.210  19.726  0.00  0.00    +0.000 N 
ATOM     19  C   UNL     1       0.763   9.199  20.216  0.00  0.00    +0.000 A 
ATOM     20  N   UNL     1       0.457   9.282  21.492  0.00  0.00    +0.000 NA
ATOM     21  C   UNL     1      -0.355  10.391  21.707  0.00  0.00    +0.000 A 
ATOM     22  C   UNL     1      -0.850  10.848  22.950  0.00  0.00    +0.000 A 
ATOM     23  C   UNL     1      -1.655  11.995  23.004  0.00  0.00    +0.000 A 
ATOM     24  C   UNL     1      -1.972  12.690  21.841  0.00  0.00    +0.000 A 
ATOM     25  C   UNL     1      -1.498  12.258  20.600  0.00  0.00    +0.000 A 
ATOM     26  C   UNL     1      -0.691  11.111  20.559  0.00  0.00    +0.000 A 
ATOM     27  S   UNL     1       0.033  10.353  19.200  0.00  0.00    +0.000 S 
ATOM     28  H   UNL     1       1.907   7.557  20.429  0.00  0.00    +0.000 HD
ENDBRANCH  15  16
ENDBRANCH   1  15
TORSDOF 4
ENDMDL
MODEL 8
REMARK VINA RESULT:      -8.3      1.119      1.897
REMARK  Name = 
REMARK  6 active torsions:
REMARK  status: ('A' for Active; 'I' for Inactive)
REMARK    1  A    between atoms: C_1  and  C_2
REMARK    2  A    between atoms: C_4  and  C_5
REMARK    3  A    between atoms: C_7  and  N_8
REMARK    4  A    between atoms: C_12  and  S_13
REMARK    5  A    between atoms: S_13  and  C_14
REMARK    6  A    between atoms: C_14  and  C_15
REMARK                            x       y       z     vdW  Elec       q    Type
REMARK                         _______ _______ _______ _____ _____    ______ ____
ROOT
ATOM      1  S   UNL     1       7.377   6.335  17.681  0.00  0.00    +0.000 S 
ENDROOT
BRANCH   1   6
ATOM      2  N   UNL     1       5.590   4.985  16.043  0.00  0.00    +0.000 N 
ATOM      3  C   UNL     1       5.677   4.286  14.850  0.00  0.00    +0.000 A 
ATOM      4  C   UNL     1       6.913   4.569  14.325  0.00  0.00    +0.000 A 
ATOM      5  N   UNL     1       7.634   5.357  15.175  0.00  0.00    +0.000 NA
ATOM      6  C   UNL     1       6.846   5.568  16.210  0.00  0.00    +0.000 A 
BRANCH   2  13
ATOM      7  C   UNL     1       1.875   2.780  18.479  0.00  0.00    +0.000 C 
ATOM      8  C   UNL     1       2.586   4.033  18.062  0.00  0.00    +0.000 A 
ATOM      9  C   UNL     1       2.177   5.289  18.521  0.00  0.00    +0.000 A 
ATOM     10  C   UNL     1       2.868   6.446  18.144  0.00  0.00    +0.000 A 
ATOM     11  C   UNL     1       2.460   7.794  18.666  0.00  0.00    +0.000 C 
ATOM     12  C   UNL     1       3.977   6.338  17.292  0.00  0.00    +0.000 A 
ATOM     13  C   UNL     1       4.403   5.084  16.827  0.00  0.00    +0.000 A 
ATOM     14  C   UNL     1       3.702   3.939  17.219  0.00  0.00    +0.000 A 
ENDBRANCH   2  13
ENDBRANCH   1   6
BRANCH   1  15
ATOM     15  C   UNL     1       7.036   8.084  17.352  0.00  0.00    +0.000 C 
BRANCH  15  16
ATOM     16  C   UNL     1       8.071   8.958  18.055  0.00  0.00    +0.000 C 
ATOM     17  O   UNL     1       8.802   8.462  18.913  0.00  0.00    +0.000 OA
ATOM     18  N   UNL     1       8.100  10.268  17.612  0.00  0.00    +0.000 N 
ATOM     19  C   UNL     1       8.947  11.257  18.060  0.00  0.00    +0.000 A 
ATOM     20  N   UNL     1       8.740  12.527  17.787  0.00  0.00    +0.000 NA
ATOM     21  C   UNL     1       9.725  13.301  18.394  0.00  0.00    +0.000 A 
ATOM     22  C   UNL     1       9.818  14.712  18.380  0.00  0.00    +0.000 A 
ATOM     23  C   UNL     1      10.872  15.350  19.050  0.00  0.00    +0.000 A 
ATOM     24  C   UNL     1      11.828  14.605  19.732  0.00  0.00    +0.000 A 
ATOM     25  C   UNL     1      11.760  13.211  19.760  0.00  0.00    +0.000 A 
ATOM     26  C   UNL     1      10.700  12.583  19.088  0.00  0.00    +0.000 A 
ATOM     27  S   UNL     1      10.354  10.908  18.951  0.00  0.00    +0.000 S 
ATOM     28  H   UNL     1       7.334  10.609  17.047  0.00  0.00    +0.000 HD
ENDBRANCH  15  16
ENDBRANCH   1  15
TORSDOF 4
ENDMDL
MODEL 9
REMARK VINA RESULT:      -8.2      6.063      8.187
REMARK  Name = 
REMARK  6 active torsions:
REMARK  status: ('A' for Active; 'I' for Inactive)
REMARK    1  A    between atoms: C_1  and  C_2
REMARK    2  A    between atoms: C_4  and  C_5
REMARK    3  A    between atoms: C_7  and  N_8
REMARK    4  A    between atoms: C_12  and  S_13
REMARK    5  A    between atoms: S_13  and  C_14
REMARK    6  A    between atoms: C_14  and  C_15
REMARK                            x       y       z     vdW  Elec       q    Type
REMARK                         _______ _______ _______ _____ _____    ______ ____
ROOT
ATOM      1  S   UNL     1       1.983   5.748  17.913  0.00  0.00    +0.000 S 
ENDROOT
BRANCH   1   6
ATOM      2  N   UNL     1       3.550   3.459  17.915  0.00  0.00    +0.000 N 
ATOM      3  C   UNL     1       3.335   2.114  18.169  0.00  0.00    +0.000 A 
ATOM      4  C   UNL     1       2.100   2.025  18.761  0.00  0.00    +0.000 A 
ATOM      5  N   UNL     1       1.498   3.250  18.819  0.00  0.00    +0.000 NA
ATOM      6  C   UNL     1       2.360   4.088  18.281  0.00  0.00    +0.000 A 
BRANCH   2  13
ATOM      7  C   UNL     1       7.981   5.471  18.873  0.00  0.00    +0.000 C 
ATOM      8  C   UNL     1       6.981   4.953  17.881  0.00  0.00    +0.000 A 
ATOM      9  C   UNL     1       7.279   4.879  16.517  0.00  0.00    +0.000 A 
ATOM     10  C   UNL     1       6.345   4.368  15.609  0.00  0.00    +0.000 A 
ATOM     11  C   UNL     1       6.674   4.247  14.149  0.00  0.00    +0.000 C 
ATOM     12  C   UNL     1       5.098   3.933  16.078  0.00  0.00    +0.000 A 
ATOM     13  C   UNL     1       4.784   3.996  17.445  0.00  0.00    +0.000 A 
ATOM     14  C   UNL     1       5.733   4.506  18.337  0.00  0.00    +0.000 A 
ENDBRANCH   2  13
ENDBRANCH   1   6
BRANCH   1  15
ATOM     15  C   UNL     1       2.891   6.647  19.197  0.00  0.00    +0.000 C 
BRANCH  15  16
ATOM     16  C   UNL     1       1.911   7.334  20.145  0.00  0.00    +0.000 C 
ATOM     17  O   UNL     1       1.463   6.714  21.110  0.00  0.00    +0.000 OA
ATOM     18  N   UNL     1       1.640   8.652  19.821  0.00  0.00    +0.000 N 
ATOM     19  C   UNL     1       0.811   9.504  20.516  0.00  0.00    +0.000 A 
ATOM     20  N   UNL     1       0.399  10.644  20.007  0.00  0.00    +0.000 NA
ATOM     21  C   UNL     1      -0.451  11.278  20.908  0.00  0.00    +0.000 A 
ATOM     22  C   UNL     1      -1.138  12.497  20.706  0.00  0.00    +0.000 A 
ATOM     23  C   UNL     1      -1.971  13.005  21.714  0.00  0.00    +0.000 A 
ATOM     24  C   UNL     1      -2.128  12.319  22.913  0.00  0.00    +0.000 A 
ATOM     25  C   UNL     1      -1.459  11.114  23.138  0.00  0.00    +0.000 A 
ATOM     26  C   UNL     1      -0.630  10.613  22.122  0.00  0.00    +0.000 A 
ATOM     27  S   UNL     1       0.304   9.174  22.107  0.00  0.00    +0.000 S 
ATOM     28  H   UNL     1       1.910   8.995  18.909  0.00  0.00    +0.000 HD
ENDBRANCH  15  16
ENDBRANCH   1  15
TORSDOF 4
ENDMDL
