MODEL 1
REMARK VINA RESULT:      -7.3      0.000      0.000
REMARK  Name = 
REMARK  5 active torsions:
REMARK  status: ('A' for Active; 'I' for Inactive)
REMARK    1  A    between atoms: C_1  and  C_2
REMARK    2  A    between atoms: C_5  and  C_6
REMARK    3  A    between atoms: C_7  and  C_8
REMARK    4  A    between atoms: C_13  and  C_14
REMARK    5  A    between atoms: N_15  and  O_16
REMARK                            x       y       z     vdW  Elec       q    Type
REMARK                         _______ _______ _______ _____ _____    ______ ____
ROOT
ATOM      1  C   UNL     1       5.270   5.832  17.381  0.00  0.00    +0.000 A 
ATOM      2  N   UNL     1       4.881   5.712  16.080  0.00  0.00    +0.000 NA
ATOM      3  C   UNL     1       5.709   5.080  15.222  0.00  0.00    +0.000 A 
ATOM      4  C   UNL     1       6.929   4.547  15.592  0.00  0.00    +0.000 A 
ATOM      5  C   UNL     1       7.318   4.662  16.922  0.00  0.00    +0.000 A 
ATOM      6  C   UNL     1       6.482   5.310  17.840  0.00  0.00    +0.000 A 
ENDROOT
BRANCH   1   8
ATOM      7  C   UNL     1       3.249   7.213  17.722  0.00  0.00    +0.000 C 
ATOM      8  C   UNL     1       4.326   6.586  18.226  0.00  0.00    +0.000 C 
BRANCH   7  13
ATOM      9  C   UNL     1      -0.354  10.414  20.932  0.00  0.00    +0.000 C 
ATOM     10  C   UNL     1       0.565   9.579  20.092  0.00  0.00    +0.000 A 
ATOM     11  C   UNL     1       1.200   8.451  20.620  0.00  0.00    +0.000 A 
ATOM     12  C   UNL     1       2.067   7.693  19.829  0.00  0.00    +0.000 A 
ATOM     13  C   UNL     1       2.308   8.038  18.493  0.00  0.00    +0.000 A 
ATOM     14  C   UNL     1       1.677   9.172  17.970  0.00  0.00    +0.000 A 
ATOM     15  C   UNL     1       0.808   9.932  18.761  0.00  0.00    +0.000 A 
ENDBRANCH   7  13
ENDBRANCH   1   8
BRANCH   6  16
ATOM     16  C   UNL     1       6.879   5.373  19.260  0.00  0.00    +0.000 C 
ATOM     17  N   UNL     1       8.119   5.298  19.636  0.00  0.00    +0.000 NA
BRANCH  17  18
ATOM     18  O   UNL     1       8.171   5.365  21.033  0.00  0.00    +0.000 OA
ATOM     19  H   UNL     1       7.370   4.878  21.299  0.00  0.00    +0.000 HD
ENDBRANCH  17  18
ENDBRANCH   6  16
TORSDOF 4
ENDMDL
MODEL 2
REMARK VINA RESULT:      -7.3      4.456      5.592
REMARK  Name = 
REMARK  5 active torsions:
REMARK  status: ('A' for Active; 'I' for Inactive)
REMARK    1  A    between atoms: C_1  and  C_2
REMARK    2  A    between atoms: C_5  and  C_6
REMARK    3  A    between atoms: C_7  and  C_8
REMARK    4  A    between atoms: C_13  and  C_14
REMARK    5  A    between atoms: N_15  and  O_16
REMARK                            x       y       z     vdW  Elec       q    Type
REMARK                         _______ _______ _______ _____ _____    ______ ____
ROOT
ATOM      1  C   UNL     1       6.814   6.810  17.283  0.00  0.00    +0.000 A 
ATOM      2  N   UNL     1       6.044   6.965  16.169  0.00  0.00    +0.000 NA
ATOM      3  C   UNL     1       5.724   5.865  15.456  0.00  0.00    +0.000 A 
ATOM      4  C   UNL     1       6.133   4.590  15.795  0.00  0.00    +0.000 A 
ATOM      5  C   UNL     1       6.910   4.434  16.938  0.00  0.00    +0.000 A 
ATOM      6  C   UNL     1       7.260   5.554  17.703  0.00  0.00    +0.000 A 
ENDROOT
BRANCH   1   8
ATOM      7  C   UNL     1       8.219   8.817  17.603  0.00  0.00    +0.000 C 
ATOM      8  C   UNL     1       7.158   8.073  17.960  0.00  0.00    +0.000 C 
BRANCH   7  13
ATOM      9  C   UNL     1      10.093  13.548  20.367  0.00  0.00    +0.000 C 
ATOM     10  C   UNL     1       9.592  12.329  19.653  0.00  0.00    +0.000 A 
ATOM     11  C   UNL     1       9.637  11.070  20.258  0.00  0.00    +0.000 A 
ATOM     12  C   UNL     1       9.181   9.941  19.573  0.00  0.00    +0.000 A 
ATOM     13  C   UNL     1       8.660  10.047  18.277  0.00  0.00    +0.000 A 
ATOM     14  C   UNL     1       8.624  11.308  17.672  0.00  0.00    +0.000 A 
ATOM     15  C   UNL     1       9.079  12.440  18.356  0.00  0.00    +0.000 A 
ENDBRANCH   7  13
ENDBRANCH   1   8
BRANCH   6  16
ATOM     16  C   UNL     1       8.035   5.368  18.945  0.00  0.00    +0.000 C 
ATOM     17  N   UNL     1       7.468   5.305  20.112  0.00  0.00    +0.000 NA
BRANCH  17  18
ATOM     18  O   UNL     1       8.460   5.149  21.087  0.00  0.00    +0.000 OA
ATOM     19  H   UNL     1       9.168   5.737  20.765  0.00  0.00    +0.000 HD
ENDBRANCH  17  18
ENDBRANCH   6  16
TORSDOF 4
ENDMDL
MODEL 3
REMARK VINA RESULT:      -7.3      4.402      5.649
REMARK  Name = 
REMARK  5 active torsions:
REMARK  status: ('A' for Active; 'I' for Inactive)
REMARK    1  A    between atoms: C_1  and  C_2
REMARK    2  A    between atoms: C_5  and  C_6
REMARK    3  A    between atoms: C_7  and  C_8
REMARK    4  A    between atoms: C_13  and  C_14
REMARK    5  A    between atoms: N_15  and  O_16
REMARK                            x       y       z     vdW  Elec       q    Type
REMARK                         _______ _______ _______ _____ _____    ______ ____
ROOT
ATOM      1  C   UNL     1       6.662   6.832  17.108  0.00  0.00    +0.000 A 
ATOM      2  N   UNL     1       5.893   6.869  15.984  0.00  0.00    +0.000 NA
ATOM      3  C   UNL     1       5.561   5.700  15.399  0.00  0.00    +0.000 A 
ATOM      4  C   UNL     1       5.958   4.466  15.879  0.00  0.00    +0.000 A 
ATOM      5  C   UNL     1       6.734   4.432  17.032  0.00  0.00    +0.000 A 
ATOM      6  C   UNL     1       7.096   5.627  17.667  0.00  0.00    +0.000 A 
ENDROOT
BRANCH   1   8
ATOM      7  C   UNL     1       8.294   8.565  17.771  0.00  0.00    +0.000 C 
ATOM      8  C   UNL     1       7.019   8.160  17.640  0.00  0.00    +0.000 C 
BRANCH   7  13
ATOM      9  C   UNL     1       9.831  13.696  19.973  0.00  0.00    +0.000 C 
ATOM     10  C   UNL     1       9.450  12.364  19.401  0.00  0.00    +0.000 A 
ATOM     11  C   UNL     1       8.853  12.265  18.141  0.00  0.00    +0.000 A 
ATOM     12  C   UNL     1       8.488  11.017  17.629  0.00  0.00    +0.000 A 
ATOM     13  C   UNL     1       8.723   9.844  18.357  0.00  0.00    +0.000 A 
ATOM     14  C   UNL     1       9.314   9.948  19.621  0.00  0.00    +0.000 A 
ATOM     15  C   UNL     1       9.680  11.196  20.135  0.00  0.00    +0.000 A 
ENDBRANCH   7  13
ENDBRANCH   1   8
BRANCH   6  16
ATOM     16  C   UNL     1       7.870   5.574  18.922  0.00  0.00    +0.000 C 
ATOM     17  N   UNL     1       7.332   5.235  20.054  0.00  0.00    +0.000 NA
BRANCH  17  18
ATOM     18  O   UNL     1       8.308   5.300  21.054  0.00  0.00    +0.000 OA
ATOM     19  H   UNL     1       8.122   4.502  21.583  0.00  0.00    +0.000 HD
ENDBRANCH  17  18
ENDBRANCH   6  16
TORSDOF 4
ENDMDL
MODEL 4
REMARK VINA RESULT:      -7.2      0.573      1.259
REMARK  Name = 
REMARK  5 active torsions:
REMARK  status: ('A' for Active; 'I' for Inactive)
REMARK    1  A    between atoms: C_1  and  C_2
REMARK    2  A    between atoms: C_5  and  C_6
REMARK    3  A    between atoms: C_7  and  C_8
REMARK    4  A    between atoms: C_13  and  C_14
REMARK    5  A    between atoms: N_15  and  O_16
REMARK                            x       y       z     vdW  Elec       q    Type
REMARK                         _______ _______ _______ _____ _____    ______ ____
ROOT
ATOM      1  C   UNL     1       5.433   6.104  16.727  0.00  0.00    +0.000 A 
ATOM      2  N   UNL     1       4.991   5.783  15.478  0.00  0.00    +0.000 NA
ATOM      3  C   UNL     1       5.715   4.907  14.751  0.00  0.00    +0.000 A 
ATOM      4  C   UNL     1       6.878   4.316  15.204  0.00  0.00    +0.000 A 
ATOM      5  C   UNL     1       7.320   4.637  16.483  0.00  0.00    +0.000 A 
ATOM      6  C   UNL     1       6.593   5.542  17.267  0.00  0.00    +0.000 A 
ENDROOT
BRANCH   1   8
ATOM      7  C   UNL     1       3.381   6.834  17.894  0.00  0.00    +0.000 C 
ATOM      8  C   UNL     1       4.608   7.110  17.420  0.00  0.00    +0.000 C 
BRANCH   7  13
ATOM      9  C   UNL     1      -0.258  10.695  20.215  0.00  0.00    +0.000 C 
ATOM     10  C   UNL     1       0.697   9.702  19.624  0.00  0.00    +0.000 A 
ATOM     11  C   UNL     1       1.152   9.833  18.309  0.00  0.00    +0.000 A 
ATOM     12  C   UNL     1       2.029   8.889  17.768  0.00  0.00    +0.000 A 
ATOM     13  C   UNL     1       2.478   7.804  18.531  0.00  0.00    +0.000 A 
ATOM     14  C   UNL     1       2.014   7.671  19.844  0.00  0.00    +0.000 A 
ATOM     15  C   UNL     1       1.136   8.616  20.388  0.00  0.00    +0.000 A 
ENDBRANCH   7  13
ENDBRANCH   1   8
BRANCH   6  16
ATOM     16  C   UNL     1       7.040   5.829  18.643  0.00  0.00    +0.000 C 
ATOM     17  N   UNL     1       7.837   5.035  19.292  0.00  0.00    +0.000 NA
BRANCH  17  18
ATOM     18  O   UNL     1       8.058   5.564  20.569  0.00  0.00    +0.000 OA
ATOM     19  H   UNL     1       7.998   6.524  20.413  0.00  0.00    +0.000 HD
ENDBRANCH  17  18
ENDBRANCH   6  16
TORSDOF 4
ENDMDL
MODEL 5
REMARK VINA RESULT:      -7.1      4.880      6.509
REMARK  Name = 
REMARK  5 active torsions:
REMARK  status: ('A' for Active; 'I' for Inactive)
REMARK    1  A    between atoms: C_1  and  C_2
REMARK    2  A    between atoms: C_5  and  C_6
REMARK    3  A    between atoms: C_7  and  C_8
REMARK    4  A    between atoms: C_13  and  C_14
REMARK    5  A    between atoms: N_15  and  O_16
REMARK                            x       y       z     vdW  Elec       q    Type
REMARK                         _______ _______ _______ _____ _____    ______ ____
ROOT
ATOM      1  C   UNL     1       7.330   7.126  17.645  0.00  0.00    +0.000 A 
ATOM      2  N   UNL     1       6.492   7.591  16.676  0.00  0.00    +0.000 NA
ATOM      3  C   UNL     1       5.520   6.772  16.225  0.00  0.00    +0.000 A 
ATOM      4  C   UNL     1       5.326   5.486  16.694  0.00  0.00    +0.000 A 
ATOM      5  C   UNL     1       6.176   5.018  17.691  0.00  0.00    +0.000 A 
ATOM      6  C   UNL     1       7.195   5.843  18.184  0.00  0.00    +0.000 A 
ENDROOT
BRANCH   1   8
ATOM      7  C   UNL     1       8.133   9.341  18.388  0.00  0.00    +0.000 C 
ATOM      8  C   UNL     1       8.393   8.072  18.031  0.00  0.00    +0.000 C 
BRANCH   7  13
ATOM      9  C   UNL     1      12.071  13.438  19.503  0.00  0.00    +0.000 C 
ATOM     10  C   UNL     1      11.063  12.365  19.220  0.00  0.00    +0.000 A 
ATOM     11  C   UNL     1      10.719  12.027  17.908  0.00  0.00    +0.000 A 
ATOM     12  C   UNL     1       9.765  11.036  17.661  0.00  0.00    +0.000 A 
ATOM     13  C   UNL     1       9.145  10.356  18.716  0.00  0.00    +0.000 A 
ATOM     14  C   UNL     1       9.486  10.703  20.028  0.00  0.00    +0.000 A 
ATOM     15  C   UNL     1      10.441  11.694  20.277  0.00  0.00    +0.000 A 
ENDBRANCH   7  13
ENDBRANCH   1   8
BRANCH   6  16
ATOM     16  C   UNL     1       8.052   5.356  19.282  0.00  0.00    +0.000 C 
ATOM     17  N   UNL     1       7.673   5.389  20.523  0.00  0.00    +0.000 NA
BRANCH  17  18
ATOM     18  O   UNL     1       8.704   4.882  21.323  0.00  0.00    +0.000 OA
ATOM     19  H   UNL     1       9.377   4.629  20.665  0.00  0.00    +0.000 HD
ENDBRANCH  17  18
ENDBRANCH   6  16
TORSDOF 4
ENDMDL
MODEL 6
REMARK VINA RESULT:      -7.0      4.741      6.406
REMARK  Name = 
REMARK  5 active torsions:
REMARK  status: ('A' for Active; 'I' for Inactive)
REMARK    1  A    between atoms: C_1  and  C_2
REMARK    2  A    between atoms: C_5  and  C_6
REMARK    3  A    between atoms: C_7  and  C_8
REMARK    4  A    between atoms: C_13  and  C_14
REMARK    5  A    between atoms: N_15  and  O_16
REMARK                            x       y       z     vdW  Elec       q    Type
REMARK                         _______ _______ _______ _____ _____    ______ ____
ROOT
ATOM      1  C   UNL     1       6.957   7.302  17.350  0.00  0.00    +0.000 A 
ATOM      2  N   UNL     1       6.044   7.593  16.380  0.00  0.00    +0.000 NA
ATOM      3  C   UNL     1       5.058   6.703  16.145  0.00  0.00    +0.000 A 
ATOM      4  C   UNL     1       4.923   5.512  16.833  0.00  0.00    +0.000 A 
ATOM      5  C   UNL     1       5.851   5.223  17.829  0.00  0.00    +0.000 A 
ATOM      6  C   UNL     1       6.886   6.126  18.102  0.00  0.00    +0.000 A 
ENDROOT
BRANCH   1   8
ATOM      7  C   UNL     1       8.175   9.047  18.606  0.00  0.00    +0.000 C 
ATOM      8  C   UNL     1       8.027   8.307  17.494  0.00  0.00    +0.000 C 
BRANCH   7  13
ATOM      9  C   UNL     1      12.146  13.160  19.523  0.00  0.00    +0.000 C 
ATOM     10  C   UNL     1      11.107  12.107  19.279  0.00  0.00    +0.000 A 
ATOM     11  C   UNL     1      10.418  11.515  20.341  0.00  0.00    +0.000 A 
ATOM     12  C   UNL     1       9.464  10.523  20.098  0.00  0.00    +0.000 A 
ATOM     13  C   UNL     1       9.171  10.112  18.791  0.00  0.00    +0.000 A 
ATOM     14  C   UNL     1       9.870  10.701  17.732  0.00  0.00    +0.000 A 
ATOM     15  C   UNL     1      10.824  11.695  17.973  0.00  0.00    +0.000 A 
ENDBRANCH   7  13
ENDBRANCH   1   8
BRANCH   6  16
ATOM     16  C   UNL     1       7.829   5.835  19.200  0.00  0.00    +0.000 C 
ATOM     17  N   UNL     1       7.470   5.185  20.265  0.00  0.00    +0.000 NA
BRANCH  17  18
ATOM     18  O   UNL     1       8.571   5.088  21.125  0.00  0.00    +0.000 OA
ATOM     19  H   UNL     1       8.171   4.737  21.942  0.00  0.00    +0.000 HD
ENDBRANCH  17  18
ENDBRANCH   6  16
TORSDOF 4
ENDMDL
MODEL 7
REMARK VINA RESULT:      -6.9      2.514      3.077
REMARK  Name = 
REMARK  5 active torsions:
REMARK  status: ('A' for Active; 'I' for Inactive)
REMARK    1  A    between atoms: C_1  and  C_2
REMARK    2  A    between atoms: C_5  and  C_6
REMARK    3  A    between atoms: C_7  and  C_8
REMARK    4  A    between atoms: C_13  and  C_14
REMARK    5  A    between atoms: N_15  and  O_16
REMARK                            x       y       z     vdW  Elec       q    Type
REMARK                         _______ _______ _______ _____ _____    ______ ____
ROOT
ATOM      1  C   UNL     1       4.154   5.407  17.139  0.00  0.00    +0.000 A 
ATOM      2  N   UNL     1       4.863   6.280  16.369  0.00  0.00    +0.000 NA
ATOM      3  C   UNL     1       5.736   5.777  15.472  0.00  0.00    +0.000 A 
ATOM      4  C   UNL     1       5.950   4.424  15.292  0.00  0.00    +0.000 A 
ATOM      5  C   UNL     1       5.217   3.535  16.072  0.00  0.00    +0.000 A 
ATOM      6  C   UNL     1       4.300   4.023  17.012  0.00  0.00    +0.000 A 
ENDROOT
BRANCH   1   8
ATOM      7  C   UNL     1       2.908   7.344  18.035  0.00  0.00    +0.000 C 
ATOM      8  C   UNL     1       3.270   6.053  18.127  0.00  0.00    +0.000 C 
BRANCH   7  13
ATOM      9  C   UNL     1      -0.435  10.272  21.747  0.00  0.00    +0.000 C 
ATOM     10  C   UNL     1       0.444   9.519  20.795  0.00  0.00    +0.000 A 
ATOM     11  C   UNL     1       0.647   9.972  19.489  0.00  0.00    +0.000 A 
ATOM     12  C   UNL     1       1.456   9.249  18.608  0.00  0.00    +0.000 A 
ATOM     13  C   UNL     1       2.089   8.069  19.017  0.00  0.00    +0.000 A 
ATOM     14  C   UNL     1       1.878   7.614  20.324  0.00  0.00    +0.000 A 
ATOM     15  C   UNL     1       1.068   8.337  21.207  0.00  0.00    +0.000 A 
ENDBRANCH   7  13
ENDBRANCH   1   8
BRANCH   6  16
ATOM     16  C   UNL     1       3.488   3.070  17.792  0.00  0.00    +0.000 C 
ATOM     17  N   UNL     1       2.364   2.593  17.348  0.00  0.00    +0.000 NA
BRANCH  17  18
ATOM     18  O   UNL     1       1.824   1.739  18.317  0.00  0.00    +0.000 OA
ATOM     19  H   UNL     1       1.658   0.923  17.810  0.00  0.00    +0.000 HD
ENDBRANCH  17  18
ENDBRANCH   6  16
TORSDOF 4
ENDMDL
MODEL 8
REMARK VINA RESULT:      -6.8      4.263      5.773
REMARK  Name = 
REMARK  5 active torsions:
REMARK  status: ('A' for Active; 'I' for Inactive)
REMARK    1  A    between atoms: C_1  and  C_2
REMARK    2  A    between atoms: C_5  and  C_6
REMARK    3  A    between atoms: C_7  and  C_8
REMARK    4  A    between atoms: C_13  and  C_14
REMARK    5  A    between atoms: N_15  and  O_16
REMARK                            x       y       z     vdW  Elec       q    Type
REMARK                         _______ _______ _______ _____ _____    ______ ____
ROOT
ATOM      1  C   UNL     1       6.921   6.001  17.043  0.00  0.00    +0.000 A 
ATOM      2  N   UNL     1       7.512   5.784  15.835  0.00  0.00    +0.000 NA
ATOM      3  C   UNL     1       7.042   4.780  15.066  0.00  0.00    +0.000 A 
ATOM      4  C   UNL     1       5.993   3.961  15.437  0.00  0.00    +0.000 A 
ATOM      5  C   UNL     1       5.385   4.192  16.666  0.00  0.00    +0.000 A 
ATOM      6  C   UNL     1       5.846   5.227  17.489  0.00  0.00    +0.000 A 
ENDROOT
BRANCH   1   8
ATOM      7  C   UNL     1       7.683   8.330  17.360  0.00  0.00    +0.000 C 
ATOM      8  C   UNL     1       7.541   7.081  17.834  0.00  0.00    +0.000 C 
BRANCH   7  13
ATOM      9  C   UNL     1      10.177  12.812  20.048  0.00  0.00    +0.000 C 
ATOM     10  C   UNL     1       9.547  11.645  19.349  0.00  0.00    +0.000 A 
ATOM     11  C   UNL     1       8.879  11.809  18.131  0.00  0.00    +0.000 A 
ATOM     12  C   UNL     1       8.283  10.715  17.500  0.00  0.00    +0.000 A 
ATOM     13  C   UNL     1       8.352   9.435  18.063  0.00  0.00    +0.000 A 
ATOM     14  C   UNL     1       9.014   9.275  19.286  0.00  0.00    +0.000 A 
ATOM     15  C   UNL     1       9.612  10.370  19.919  0.00  0.00    +0.000 A 
ENDBRANCH   7  13
ENDBRANCH   1   8
BRANCH   6  16
ATOM     16  C   UNL     1       5.155   5.500  18.765  0.00  0.00    +0.000 C 
ATOM     17  N   UNL     1       3.864   5.618  18.841  0.00  0.00    +0.000 NA
BRANCH  17  18
ATOM     18  O   UNL     1       3.515   5.893  20.168  0.00  0.00    +0.000 OA
ATOM     19  H   UNL     1       2.557   5.710  20.177  0.00  0.00    +0.000 HD
ENDBRANCH  17  18
ENDBRANCH   6  16
TORSDOF 4
ENDMDL
MODEL 9
REMARK VINA RESULT:      -6.8      2.690      3.314
REMARK  Name = 
REMARK  5 active torsions:
REMARK  status: ('A' for Active; 'I' for Inactive)
REMARK    1  A    between atoms: C_1  and  C_2
REMARK    2  A    between atoms: C_5  and  C_6
REMARK    3  A    between atoms: C_7  and  C_8
REMARK    4  A    between atoms: C_13  and  C_14
REMARK    5  A    between atoms: N_15  and  O_16
REMARK                            x       y       z     vdW  Elec       q    Type
REMARK                         _______ _______ _______ _____ _____    ______ ____
ROOT
ATOM      1  C   UNL     1       3.551   6.084  17.816  0.00  0.00    +0.000 A 
ATOM      2  N   UNL     1       4.379   6.943  17.157  0.00  0.00    +0.000 NA
ATOM      3  C   UNL     1       5.230   6.434  16.242  0.00  0.00    +0.000 A 
ATOM      4  C   UNL     1       5.307   5.088  15.937  0.00  0.00    +0.000 A 
ATOM      5  C   UNL     1       4.454   4.216  16.604  0.00  0.00    +0.000 A 
ATOM      6  C   UNL     1       3.556   4.711  17.559  0.00  0.00    +0.000 A 
ENDROOT
BRANCH   1   8
ATOM      7  C   UNL     1       2.201   7.965  18.679  0.00  0.00    +0.000 C 
ATOM      8  C   UNL     1       2.700   6.727  18.834  0.00  0.00    +0.000 C 
BRANCH   7  13
ATOM      9  C   UNL     1      -0.799  10.763  22.767  0.00  0.00    +0.000 C 
ATOM     10  C   UNL     1      -0.037  10.034  21.701  0.00  0.00    +0.000 A 
ATOM     11  C   UNL     1       0.671   8.865  21.993  0.00  0.00    +0.000 A 
ATOM     12  C   UNL     1       1.390   8.206  20.992  0.00  0.00    +0.000 A 
ATOM     13  C   UNL     1       1.406   8.693  19.679  0.00  0.00    +0.000 A 
ATOM     14  C   UNL     1       0.703   9.868  19.392  0.00  0.00    +0.000 A 
ATOM     15  C   UNL     1      -0.018  10.528  20.393  0.00  0.00    +0.000 A 
ENDBRANCH   7  13
ENDBRANCH   1   8
BRANCH   6  16
ATOM     16  C   UNL     1       2.615   3.783  18.217  0.00  0.00    +0.000 C 
ATOM     17  N   UNL     1       1.476   3.460  17.685  0.00  0.00    +0.000 NA
BRANCH  17  18
ATOM     18  O   UNL     1       0.806   2.588  18.551  0.00  0.00    +0.000 OA
ATOM     19  H   UNL     1      -0.071   2.506  18.133  0.00  0.00    +0.000 HD
ENDBRANCH  17  18
ENDBRANCH   6  16
TORSDOF 4
ENDMDL
