MODEL 1
REMARK VINA RESULT:      -8.4      0.000      0.000
REMARK  Name = 
REMARK  5 active torsions:
REMARK  status: ('A' for Active; 'I' for Inactive)
REMARK    1  A    between atoms: C_2  and  C_3
REMARK    2  A    between atoms: C_3  and  C_4
REMARK    3  A    between atoms: N_10  and  C_11
REMARK    4  A    between atoms: C_16  and  C_17
REMARK    5  A    between atoms: N_19  and  O_20
REMARK                            x       y       z     vdW  Elec       q    Type
REMARK                         _______ _______ _______ _____ _____    ______ ____
ROOT
ATOM      1  C   UNL     1       6.697   7.076  17.386  0.00  0.00    +0.000 A 
ATOM      2  C   UNL     1       7.490   5.937  17.559  0.00  0.00    +0.000 A 
ATOM      3  C   UNL     1       6.942   4.667  17.755  0.00  0.00    +0.000 A 
ATOM      4  C   UNL     1       5.560   4.593  17.782  0.00  0.00    +0.000 A 
ATOM      5  O   UNL     1       4.860   3.449  17.967  0.00  0.00    +0.000 OA
ATOM      6  C   UNL     1       3.532   3.775  17.948  0.00  0.00    +0.000 A 
ATOM      7  C   UNL     1       3.395   5.139  17.738  0.00  0.00    +0.000 A 
ATOM      8  C   UNL     1       4.712   5.681  17.635  0.00  0.00    +0.000 A 
ATOM      9  C   UNL     1       5.291   6.958  17.437  0.00  0.00    +0.000 A 
ENDROOT
BRANCH   1  12
ATOM     10  O   UNL     1       8.809   8.393  18.954  0.00  0.00    +0.000 OA
ATOM     11  C   UNL     1       8.207   8.954  18.037  0.00  0.00    +0.000 C 
ATOM     12  N   UNL     1       7.271   8.358  17.198  0.00  0.00    +0.000 N 
ATOM     13  H   UNL     1       7.060   8.837  16.331  0.00  0.00    +0.000 HD
BRANCH  11  14
ATOM     14  C   UNL     1       8.475  10.417  17.741  0.00  0.00    +0.000 C 
BRANCH  14  15
ATOM     15  C   UNL     1       9.609  10.995  18.550  0.00  0.00    +0.000 A 
ATOM     16  C   UNL     1       9.436  11.260  19.914  0.00  0.00    +0.000 A 
ATOM     17  C   UNL     1      10.478  11.806  20.666  0.00  0.00    +0.000 A 
ATOM     18  C   UNL     1      11.706  12.080  20.065  0.00  0.00    +0.000 A 
ATOM     19  C   UNL     1      11.900  11.789  18.717  0.00  0.00    +0.000 A 
ATOM     20  C   UNL     1      10.861  11.241  17.964  0.00  0.00    +0.000 A 
ENDBRANCH  14  15
ENDBRANCH  11  14
ENDBRANCH   1  12
BRANCH   6  21
ATOM     21  C   UNL     1       2.571   2.714  18.146  0.00  0.00    +0.000 C 
ATOM     22  O   UNL     1       2.848   1.516  18.184  0.00  0.00    +0.000 OA
ATOM     23  N   UNL     1       1.276   3.156  18.287  0.00  0.00    +0.000 N 
ATOM     24  H   UNL     1       1.022   4.139  18.266  0.00  0.00    +0.000 HD
BRANCH  23  25
ATOM     25  O   UNL     1       0.252   2.204  18.470  0.00  0.00    +0.000 OA
ATOM     26  H   UNL     1       0.159   1.821  17.571  0.00  0.00    +0.000 HD
ENDBRANCH  23  25
ENDBRANCH   6  21
TORSDOF 5
ENDMDL
MODEL 2
REMARK VINA RESULT:      -8.4      0.188      1.024
REMARK  Name = 
REMARK  5 active torsions:
REMARK  status: ('A' for Active; 'I' for Inactive)
REMARK    1  A    between atoms: C_2  and  C_3
REMARK    2  A    between atoms: C_3  and  C_4
REMARK    3  A    between atoms: N_10  and  C_11
REMARK    4  A    between atoms: C_16  and  C_17
REMARK    5  A    between atoms: N_19  and  O_20
REMARK                            x       y       z     vdW  Elec       q    Type
REMARK                         _______ _______ _______ _____ _____    ______ ____
ROOT
ATOM      1  C   UNL     1       6.762   7.124  17.427  0.00  0.00    +0.000 A 
ATOM      2  C   UNL     1       7.512   5.997  17.778  0.00  0.00    +0.000 A 
ATOM      3  C   UNL     1       6.926   4.747  17.994  0.00  0.00    +0.000 A 
ATOM      4  C   UNL     1       5.551   4.681  17.854  0.00  0.00    +0.000 A 
ATOM      5  O   UNL     1       4.818   3.557  18.030  0.00  0.00    +0.000 OA
ATOM      6  C   UNL     1       3.507   3.887  17.822  0.00  0.00    +0.000 A 
ATOM      7  C   UNL     1       3.416   5.232  17.501  0.00  0.00    +0.000 A 
ATOM      8  C   UNL     1       4.742   5.759  17.525  0.00  0.00    +0.000 A 
ATOM      9  C   UNL     1       5.358   7.016  17.311  0.00  0.00    +0.000 A 
ENDROOT
BRANCH   1  12
ATOM     10  O   UNL     1       8.845   8.442  19.031  0.00  0.00    +0.000 OA
ATOM     11  C   UNL     1       8.290   8.987  18.076  0.00  0.00    +0.000 C 
ATOM     12  N   UNL     1       7.372   8.387  17.221  0.00  0.00    +0.000 N 
ATOM     13  H   UNL     1       7.203   8.843  16.333  0.00  0.00    +0.000 HD
BRANCH  11  14
ATOM     14  C   UNL     1       8.603  10.435  17.745  0.00  0.00    +0.000 C 
BRANCH  14  15
ATOM     15  C   UNL     1       9.684  11.028  18.613  0.00  0.00    +0.000 A 
ATOM     16  C   UNL     1      10.939  11.327  18.068  0.00  0.00    +0.000 A 
ATOM     17  C   UNL     1      11.948  11.866  18.869  0.00  0.00    +0.000 A 
ATOM     18  C   UNL     1      11.708  12.123  20.218  0.00  0.00    +0.000 A 
ATOM     19  C   UNL     1      10.453  11.861  20.763  0.00  0.00    +0.000 A 
ATOM     20  C   UNL     1       9.444  11.325  19.964  0.00  0.00    +0.000 A 
ENDBRANCH  14  15
ENDBRANCH  11  14
ENDBRANCH   1  12
BRANCH   6  21
ATOM     21  C   UNL     1       2.515   2.848  17.974  0.00  0.00    +0.000 C 
ATOM     22  O   UNL     1       2.707   1.655  17.740  0.00  0.00    +0.000 OA
ATOM     23  N   UNL     1       1.292   3.304  18.408  0.00  0.00    +0.000 N 
ATOM     24  H   UNL     1       1.109   4.282  18.615  0.00  0.00    +0.000 HD
BRANCH  23  25
ATOM     25  O   UNL     1       0.243   2.377  18.576  0.00  0.00    +0.000 OA
ATOM     26  H   UNL     1      -0.521   2.852  18.183  0.00  0.00    +0.000 HD
ENDBRANCH  23  25
ENDBRANCH   6  21
TORSDOF 5
ENDMDL
MODEL 3
REMARK VINA RESULT:      -8.1      5.473      8.121
REMARK  Name = 
REMARK  5 active torsions:
REMARK  status: ('A' for Active; 'I' for Inactive)
REMARK    1  A    between atoms: C_2  and  C_3
REMARK    2  A    between atoms: C_3  and  C_4
REMARK    3  A    between atoms: N_10  and  C_11
REMARK    4  A    between atoms: C_16  and  C_17
REMARK    5  A    between atoms: N_19  and  O_20
REMARK                            x       y       z     vdW  Elec       q    Type
REMARK                         _______ _______ _______ _____ _____    ______ ____
ROOT
ATOM      1  C   UNL     1       2.559   7.177  18.655  0.00  0.00    +0.000 A 
ATOM      2  C   UNL     1       2.245   8.209  17.765  0.00  0.00    +0.000 A 
ATOM      3  C   UNL     1       1.523   9.340  18.156  0.00  0.00    +0.000 A 
ATOM      4  C   UNL     1       1.120   9.383  19.480  0.00  0.00    +0.000 A 
ATOM      5  O   UNL     1       0.410  10.396  20.030  0.00  0.00    +0.000 OA
ATOM      6  C   UNL     1       0.190  10.076  21.341  0.00  0.00    +0.000 A 
ATOM      7  C   UNL     1       0.777   8.852  21.622  0.00  0.00    +0.000 A 
ATOM      8  C   UNL     1       1.381   8.390  20.413  0.00  0.00    +0.000 A 
ATOM      9  C   UNL     1       2.114   7.254  19.993  0.00  0.00    +0.000 A 
ENDROOT
BRANCH   1  12
ATOM     10  O   UNL     1       1.527   4.625  17.620  0.00  0.00    +0.000 OA
ATOM     11  C   UNL     1       2.722   4.823  17.843  0.00  0.00    +0.000 C 
ATOM     12  N   UNL     1       3.284   6.033  18.238  0.00  0.00    +0.000 N 
ATOM     13  H   UNL     1       4.284   6.135  18.123  0.00  0.00    +0.000 HD
BRANCH  11  14
ATOM     14  C   UNL     1       3.720   3.692  17.677  0.00  0.00    +0.000 C 
BRANCH  14  15
ATOM     15  C   UNL     1       4.969   4.097  16.938  0.00  0.00    +0.000 A 
ATOM     16  C   UNL     1       4.937   4.282  15.550  0.00  0.00    +0.000 A 
ATOM     17  C   UNL     1       6.093   4.647  14.858  0.00  0.00    +0.000 A 
ATOM     18  C   UNL     1       7.289   4.842  15.548  0.00  0.00    +0.000 A 
ATOM     19  C   UNL     1       7.326   4.694  16.932  0.00  0.00    +0.000 A 
ATOM     20  C   UNL     1       6.170   4.333  17.626  0.00  0.00    +0.000 A 
ENDBRANCH  14  15
ENDBRANCH  11  14
ENDBRANCH   1  12
BRANCH   6  21
ATOM     21  C   UNL     1      -0.573  11.003  22.145  0.00  0.00    +0.000 C 
ATOM     22  O   UNL     1      -0.591  11.013  23.376  0.00  0.00    +0.000 OA
ATOM     23  N   UNL     1      -1.312  11.901  21.410  0.00  0.00    +0.000 N 
ATOM     24  H   UNL     1      -1.310  11.918  20.395  0.00  0.00    +0.000 HD
BRANCH  23  25
ATOM     25  O   UNL     1      -2.108  12.843  22.093  0.00  0.00    +0.000 OA
ATOM     26  H   UNL     1      -2.640  13.233  21.367  0.00  0.00    +0.000 HD
ENDBRANCH  23  25
ENDBRANCH   6  21
TORSDOF 5
ENDMDL
MODEL 4
REMARK VINA RESULT:      -8.1      5.441      8.103
REMARK  Name = 
REMARK  5 active torsions:
REMARK  status: ('A' for Active; 'I' for Inactive)
REMARK    1  A    between atoms: C_2  and  C_3
REMARK    2  A    between atoms: C_3  and  C_4
REMARK    3  A    between atoms: N_10  and  C_11
REMARK    4  A    between atoms: C_16  and  C_17
REMARK    5  A    between atoms: N_19  and  O_20
REMARK                            x       y       z     vdW  Elec       q    Type
REMARK                         _______ _______ _______ _____ _____    ______ ____
ROOT
ATOM      1  C   UNL     1       2.555   7.124  18.646  0.00  0.00    +0.000 A 
ATOM      2  C   UNL     1       2.209   8.186  17.805  0.00  0.00    +0.000 A 
ATOM      3  C   UNL     1       1.520   9.310  18.265  0.00  0.00    +0.000 A 
ATOM      4  C   UNL     1       1.183   9.316  19.608  0.00  0.00    +0.000 A 
ATOM      5  O   UNL     1       0.513  10.318  20.223  0.00  0.00    +0.000 OA
ATOM      6  C   UNL     1       0.354   9.960  21.533  0.00  0.00    +0.000 A 
ATOM      7  C   UNL     1       0.941   8.723  21.747  0.00  0.00    +0.000 A 
ATOM      8  C   UNL     1       1.479   8.293  20.497  0.00  0.00    +0.000 A 
ATOM      9  C   UNL     1       2.178   7.163  20.007  0.00  0.00    +0.000 A 
ENDROOT
BRANCH   1  12
ATOM     10  O   UNL     1       1.447   4.592  17.640  0.00  0.00    +0.000 OA
ATOM     11  C   UNL     1       2.655   4.784  17.782  0.00  0.00    +0.000 C 
ATOM     12  N   UNL     1       3.246   5.986  18.159  0.00  0.00    +0.000 N 
ATOM     13  H   UNL     1       4.237   6.089  17.976  0.00  0.00    +0.000 HD
BRANCH  11  14
ATOM     14  C   UNL     1       3.635   3.655  17.527  0.00  0.00    +0.000 C 
BRANCH  14  15
ATOM     15  C   UNL     1       4.908   4.105  16.856  0.00  0.00    +0.000 A 
ATOM     16  C   UNL     1       6.075   4.285  17.609  0.00  0.00    +0.000 A 
ATOM     17  C   UNL     1       7.253   4.713  16.995  0.00  0.00    +0.000 A 
ATOM     18  C   UNL     1       7.281   4.953  15.622  0.00  0.00    +0.000 A 
ATOM     19  C   UNL     1       6.135   4.745  14.857  0.00  0.00    +0.000 A 
ATOM     20  C   UNL     1       4.957   4.314  15.469  0.00  0.00    +0.000 A 
ENDBRANCH  14  15
ENDBRANCH  11  14
ENDBRANCH   1  12
BRANCH   6  21
ATOM     21  C   UNL     1      -0.358  10.869  22.403  0.00  0.00    +0.000 C 
ATOM     22  O   UNL     1      -0.940  10.539  23.435  0.00  0.00    +0.000 OA
ATOM     23  N   UNL     1      -0.344  12.175  21.974  0.00  0.00    +0.000 N 
ATOM     24  H   UNL     1       0.134  12.475  21.129  0.00  0.00    +0.000 HD
BRANCH  23  25
ATOM     25  O   UNL     1      -1.022  13.147  22.738  0.00  0.00    +0.000 OA
ATOM     26  H   UNL     1      -0.287  13.585  23.220  0.00  0.00    +0.000 HD
ENDBRANCH  23  25
ENDBRANCH   6  21
TORSDOF 5
ENDMDL
MODEL 5
REMARK VINA RESULT:      -7.9      1.303      1.666
REMARK  Name = 
REMARK  5 active torsions:
REMARK  status: ('A' for Active; 'I' for Inactive)
REMARK    1  A    between atoms: C_2  and  C_3
REMARK    2  A    between atoms: C_3  and  C_4
REMARK    3  A    between atoms: N_10  and  C_11
REMARK    4  A    between atoms: C_16  and  C_17
REMARK    5  A    between atoms: N_19  and  O_20
REMARK                            x       y       z     vdW  Elec       q    Type
REMARK                         _______ _______ _______ _____ _____    ______ ____
ROOT
ATOM      1  C   UNL     1       7.556   7.610  17.876  0.00  0.00    +0.000 A 
ATOM      2  C   UNL     1       8.238   6.777  18.768  0.00  0.00    +0.000 A 
ATOM      3  C   UNL     1       7.721   5.550  19.189  0.00  0.00    +0.000 A 
ATOM      4  C   UNL     1       6.481   5.200  18.683  0.00  0.00    +0.000 A 
ATOM      5  O   UNL     1       5.828   4.053  18.985  0.00  0.00    +0.000 OA
ATOM      6  C   UNL     1       4.638   4.071  18.311  0.00  0.00    +0.000 A 
ATOM      7  C   UNL     1       4.546   5.237  17.568  0.00  0.00    +0.000 A 
ATOM      8  C   UNL     1       5.740   5.982  17.808  0.00  0.00    +0.000 A 
ATOM      9  C   UNL     1       6.285   7.223  17.396  0.00  0.00    +0.000 A 
ENDROOT
BRANCH   1  12
ATOM     10  O   UNL     1       9.012   9.599  19.479  0.00  0.00    +0.000 OA
ATOM     11  C   UNL     1       8.692   9.790  18.306  0.00  0.00    +0.000 C 
ATOM     12  N   UNL     1       8.091   8.857  17.467  0.00  0.00    +0.000 N 
ATOM     13  H   UNL     1       8.131   9.041  16.472  0.00  0.00    +0.000 HD
BRANCH  11  14
ATOM     14  C   UNL     1       8.961  11.136  17.658  0.00  0.00    +0.000 C 
BRANCH  14  15
ATOM     15  C   UNL     1       9.903  12.006  18.452  0.00  0.00    +0.000 A 
ATOM     16  C   UNL     1      11.287  11.832  18.336  0.00  0.00    +0.000 A 
ATOM     17  C   UNL     1      12.164  12.626  19.077  0.00  0.00    +0.000 A 
ATOM     18  C   UNL     1      11.667  13.611  19.930  0.00  0.00    +0.000 A 
ATOM     19  C   UNL     1      10.292  13.816  20.027  0.00  0.00    +0.000 A 
ATOM     20  C   UNL     1       9.415  13.024  19.286  0.00  0.00    +0.000 A 
ENDBRANCH  14  15
ENDBRANCH  11  14
ENDBRANCH   1  12
BRANCH   6  21
ATOM     21  C   UNL     1       3.743   2.951  18.488  0.00  0.00    +0.000 C 
ATOM     22  O   UNL     1       3.785   2.162  19.432  0.00  0.00    +0.000 OA
ATOM     23  N   UNL     1       2.809   2.820  17.486  0.00  0.00    +0.000 N 
ATOM     24  H   UNL     1       2.748   3.461  16.701  0.00  0.00    +0.000 HD
BRANCH  23  25
ATOM     25  O   UNL     1       1.893   1.751  17.549  0.00  0.00    +0.000 OA
ATOM     26  H   UNL     1       1.160   2.069  16.979  0.00  0.00    +0.000 HD
ENDBRANCH  23  25
ENDBRANCH   6  21
TORSDOF 5
ENDMDL
MODEL 6
REMARK VINA RESULT:      -7.9      7.554     10.369
REMARK  Name = 
REMARK  5 active torsions:
REMARK  status: ('A' for Active; 'I' for Inactive)
REMARK    1  A    between atoms: C_2  and  C_3
REMARK    2  A    between atoms: C_3  and  C_4
REMARK    3  A    between atoms: N_10  and  C_11
REMARK    4  A    between atoms: C_16  and  C_17
REMARK    5  A    between atoms: N_19  and  O_20
REMARK                            x       y       z     vdW  Elec       q    Type
REMARK                         _______ _______ _______ _____ _____    ______ ____
ROOT
ATOM      1  C   UNL     1       0.983   9.291  20.403  0.00  0.00    +0.000 A 
ATOM      2  C   UNL     1       0.547  10.209  19.443  0.00  0.00    +0.000 A 
ATOM      3  C   UNL     1      -0.380  11.212  19.735  0.00  0.00    +0.000 A 
ATOM      4  C   UNL     1      -0.859  11.247  21.033  0.00  0.00    +0.000 A 
ATOM      5  O   UNL     1      -1.763  12.144  21.490  0.00  0.00    +0.000 OA
ATOM      6  C   UNL     1      -1.999  11.853  22.805  0.00  0.00    +0.000 A 
ATOM      7  C   UNL     1      -1.227  10.765  23.182  0.00  0.00    +0.000 A 
ATOM      8  C   UNL     1      -0.484  10.360  22.032  0.00  0.00    +0.000 A 
ATOM      9  C   UNL     1       0.456   9.351  21.713  0.00  0.00    +0.000 A 
ENDROOT
BRANCH   1  12
ATOM     10  O   UNL     1       1.809   8.313  17.755  0.00  0.00    +0.000 OA
ATOM     11  C   UNL     1       2.192   7.800  18.807  0.00  0.00    +0.000 C 
ATOM     12  N   UNL     1       1.917   8.273  20.087  0.00  0.00    +0.000 N 
ATOM     13  H   UNL     1       2.504   7.933  20.839  0.00  0.00    +0.000 HD
BRANCH  11  14
ATOM     14  C   UNL     1       3.051   6.550  18.771  0.00  0.00    +0.000 C 
BRANCH  14  15
ATOM     15  C   UNL     1       2.283   5.286  19.062  0.00  0.00    +0.000 A 
ATOM     16  C   UNL     1       1.902   4.981  20.374  0.00  0.00    +0.000 A 
ATOM     17  C   UNL     1       1.200   3.806  20.651  0.00  0.00    +0.000 A 
ATOM     18  C   UNL     1       0.862   2.932  19.619  0.00  0.00    +0.000 A 
ATOM     19  C   UNL     1       1.206   3.242  18.305  0.00  0.00    +0.000 A 
ATOM     20  C   UNL     1       1.905   4.417  18.026  0.00  0.00    +0.000 A 
ENDBRANCH  14  15
ENDBRANCH  11  14
ENDBRANCH   1  12
BRANCH   6  21
ATOM     21  C   UNL     1      -2.955  12.668  23.519  0.00  0.00    +0.000 C 
ATOM     22  O   UNL     1      -2.948  13.898  23.542  0.00  0.00    +0.000 OA
ATOM     23  N   UNL     1      -3.905  11.944  24.201  0.00  0.00    +0.000 N 
ATOM     24  H   UNL     1      -3.937  10.929  24.194  0.00  0.00    +0.000 HD
BRANCH  23  25
ATOM     25  O   UNL     1      -4.880  12.638  24.947  0.00  0.00    +0.000 OA
ATOM     26  H   UNL     1      -4.377  13.412  25.280  0.00  0.00    +0.000 HD
ENDBRANCH  23  25
ENDBRANCH   6  21
TORSDOF 5
ENDMDL
MODEL 7
REMARK VINA RESULT:      -7.8      5.137      7.430
REMARK  Name = 
REMARK  5 active torsions:
REMARK  status: ('A' for Active; 'I' for Inactive)
REMARK    1  A    between atoms: C_2  and  C_3
REMARK    2  A    between atoms: C_3  and  C_4
REMARK    3  A    between atoms: N_10  and  C_11
REMARK    4  A    between atoms: C_16  and  C_17
REMARK    5  A    between atoms: N_19  and  O_20
REMARK                            x       y       z     vdW  Elec       q    Type
REMARK                         _______ _______ _______ _____ _____    ______ ____
ROOT
ATOM      1  C   UNL     1       5.860   4.046  15.951  0.00  0.00    +0.000 A 
ATOM      2  C   UNL     1       6.623   4.461  17.047  0.00  0.00    +0.000 A 
ATOM      3  C   UNL     1       6.100   4.530  18.340  0.00  0.00    +0.000 A 
ATOM      4  C   UNL     1       4.770   4.173  18.484  0.00  0.00    +0.000 A 
ATOM      5  O   UNL     1       4.098   4.185  19.658  0.00  0.00    +0.000 OA
ATOM      6  C   UNL     1       2.815   3.788  19.400  0.00  0.00    +0.000 A 
ATOM      7  C   UNL     1       2.681   3.514  18.048  0.00  0.00    +0.000 A 
ATOM      8  C   UNL     1       3.948   3.767  17.441  0.00  0.00    +0.000 A 
ATOM      9  C   UNL     1       4.501   3.706  16.139  0.00  0.00    +0.000 A 
ENDROOT
BRANCH   1  12
ATOM     10  O   UNL     1       7.850   5.824  14.714  0.00  0.00    +0.000 OA
ATOM     11  C   UNL     1       7.279   4.925  14.096  0.00  0.00    +0.000 C 
ATOM     12  N   UNL     1       6.405   3.991  14.644  0.00  0.00    +0.000 N 
ATOM     13  H   UNL     1       6.224   3.156  14.101  0.00  0.00    +0.000 HD
BRANCH  11  14
ATOM     14  C   UNL     1       7.520   4.761  12.607  0.00  0.00    +0.000 C 
BRANCH  14  15
ATOM     15  C   UNL     1       6.828   3.559  12.016  0.00  0.00    +0.000 A 
ATOM     16  C   UNL     1       7.580   2.479  11.538  0.00  0.00    +0.000 A 
ATOM     17  C   UNL     1       6.945   1.368  10.980  0.00  0.00    +0.000 A 
ATOM     18  C   UNL     1       5.554   1.320  10.905  0.00  0.00    +0.000 A 
ATOM     19  C   UNL     1       4.794   2.374  11.408  0.00  0.00    +0.000 A 
ATOM     20  C   UNL     1       5.427   3.484  11.969  0.00  0.00    +0.000 A 
ENDBRANCH  14  15
ENDBRANCH  11  14
ENDBRANCH   1  12
BRANCH   6  21
ATOM     21  C   UNL     1       1.886   3.738  20.505  0.00  0.00    +0.000 C 
ATOM     22  O   UNL     1       0.951   4.522  20.671  0.00  0.00    +0.000 OA
ATOM     23  N   UNL     1       2.133   2.719  21.394  0.00  0.00    +0.000 N 
ATOM     24  H   UNL     1       2.893   2.055  21.277  0.00  0.00    +0.000 HD
BRANCH  23  25
ATOM     25  O   UNL     1       1.296   2.585  22.521  0.00  0.00    +0.000 OA
ATOM     26  H   UNL     1       0.765   3.410  22.487  0.00  0.00    +0.000 HD
ENDBRANCH  23  25
ENDBRANCH   6  21
TORSDOF 5
ENDMDL
MODEL 8
REMARK VINA RESULT:      -7.8      5.502      7.898
REMARK  Name = 
REMARK  5 active torsions:
REMARK  status: ('A' for Active; 'I' for Inactive)
REMARK    1  A    between atoms: C_2  and  C_3
REMARK    2  A    between atoms: C_3  and  C_4
REMARK    3  A    between atoms: N_10  and  C_11
REMARK    4  A    between atoms: C_16  and  C_17
REMARK    5  A    between atoms: N_19  and  O_20
REMARK                            x       y       z     vdW  Elec       q    Type
REMARK                         _______ _______ _______ _____ _____    ______ ____
ROOT
ATOM      1  C   UNL     1       2.420   7.396  18.512  0.00  0.00    +0.000 A 
ATOM      2  C   UNL     1       1.996   8.465  17.716  0.00  0.00    +0.000 A 
ATOM      3  C   UNL     1       1.286   9.549  18.237  0.00  0.00    +0.000 A 
ATOM      4  C   UNL     1       1.009   9.508  19.593  0.00  0.00    +0.000 A 
ATOM      5  O   UNL     1       0.329  10.466  20.263  0.00  0.00    +0.000 OA
ATOM      6  C   UNL     1       0.243  10.069  21.569  0.00  0.00    +0.000 A 
ATOM      7  C   UNL     1       0.886   8.851  21.724  0.00  0.00    +0.000 A 
ATOM      8  C   UNL     1       1.384   8.475  20.440  0.00  0.00    +0.000 A 
ATOM      9  C   UNL     1       2.103   7.386  19.889  0.00  0.00    +0.000 A 
ENDROOT
BRANCH   1  12
ATOM     10  O   UNL     1       1.469   4.661  17.997  0.00  0.00    +0.000 OA
ATOM     11  C   UNL     1       2.640   5.004  17.834  0.00  0.00    +0.000 C 
ATOM     12  N   UNL     1       3.132   6.299  17.965  0.00  0.00    +0.000 N 
ATOM     13  H   UNL     1       4.032   6.494  17.544  0.00  0.00    +0.000 HD
BRANCH  11  14
ATOM     14  C   UNL     1       3.682   3.974  17.441  0.00  0.00    +0.000 C 
BRANCH  14  15
ATOM     15  C   UNL     1       5.096   4.410  17.731  0.00  0.00    +0.000 A 
ATOM     16  C   UNL     1       5.448   4.847  19.014  0.00  0.00    +0.000 A 
ATOM     17  C   UNL     1       6.753   5.263  19.285  0.00  0.00    +0.000 A 
ATOM     18  C   UNL     1       7.720   5.233  18.282  0.00  0.00    +0.000 A 
ATOM     19  C   UNL     1       7.390   4.768  17.011  0.00  0.00    +0.000 A 
ATOM     20  C   UNL     1       6.087   4.349  16.739  0.00  0.00    +0.000 A 
ENDBRANCH  14  15
ENDBRANCH  11  14
ENDBRANCH   1  12
BRANCH   6  21
ATOM     21  C   UNL     1      -0.464  10.927  22.493  0.00  0.00    +0.000 C 
ATOM     22  O   UNL     1      -1.028  10.540  23.516  0.00  0.00    +0.000 OA
ATOM     23  N   UNL     1      -0.467  12.253  22.130  0.00  0.00    +0.000 N 
ATOM     24  H   UNL     1      -0.003  12.599  21.295  0.00  0.00    +0.000 HD
BRANCH  23  25
ATOM     25  O   UNL     1      -1.141  13.179  22.952  0.00  0.00    +0.000 OA
ATOM     26  H   UNL     1      -0.546  13.241  23.730  0.00  0.00    +0.000 HD
ENDBRANCH  23  25
ENDBRANCH   6  21
TORSDOF 5
ENDMDL
MODEL 9
REMARK VINA RESULT:      -7.8      5.709      8.269
REMARK  Name = 
REMARK  5 active torsions:
REMARK  status: ('A' for Active; 'I' for Inactive)
REMARK    1  A    between atoms: C_2  and  C_3
REMARK    2  A    between atoms: C_3  and  C_4
REMARK    3  A    between atoms: N_10  and  C_11
REMARK    4  A    between atoms: C_16  and  C_17
REMARK    5  A    between atoms: N_19  and  O_20
REMARK                            x       y       z     vdW  Elec       q    Type
REMARK                         _______ _______ _______ _____ _____    ______ ____
ROOT
ATOM      1  C   UNL     1       2.420   7.522  18.847  0.00  0.00    +0.000 A 
ATOM      2  C   UNL     1       2.144   8.410  17.803  0.00  0.00    +0.000 A 
ATOM      3  C   UNL     1       1.339   9.538  17.974  0.00  0.00    +0.000 A 
ATOM      4  C   UNL     1       0.811   9.729  19.239  0.00  0.00    +0.000 A 
ATOM      5  O   UNL     1       0.007  10.762  19.584  0.00  0.00    +0.000 OA
ATOM      6  C   UNL     1      -0.321  10.603  20.902  0.00  0.00    +0.000 A 
ATOM      7  C   UNL     1       0.292   9.461  21.395  0.00  0.00    +0.000 A 
ATOM      8  C   UNL     1       1.027   8.882  20.317  0.00  0.00    +0.000 A 
ATOM      9  C   UNL     1       1.847   7.745  20.119  0.00  0.00    +0.000 A 
ENDROOT
BRANCH   1  12
ATOM     10  O   UNL     1       1.642   4.864  17.855  0.00  0.00    +0.000 OA
ATOM     11  C   UNL     1       2.775   5.121  18.264  0.00  0.00    +0.000 C 
ATOM     12  N   UNL     1       3.232   6.376  18.653  0.00  0.00    +0.000 N 
ATOM     13  H   UNL     1       4.235   6.505  18.703  0.00  0.00    +0.000 HD
BRANCH  11  14
ATOM     14  C   UNL     1       3.811   4.017  18.362  0.00  0.00    +0.000 C 
BRANCH  14  15
ATOM     15  C   UNL     1       4.998   4.226  17.456  0.00  0.00    +0.000 A 
ATOM     16  C   UNL     1       6.264   4.473  18.000  0.00  0.00    +0.000 A 
ATOM     17  C   UNL     1       7.365   4.679  17.166  0.00  0.00    +0.000 A 
ATOM     18  C   UNL     1       7.213   4.627  15.781  0.00  0.00    +0.000 A 
ATOM     19  C   UNL     1       5.965   4.348  15.229  0.00  0.00    +0.000 A 
ATOM     20  C   UNL     1       4.864   4.140  16.061  0.00  0.00    +0.000 A 
ENDBRANCH  14  15
ENDBRANCH  11  14
ENDBRANCH   1  12
BRANCH   6  21
ATOM     21  C   UNL     1      -1.198  11.581  21.505  0.00  0.00    +0.000 C 
ATOM     22  O   UNL     1      -1.889  12.383  20.879  0.00  0.00    +0.000 OA
ATOM     23  N   UNL     1      -1.200  11.554  22.880  0.00  0.00    +0.000 N 
ATOM     24  H   UNL     1      -0.644  10.897  23.421  0.00  0.00    +0.000 HD
BRANCH  23  25
ATOM     25  O   UNL     1      -2.008  12.476  23.575  0.00  0.00    +0.000 OA
ATOM     26  H   UNL     1      -2.888  12.335  23.163  0.00  0.00    +0.000 HD
ENDBRANCH  23  25
ENDBRANCH   6  21
TORSDOF 5
ENDMDL
