MODEL 1
REMARK VINA RESULT:      -8.3      0.000      0.000
REMARK  Name = 
REMARK  7 active torsions:
REMARK  status: ('A' for Active; 'I' for Inactive)
REMARK    1  A    between atoms: C_1  and  O_2
REMARK    2  A    between atoms: O_2  and  C_3
REMARK    3  A    between atoms: C_8  and  N_9
REMARK    4  A    between atoms: C_10  and  C_12
REMARK    5  A    between atoms: C_13  and  N_14
REMARK    6  A    between atoms: N_14  and  O_15
REMARK    7  A    between atoms: C_17  and  C_18
REMARK                            x       y       z     vdW  Elec       q    Type
REMARK                         _______ _______ _______ _____ _____    ______ ____
ROOT
ATOM      1  C   UNL     1       2.339   7.325  18.972  0.00  0.00    +0.000 A 
ATOM      2  C   UNL     1       1.921   6.994  20.224  0.00  0.00    +0.000 A 
ATOM      3  C   UNL     1       1.186   7.978  20.993  0.00  0.00    +0.000 A 
ATOM      4  C   UNL     1       0.906   9.183  20.494  0.00  0.00    +0.000 A 
ATOM      5  O   UNL     1       1.239   9.515  19.171  0.00  0.00    +0.000 OA
ATOM      6  C   UNL     1       1.939   8.632  18.392  0.00  0.00    +0.000 A 
ATOM      7  O   UNL     1       2.239   8.933  17.239  0.00  0.00    +0.000 OA
ENDROOT
BRANCH   4   8
ATOM      8  C   UNL     1       0.270  10.246  21.294  0.00  0.00    +0.000 A 
ATOM      9  C   UNL     1       0.436  11.598  20.946  0.00  0.00    +0.000 A 
ATOM     10  C   UNL     1      -0.180  12.617  21.677  0.00  0.00    +0.000 A 
ATOM     11  C   UNL     1      -0.983  12.294  22.767  0.00  0.00    +0.000 A 
ATOM     12  C   UNL     1      -1.167  10.959  23.121  0.00  0.00    +0.000 A 
ATOM     13  C   UNL     1      -0.548   9.940  22.390  0.00  0.00    +0.000 A 
ENDBRANCH   4   8
BRANCH   1  15
ATOM     14  N   UNL     1       4.412   6.796  17.701  0.00  0.00    +0.000 N 
ATOM     15  C   UNL     1       3.183   6.361  18.181  0.00  0.00    +0.000 C 
ATOM     16  O   UNL     1       2.782   5.205  18.019  0.00  0.00    +0.000 OA
ATOM     17  H   UNL     1       4.739   7.735  17.922  0.00  0.00    +0.000 HD
BRANCH  14  23
ATOM     18  C   UNL     1       6.363   5.297  17.519  0.00  0.00    +0.000 A 
ATOM     19  C   UNL     1       7.239   4.537  16.721  0.00  0.00    +0.000 A 
ATOM     20  C   UNL     1       7.065   4.456  15.337  0.00  0.00    +0.000 A 
ATOM     21  C   UNL     1       6.035   5.147  14.734  0.00  0.00    +0.000 A 
ATOM     22  C   UNL     1       5.180   5.934  15.512  0.00  0.00    +0.000 A 
ATOM     23  C   UNL     1       5.311   6.012  16.909  0.00  0.00    +0.000 A 
BRANCH  18  25
ATOM     24  C   UNL     1       7.751   5.769  19.385  0.00  0.00    +0.000 C 
ATOM     25  O   UNL     1       6.472   5.367  18.891  0.00  0.00    +0.000 OA
ENDBRANCH  18  25
ENDBRANCH  14  23
ENDBRANCH   1  15
BRANCH   2  26
ATOM     26  N   UNL     1       2.174   5.817  20.933  0.00  0.00    +0.000 N 
ATOM     27  H   UNL     1       2.221   5.955  21.943  0.00  0.00    +0.000 HD
BRANCH  26  28
ATOM     28  O   UNL     1       1.351   4.714  20.670  0.00  0.00    +0.000 OA
ATOM     29  H   UNL     1       1.264   4.287  21.556  0.00  0.00    +0.000 HD
ENDBRANCH  26  28
ENDBRANCH   2  26
TORSDOF 6
ENDMDL
MODEL 2
REMARK VINA RESULT:      -7.7      0.756      1.210
REMARK  Name = 
REMARK  7 active torsions:
REMARK  status: ('A' for Active; 'I' for Inactive)
REMARK    1  A    between atoms: C_1  and  O_2
REMARK    2  A    between atoms: O_2  and  C_3
REMARK    3  A    between atoms: C_8  and  N_9
REMARK    4  A    between atoms: C_10  and  C_12
REMARK    5  A    between atoms: C_13  and  N_14
REMARK    6  A    between atoms: N_14  and  O_15
REMARK    7  A    between atoms: C_17  and  C_18
REMARK                            x       y       z     vdW  Elec       q    Type
REMARK                         _______ _______ _______ _____ _____    ______ ____
ROOT
ATOM      1  C   UNL     1       2.334   7.313  18.983  0.00  0.00    +0.000 A 
ATOM      2  C   UNL     1       1.933   7.005  20.248  0.00  0.00    +0.000 A 
ATOM      3  C   UNL     1       1.188   7.995  20.998  0.00  0.00    +0.000 A 
ATOM      4  C   UNL     1       0.883   9.183  20.473  0.00  0.00    +0.000 A 
ATOM      5  O   UNL     1       1.199   9.488  19.140  0.00  0.00    +0.000 OA
ATOM      6  C   UNL     1       1.906   8.598  18.375  0.00  0.00    +0.000 A 
ATOM      7  O   UNL     1       2.191   8.876  17.212  0.00  0.00    +0.000 OA
ENDROOT
BRANCH   4   8
ATOM      8  C   UNL     1       0.237  10.255  21.253  0.00  0.00    +0.000 A 
ATOM      9  C   UNL     1      -0.525   9.948  22.394  0.00  0.00    +0.000 A 
ATOM     10  C   UNL     1      -1.123  10.952  23.159  0.00  0.00    +0.000 A 
ATOM     11  C   UNL     1      -0.958  12.285  22.796  0.00  0.00    +0.000 A 
ATOM     12  C   UNL     1      -0.198  12.610  21.675  0.00  0.00    +0.000 A 
ATOM     13  C   UNL     1       0.398  11.603  20.908  0.00  0.00    +0.000 A 
ENDBRANCH   4   8
BRANCH   1  15
ATOM     14  N   UNL     1       4.342   6.818  17.600  0.00  0.00    +0.000 N 
ATOM     15  C   UNL     1       3.186   6.343  18.208  0.00  0.00    +0.000 C 
ATOM     16  O   UNL     1       2.861   5.154  18.171  0.00  0.00    +0.000 OA
ATOM     17  H   UNL     1       4.614   7.792  17.719  0.00  0.00    +0.000 HD
BRANCH  14  23
ATOM     18  C   UNL     1       6.626   6.070  17.043  0.00  0.00    +0.000 A 
ATOM     19  C   UNL     1       7.488   5.293  16.246  0.00  0.00    +0.000 A 
ATOM     20  C   UNL     1       6.985   4.462  15.241  0.00  0.00    +0.000 A 
ATOM     21  C   UNL     1       5.627   4.414  15.006  0.00  0.00    +0.000 A 
ATOM     22  C   UNL     1       4.765   5.209  15.768  0.00  0.00    +0.000 A 
ATOM     23  C   UNL     1       5.236   6.031  16.805  0.00  0.00    +0.000 A 
BRANCH  18  25
ATOM     24  C   UNL     1       7.764   8.054  17.674  0.00  0.00    +0.000 C 
ATOM     25  O   UNL     1       7.075   6.867  18.073  0.00  0.00    +0.000 OA
ENDBRANCH  18  25
ENDBRANCH  14  23
ENDBRANCH   1  15
BRANCH   2  26
ATOM     26  N   UNL     1       2.212   5.850  20.982  0.00  0.00    +0.000 N 
ATOM     27  H   UNL     1       2.299   6.020  21.985  0.00  0.00    +0.000 HD
BRANCH  26  28
ATOM     28  O   UNL     1       1.377   4.742  20.787  0.00  0.00    +0.000 OA
ATOM     29  H   UNL     1       1.988   3.979  20.926  0.00  0.00    +0.000 HD
ENDBRANCH  26  28
ENDBRANCH   2  26
TORSDOF 6
ENDMDL
MODEL 3
REMARK VINA RESULT:      -7.2      1.288      1.907
REMARK  Name = 
REMARK  7 active torsions:
REMARK  status: ('A' for Active; 'I' for Inactive)
REMARK    1  A    between atoms: C_1  and  O_2
REMARK    2  A    between atoms: O_2  and  C_3
REMARK    3  A    between atoms: C_8  and  N_9
REMARK    4  A    between atoms: C_10  and  C_12
REMARK    5  A    between atoms: C_13  and  N_14
REMARK    6  A    between atoms: N_14  and  O_15
REMARK    7  A    between atoms: C_17  and  C_18
REMARK                            x       y       z     vdW  Elec       q    Type
REMARK                         _______ _______ _______ _____ _____    ______ ____
ROOT
ATOM      1  C   UNL     1       2.581   7.209  19.297  0.00  0.00    +0.000 A 
ATOM      2  C   UNL     1       1.974   6.848  20.460  0.00  0.00    +0.000 A 
ATOM      3  C   UNL     1       1.021   7.761  21.058  0.00  0.00    +0.000 A 
ATOM      4  C   UNL     1       0.725   8.930  20.487  0.00  0.00    +0.000 A 
ATOM      5  O   UNL     1       1.262   9.284  19.239  0.00  0.00    +0.000 OA
ATOM      6  C   UNL     1       2.173   8.467  18.621  0.00  0.00    +0.000 A 
ATOM      7  O   UNL     1       2.650   8.788  17.535  0.00  0.00    +0.000 OA
ENDROOT
BRANCH   4   8
ATOM      8  C   UNL     1      -0.144   9.932  21.131  0.00  0.00    +0.000 A 
ATOM      9  C   UNL     1      -0.408   9.866  22.511  0.00  0.00    +0.000 A 
ATOM     10  C   UNL     1      -1.208  10.822  23.143  0.00  0.00    +0.000 A 
ATOM     11  C   UNL     1      -1.749  11.867  22.400  0.00  0.00    +0.000 A 
ATOM     12  C   UNL     1      -1.491  11.955  21.034  0.00  0.00    +0.000 A 
ATOM     13  C   UNL     1      -0.692  10.996  20.402  0.00  0.00    +0.000 A 
ENDBRANCH   4   8
BRANCH   1  15
ATOM     14  N   UNL     1       3.765   6.286  17.313  0.00  0.00    +0.000 N 
ATOM     15  C   UNL     1       3.642   6.326  18.696  0.00  0.00    +0.000 C 
ATOM     16  O   UNL     1       4.397   5.700  19.445  0.00  0.00    +0.000 OA
ATOM     17  H   UNL     1       3.171   6.877  16.733  0.00  0.00    +0.000 HD
BRANCH  14  23
ATOM     18  C   UNL     1       4.460   4.096  16.415  0.00  0.00    +0.000 A 
ATOM     19  C   UNL     1       5.395   3.315  15.708  0.00  0.00    +0.000 A 
ATOM     20  C   UNL     1       6.542   3.891  15.155  0.00  0.00    +0.000 A 
ATOM     21  C   UNL     1       6.780   5.239  15.319  0.00  0.00    +0.000 A 
ATOM     22  C   UNL     1       5.877   6.018  16.050  0.00  0.00    +0.000 A 
ATOM     23  C   UNL     1       4.700   5.475  16.593  0.00  0.00    +0.000 A 
BRANCH  18  25
ATOM     24  C   UNL     1       3.466   2.582  17.948  0.00  0.00    +0.000 C 
ATOM     25  O   UNL     1       3.296   3.577  16.936  0.00  0.00    +0.000 OA
ENDBRANCH  18  25
ENDBRANCH  14  23
ENDBRANCH   1  15
BRANCH   2  26
ATOM     26  N   UNL     1       2.202   5.706  21.232  0.00  0.00    +0.000 N 
ATOM     27  H   UNL     1       2.098   5.867  22.234  0.00  0.00    +0.000 HD
BRANCH  26  28
ATOM     28  O   UNL     1       1.499   4.543  20.891  0.00  0.00    +0.000 OA
ATOM     29  H   UNL     1       2.208   3.949  20.546  0.00  0.00    +0.000 HD
ENDBRANCH  26  28
ENDBRANCH   2  26
TORSDOF 6
ENDMDL
MODEL 4
REMARK VINA RESULT:      -7.1      2.730      8.982
REMARK  Name = 
REMARK  7 active torsions:
REMARK  status: ('A' for Active; 'I' for Inactive)
REMARK    1  A    between atoms: C_1  and  O_2
REMARK    2  A    between atoms: O_2  and  C_3
REMARK    3  A    between atoms: C_8  and  N_9
REMARK    4  A    between atoms: C_10  and  C_12
REMARK    5  A    between atoms: C_13  and  N_14
REMARK    6  A    between atoms: N_14  and  O_15
REMARK    7  A    between atoms: C_17  and  C_18
REMARK                            x       y       z     vdW  Elec       q    Type
REMARK                         _______ _______ _______ _____ _____    ______ ____
ROOT
ATOM      1  C   UNL     1       1.147   9.434  19.936  0.00  0.00    +0.000 A 
ATOM      2  C   UNL     1       1.476   9.268  18.626  0.00  0.00    +0.000 A 
ATOM      3  C   UNL     1       2.092   8.022  18.219  0.00  0.00    +0.000 A 
ATOM      4  C   UNL     1       2.326   7.043  19.094  0.00  0.00    +0.000 A 
ATOM      5  O   UNL     1       1.908   7.149  20.430  0.00  0.00    +0.000 OA
ATOM      6  C   UNL     1       1.324   8.304  20.882  0.00  0.00    +0.000 A 
ATOM      7  O   UNL     1       0.971   8.396  22.055  0.00  0.00    +0.000 OA
ENDROOT
BRANCH   4   8
ATOM      8  C   UNL     1       3.061   5.815  18.736  0.00  0.00    +0.000 A 
ATOM      9  C   UNL     1       2.515   4.897  17.821  0.00  0.00    +0.000 A 
ATOM     10  C   UNL     1       3.209   3.743  17.451  0.00  0.00    +0.000 A 
ATOM     11  C   UNL     1       4.469   3.494  17.987  0.00  0.00    +0.000 A 
ATOM     12  C   UNL     1       5.031   4.397  18.887  0.00  0.00    +0.000 A 
ATOM     13  C   UNL     1       4.334   5.552  19.259  0.00  0.00    +0.000 A 
ENDBRANCH   4   8
BRANCH   1  15
ATOM     14  N   UNL     1      -0.634  10.753  21.068  0.00  0.00    +0.000 N 
ATOM     15  C   UNL     1       0.590  10.750  20.411  0.00  0.00    +0.000 C 
ATOM     16  O   UNL     1       1.252  11.778  20.243  0.00  0.00    +0.000 OA
ATOM     17  H   UNL     1      -1.112   9.872  21.253  0.00  0.00    +0.000 HD
BRANCH  14  23
ATOM     18  C   UNL     1      -2.229  12.604  20.726  0.00  0.00    +0.000 A 
ATOM     19  C   UNL     1      -2.876  13.754  21.217  0.00  0.00    +0.000 A 
ATOM     20  C   UNL     1      -2.643  14.212  22.515  0.00  0.00    +0.000 A 
ATOM     21  C   UNL     1      -1.750  13.547  23.328  0.00  0.00    +0.000 A 
ATOM     22  C   UNL     1      -1.073  12.424  22.839  0.00  0.00    +0.000 A 
ATOM     23  C   UNL     1      -1.308  11.921  21.549  0.00  0.00    +0.000 A 
BRANCH  18  25
ATOM     24  C   UNL     1      -3.838  12.024  19.082  0.00  0.00    +0.000 C 
ATOM     25  O   UNL     1      -2.464  12.092  19.469  0.00  0.00    +0.000 OA
ENDBRANCH  18  25
ENDBRANCH  14  23
ENDBRANCH   1  15
BRANCH   2  26
ATOM     26  N   UNL     1       1.369  10.196  17.587  0.00  0.00    +0.000 N 
ATOM     27  H   UNL     1       0.462  10.662  17.553  0.00  0.00    +0.000 HD
BRANCH  26  28
ATOM     28  O   UNL     1       2.375  11.166  17.479  0.00  0.00    +0.000 OA
ATOM     29  H   UNL     1       3.138  10.745  17.942  0.00  0.00    +0.000 HD
ENDBRANCH  26  28
ENDBRANCH   2  26
TORSDOF 6
ENDMDL
MODEL 5
REMARK VINA RESULT:      -7.1      2.523      9.000
REMARK  Name = 
REMARK  7 active torsions:
REMARK  status: ('A' for Active; 'I' for Inactive)
REMARK    1  A    between atoms: C_1  and  O_2
REMARK    2  A    between atoms: O_2  and  C_3
REMARK    3  A    between atoms: C_8  and  N_9
REMARK    4  A    between atoms: C_10  and  C_12
REMARK    5  A    between atoms: C_13  and  N_14
REMARK    6  A    between atoms: N_14  and  O_15
REMARK    7  A    between atoms: C_17  and  C_18
REMARK                            x       y       z     vdW  Elec       q    Type
REMARK                         _______ _______ _______ _____ _____    ______ ____
ROOT
ATOM      1  C   UNL     1       1.234   9.664  19.868  0.00  0.00    +0.000 A 
ATOM      2  C   UNL     1       1.580   9.815  18.560  0.00  0.00    +0.000 A 
ATOM      3  C   UNL     1       2.231   8.713  17.883  0.00  0.00    +0.000 A 
ATOM      4  C   UNL     1       2.482   7.562  18.510  0.00  0.00    +0.000 A 
ATOM      5  O   UNL     1       2.049   7.345  19.827  0.00  0.00    +0.000 OA
ATOM      6  C   UNL     1       1.431   8.348  20.527  0.00  0.00    +0.000 A 
ATOM      7  O   UNL     1       1.065   8.156  21.684  0.00  0.00    +0.000 OA
ENDROOT
BRANCH   4   8
ATOM      8  C   UNL     1       3.252   6.470  17.886  0.00  0.00    +0.000 A 
ATOM      9  C   UNL     1       2.781   5.146  17.934  0.00  0.00    +0.000 A 
ATOM     10  C   UNL     1       3.484   4.103  17.328  0.00  0.00    +0.000 A 
ATOM     11  C   UNL     1       4.671   4.373  16.653  0.00  0.00    +0.000 A 
ATOM     12  C   UNL     1       5.149   5.680  16.586  0.00  0.00    +0.000 A 
ATOM     13  C   UNL     1       4.445   6.723  17.196  0.00  0.00    +0.000 A 
ENDBRANCH   4   8
BRANCH   1  15
ATOM     14  N   UNL     1      -0.739  10.851  20.813  0.00  0.00    +0.000 N 
ATOM     15  C   UNL     1       0.638  10.820  20.628  0.00  0.00    +0.000 C 
ATOM     16  O   UNL     1       1.388  11.678  21.099  0.00  0.00    +0.000 OA
ATOM     17  H   UNL     1      -1.314  10.082  20.473  0.00  0.00    +0.000 HD
BRANCH  14  23
ATOM     18  C   UNL     1      -1.831  13.063  20.787  0.00  0.00    +0.000 A 
ATOM     19  C   UNL     1      -2.530  14.078  21.467  0.00  0.00    +0.000 A 
ATOM     20  C   UNL     1      -2.884  13.934  22.810  0.00  0.00    +0.000 A 
ATOM     21  C   UNL     1      -2.527  12.792  23.495  0.00  0.00    +0.000 A 
ATOM     22  C   UNL     1      -1.800  11.792  22.841  0.00  0.00    +0.000 A 
ATOM     23  C   UNL     1      -1.456  11.894  21.483  0.00  0.00    +0.000 A 
BRANCH  18  25
ATOM     24  C   UNL     1      -0.432  14.038  19.138  0.00  0.00    +0.000 C 
ATOM     25  O   UNL     1      -1.503  13.145  19.452  0.00  0.00    +0.000 OA
ENDBRANCH  18  25
ENDBRANCH  14  23
ENDBRANCH   1  15
BRANCH   2  26
ATOM     26  N   UNL     1       1.458  10.957  17.764  0.00  0.00    +0.000 N 
ATOM     27  H   UNL     1       0.663  11.545  18.019  0.00  0.00    +0.000 HD
BRANCH  26  28
ATOM     28  O   UNL     1       2.590  11.771  17.623  0.00  0.00    +0.000 OA
ATOM     29  H   UNL     1       2.667  12.197  18.510  0.00  0.00    +0.000 HD
ENDBRANCH  26  28
ENDBRANCH   2  26
TORSDOF 6
ENDMDL
MODEL 6
REMARK VINA RESULT:      -7.1      2.591      8.970
REMARK  Name = 
REMARK  7 active torsions:
REMARK  status: ('A' for Active; 'I' for Inactive)
REMARK    1  A    between atoms: C_1  and  O_2
REMARK    2  A    between atoms: O_2  and  C_3
REMARK    3  A    between atoms: C_8  and  N_9
REMARK    4  A    between atoms: C_10  and  C_12
REMARK    5  A    between atoms: C_13  and  N_14
REMARK    6  A    between atoms: N_14  and  O_15
REMARK    7  A    between atoms: C_17  and  C_18
REMARK                            x       y       z     vdW  Elec       q    Type
REMARK                         _______ _______ _______ _____ _____    ______ ____
ROOT
ATOM      1  C   UNL     1       1.084   9.632  20.065  0.00  0.00    +0.000 A 
ATOM      2  C   UNL     1       1.209   9.718  18.712  0.00  0.00    +0.000 A 
ATOM      3  C   UNL     1       1.853   8.630  18.005  0.00  0.00    +0.000 A 
ATOM      4  C   UNL     1       2.308   7.554  18.649  0.00  0.00    +0.000 A 
ATOM      5  O   UNL     1       2.105   7.395  20.029  0.00  0.00    +0.000 OA
ATOM      6  C   UNL     1       1.507   8.389  20.759  0.00  0.00    +0.000 A 
ATOM      7  O   UNL     1       1.343   8.250  21.969  0.00  0.00    +0.000 OA
ENDROOT
BRANCH   4   8
ATOM      8  C   UNL     1       3.076   6.491  17.976  0.00  0.00    +0.000 A 
ATOM      9  C   UNL     1       4.291   6.785  17.332  0.00  0.00    +0.000 A 
ATOM     10  C   UNL     1       5.045   5.786  16.712  0.00  0.00    +0.000 A 
ATOM     11  C   UNL     1       4.595   4.469  16.735  0.00  0.00    +0.000 A 
ATOM     12  C   UNL     1       3.398   4.156  17.375  0.00  0.00    +0.000 A 
ATOM     13  C   UNL     1       2.643   5.158  17.994  0.00  0.00    +0.000 A 
ENDBRANCH   4   8
BRANCH   1  15
ATOM     14  N   UNL     1      -0.878  10.943  20.854  0.00  0.00    +0.000 N 
ATOM     15  C   UNL     1       0.502  10.783  20.842  0.00  0.00    +0.000 C 
ATOM     16  O   UNL     1       1.258  11.522  21.478  0.00  0.00    +0.000 OA
ATOM     17  H   UNL     1      -1.472  10.266  20.377  0.00  0.00    +0.000 HD
BRANCH  14  23
ATOM     18  C   UNL     1      -1.856  13.209  20.839  0.00  0.00    +0.000 A 
ATOM     19  C   UNL     1      -2.540  14.239  21.511  0.00  0.00    +0.000 A 
ATOM     20  C   UNL     1      -2.975  14.075  22.828  0.00  0.00    +0.000 A 
ATOM     21  C   UNL     1      -2.713  12.896  23.495  0.00  0.00    +0.000 A 
ATOM     22  C   UNL     1      -2.002  11.879  22.850  0.00  0.00    +0.000 A 
ATOM     23  C   UNL     1      -1.578  12.002  21.516  0.00  0.00    +0.000 A 
BRANCH  18  25
ATOM     24  C   UNL     1      -0.369  14.216  19.288  0.00  0.00    +0.000 C 
ATOM     25  O   UNL     1      -1.451  13.312  19.527  0.00  0.00    +0.000 OA
ENDBRANCH  18  25
ENDBRANCH  14  23
ENDBRANCH   1  15
BRANCH   2  26
ATOM     26  N   UNL     1       0.856  10.784  17.881  0.00  0.00    +0.000 N 
ATOM     27  H   UNL     1       1.302  10.747  16.964  0.00  0.00    +0.000 HD
BRANCH  26  28
ATOM     28  O   UNL     1      -0.510  11.042  17.704  0.00  0.00    +0.000 OA
ATOM     29  H   UNL     1      -0.940  10.331  18.236  0.00  0.00    +0.000 HD
ENDBRANCH  26  28
ENDBRANCH   2  26
TORSDOF 6
ENDMDL
MODEL 7
REMARK VINA RESULT:      -7.1      2.527      8.999
REMARK  Name = 
REMARK  7 active torsions:
REMARK  status: ('A' for Active; 'I' for Inactive)
REMARK    1  A    between atoms: C_1  and  O_2
REMARK    2  A    between atoms: O_2  and  C_3
REMARK    3  A    between atoms: C_8  and  N_9
REMARK    4  A    between atoms: C_10  and  C_12
REMARK    5  A    between atoms: C_13  and  N_14
REMARK    6  A    between atoms: N_14  and  O_15
REMARK    7  A    between atoms: C_17  and  C_18
REMARK                            x       y       z     vdW  Elec       q    Type
REMARK                         _______ _______ _______ _____ _____    ______ ____
ROOT
ATOM      1  C   UNL     1       1.264   9.626  19.700  0.00  0.00    +0.000 A 
ATOM      2  C   UNL     1       1.658   9.728  18.401  0.00  0.00    +0.000 A 
ATOM      3  C   UNL     1       2.309   8.591  17.782  0.00  0.00    +0.000 A 
ATOM      4  C   UNL     1       2.514   7.457  18.454  0.00  0.00    +0.000 A 
ATOM      5  O   UNL     1       2.032   7.291  19.762  0.00  0.00    +0.000 OA
ATOM      6  C   UNL     1       1.411   8.329  20.407  0.00  0.00    +0.000 A 
ATOM      7  O   UNL     1       1.002   8.182  21.556  0.00  0.00    +0.000 OA
ENDROOT
BRANCH   4   8
ATOM      8  C   UNL     1       3.282   6.329  17.893  0.00  0.00    +0.000 A 
ATOM      9  C   UNL     1       4.531   6.548  17.285  0.00  0.00    +0.000 A 
ATOM     10  C   UNL     1       5.284   5.489  16.772  0.00  0.00    +0.000 A 
ATOM     11  C   UNL     1       4.798   4.188  16.870  0.00  0.00    +0.000 A 
ATOM     12  C   UNL     1       3.568   3.950  17.477  0.00  0.00    +0.000 A 
ATOM     13  C   UNL     1       2.814   5.012  17.989  0.00  0.00    +0.000 A 
ENDBRANCH   4   8
BRANCH   1  15
ATOM     14  N   UNL     1      -0.644  10.732  20.851  0.00  0.00    +0.000 N 
ATOM     15  C   UNL     1       0.667  10.818  20.401  0.00  0.00    +0.000 C 
ATOM     16  O   UNL     1       1.369  11.814  20.594  0.00  0.00    +0.000 OA
ATOM     17  H   UNL     1      -1.164   9.863  20.738  0.00  0.00    +0.000 HD
BRANCH  14  23
ATOM     18  C   UNL     1      -2.180  12.661  20.759  0.00  0.00    +0.000 A 
ATOM     19  C   UNL     1      -2.871  13.694  21.420  0.00  0.00    +0.000 A 
ATOM     20  C   UNL     1      -2.782  13.848  22.806  0.00  0.00    +0.000 A 
ATOM     21  C   UNL     1      -1.988  12.994  23.541  0.00  0.00    +0.000 A 
ATOM     22  C   UNL     1      -1.268  11.986  22.891  0.00  0.00    +0.000 A 
ATOM     23  C   UNL     1      -1.361  11.786  21.504  0.00  0.00    +0.000 A 
BRANCH  18  25
ATOM     24  C   UNL     1      -3.527  11.916  18.953  0.00  0.00    +0.000 C 
ATOM     25  O   UNL     1      -2.277  12.445  19.402  0.00  0.00    +0.000 OA
ENDBRANCH  18  25
ENDBRANCH  14  23
ENDBRANCH   1  15
BRANCH   2  26
ATOM     26  N   UNL     1       1.587  10.845  17.565  0.00  0.00    +0.000 N 
ATOM     27  H   UNL     1       0.687  11.324  17.604  0.00  0.00    +0.000 HD
BRANCH  26  28
ATOM     28  O   UNL     1       2.607  11.801  17.675  0.00  0.00    +0.000 OA
ATOM     29  H   UNL     1       2.170  12.627  17.357  0.00  0.00    +0.000 HD
ENDBRANCH  26  28
ENDBRANCH   2  26
TORSDOF 6
ENDMDL
MODEL 8
REMARK VINA RESULT:      -6.9      2.674      8.965
REMARK  Name = 
REMARK  7 active torsions:
REMARK  status: ('A' for Active; 'I' for Inactive)
REMARK    1  A    between atoms: C_1  and  O_2
REMARK    2  A    between atoms: O_2  and  C_3
REMARK    3  A    between atoms: C_8  and  N_9
REMARK    4  A    between atoms: C_10  and  C_12
REMARK    5  A    between atoms: C_13  and  N_14
REMARK    6  A    between atoms: N_14  and  O_15
REMARK    7  A    between atoms: C_17  and  C_18
REMARK                            x       y       z     vdW  Elec       q    Type
REMARK                         _______ _______ _______ _____ _____    ______ ____
ROOT
ATOM      1  C   UNL     1       0.404   9.680  20.106  0.00  0.00    +0.000 A 
ATOM      2  C   UNL     1       0.687   9.648  18.775  0.00  0.00    +0.000 A 
ATOM      3  C   UNL     1       1.628   8.659  18.290  0.00  0.00    +0.000 A 
ATOM      4  C   UNL     1       2.205   7.784  19.115  0.00  0.00    +0.000 A 
ATOM      5  O   UNL     1       1.858   7.732  20.474  0.00  0.00    +0.000 OA
ATOM      6  C   UNL     1       0.977   8.642  20.999  0.00  0.00    +0.000 A 
ATOM      7  O   UNL     1       0.686   8.599  22.192  0.00  0.00    +0.000 OA
ENDROOT
BRANCH   4   8
ATOM      8  C   UNL     1       3.257   6.849  18.674  0.00  0.00    +0.000 A 
ATOM      9  C   UNL     1       3.955   7.075  17.475  0.00  0.00    +0.000 A 
ATOM     10  C   UNL     1       4.972   6.215  17.054  0.00  0.00    +0.000 A 
ATOM     11  C   UNL     1       5.313   5.116  17.838  0.00  0.00    +0.000 A 
ATOM     12  C   UNL     1       4.639   4.881  19.034  0.00  0.00    +0.000 A 
ATOM     13  C   UNL     1       3.619   5.742  19.452  0.00  0.00    +0.000 A 
ENDBRANCH   4   8
BRANCH   1  15
ATOM     14  N   UNL     1      -0.260  11.222  21.942  0.00  0.00    +0.000 N 
ATOM     15  C   UNL     1      -0.499  10.752  20.657  0.00  0.00    +0.000 C 
ATOM     16  O   UNL     1      -1.393  11.210  19.941  0.00  0.00    +0.000 OA
ATOM     17  H   UNL     1       0.536  10.870  22.472  0.00  0.00    +0.000 HD
BRANCH  14  23
ATOM     18  C   UNL     1      -0.560  13.527  22.770  0.00  0.00    +0.000 A 
ATOM     19  C   UNL     1      -1.347  14.482  23.441  0.00  0.00    +0.000 A 
ATOM     20  C   UNL     1      -2.614  14.156  23.931  0.00  0.00    +0.000 A 
ATOM     21  C   UNL     1      -3.099  12.874  23.778  0.00  0.00    +0.000 A 
ATOM     22  C   UNL     1      -2.312  11.906  23.146  0.00  0.00    +0.000 A 
ATOM     23  C   UNL     1      -1.047  12.211  22.616  0.00  0.00    +0.000 A 
BRANCH  18  25
ATOM     24  C   UNL     1       0.934  15.207  22.013  0.00  0.00    +0.000 C 
ATOM     25  O   UNL     1       0.673  13.819  22.233  0.00  0.00    +0.000 OA
ENDBRANCH  18  25
ENDBRANCH  14  23
ENDBRANCH   1  15
BRANCH   2  26
ATOM     26  N   UNL     1       0.237  10.516  17.777  0.00  0.00    +0.000 N 
ATOM     27  H   UNL     1       0.904  10.639  17.015  0.00  0.00    +0.000 HD
BRANCH  26  28
ATOM     28  O   UNL     1      -1.029  10.270  17.228  0.00  0.00    +0.000 OA
ATOM     29  H   UNL     1      -1.530   9.890  17.989  0.00  0.00    +0.000 HD
ENDBRANCH  26  28
ENDBRANCH   2  26
TORSDOF 6
ENDMDL
MODEL 9
REMARK VINA RESULT:      -6.9      2.238      8.449
REMARK  Name = 
REMARK  7 active torsions:
REMARK  status: ('A' for Active; 'I' for Inactive)
REMARK    1  A    between atoms: C_1  and  O_2
REMARK    2  A    between atoms: O_2  and  C_3
REMARK    3  A    between atoms: C_8  and  N_9
REMARK    4  A    between atoms: C_10  and  C_12
REMARK    5  A    between atoms: C_13  and  N_14
REMARK    6  A    between atoms: N_14  and  O_15
REMARK    7  A    between atoms: C_17  and  C_18
REMARK                            x       y       z     vdW  Elec       q    Type
REMARK                         _______ _______ _______ _____ _____    ______ ____
ROOT
ATOM      1  C   UNL     1       1.882   8.360  19.232  0.00  0.00    +0.000 A 
ATOM      2  C   UNL     1       2.247   7.165  19.770  0.00  0.00    +0.000 A 
ATOM      3  C   UNL     1       3.132   6.305  19.013  0.00  0.00    +0.000 A 
ATOM      4  C   UNL     1       3.599   6.667  17.816  0.00  0.00    +0.000 A 
ATOM      5  O   UNL     1       3.317   7.934  17.282  0.00  0.00    +0.000 OA
ATOM      6  C   UNL     1       2.482   8.794  17.945  0.00  0.00    +0.000 A 
ATOM      7  O   UNL     1       2.229   9.897  17.466  0.00  0.00    +0.000 OA
ENDROOT
BRANCH   4   8
ATOM      8  C   UNL     1       4.399   5.764  16.969  0.00  0.00    +0.000 A 
ATOM      9  C   UNL     1       4.374   4.374  17.183  0.00  0.00    +0.000 A 
ATOM     10  C   UNL     1       5.106   3.502  16.373  0.00  0.00    +0.000 A 
ATOM     11  C   UNL     1       5.870   4.011  15.327  0.00  0.00    +0.000 A 
ATOM     12  C   UNL     1       5.900   5.383  15.093  0.00  0.00    +0.000 A 
ATOM     13  C   UNL     1       5.169   6.256  15.906  0.00  0.00    +0.000 A 
ENDBRANCH   4   8
BRANCH   1  15
ATOM     14  N   UNL     1       0.026  10.018  19.194  0.00  0.00    +0.000 N 
ATOM     15  C   UNL     1       0.892   9.238  19.951  0.00  0.00    +0.000 C 
ATOM     16  O   UNL     1       0.847   9.208  21.183  0.00  0.00    +0.000 OA
ATOM     17  H   UNL     1       0.046   9.956  18.177  0.00  0.00    +0.000 HD
BRANCH  14  23
ATOM     18  C   UNL     1      -2.058  11.316  18.953  0.00  0.00    +0.000 A 
ATOM     19  C   UNL     1      -2.998  12.213  19.495  0.00  0.00    +0.000 A 
ATOM     20  C   UNL     1      -2.862  12.698  20.798  0.00  0.00    +0.000 A 
ATOM     21  C   UNL     1      -1.780  12.316  21.563  0.00  0.00    +0.000 A 
ATOM     22  C   UNL     1      -0.821  11.454  21.023  0.00  0.00    +0.000 A 
ATOM     23  C   UNL     1      -0.945  10.925  19.727  0.00  0.00    +0.000 A 
BRANCH  18  25
ATOM     24  C   UNL     1      -3.203   9.792  17.540  0.00  0.00    +0.000 C 
ATOM     25  O   UNL     1      -2.179  10.778  17.691  0.00  0.00    +0.000 OA
ENDBRANCH  18  25
ENDBRANCH  14  23
ENDBRANCH   1  15
BRANCH   2  26
ATOM     26  N   UNL     1       1.813   6.592  20.968  0.00  0.00    +0.000 N 
ATOM     27  H   UNL     1       0.797   6.590  21.071  0.00  0.00    +0.000 HD
BRANCH  26  28
ATOM     28  O   UNL     1       2.296   5.315  21.288  0.00  0.00    +0.000 OA
ATOM     29  H   UNL     1       2.724   5.025  20.447  0.00  0.00    +0.000 HD
ENDBRANCH  26  28
ENDBRANCH   2  26
TORSDOF 6
ENDMDL
