MODEL 1
REMARK VINA RESULT:      -8.6      0.000      0.000
REMARK  Name = 
REMARK  12 active torsions:
REMARK  status: ('A' for Active; 'I' for Inactive)
REMARK    1  A    between atoms: C_1  and  O_2
REMARK    2  A    between atoms: O_2  and  C_3
REMARK    3  A    between atoms: C_3  and  C_5
REMARK    4  A    between atoms: C_5  and  C_6
REMARK    5  A    between atoms: C_5  and  C_7
REMARK    6  A    between atoms: C_10  and  C_11
REMARK    7  A    between atoms: C_14  and  N_15
REMARK    8  A    between atoms: N_15  and  C_16
REMARK    9  A    between atoms: C_16  and  C_17
REMARK   10  A    between atoms: C_21  and  C_22
REMARK   11  A    between atoms: C_22  and  N_23
REMARK   12  A    between atoms: C_29  and  O_30
REMARK                            x       y       z     vdW  Elec       q    Type
REMARK                         _______ _______ _______ _____ _____    ______ ____
ROOT
ATOM      1  C   UNL     1       3.711   5.715  17.748  0.00  0.00    +0.000 A 
ATOM      2  C   UNL     1       3.109   4.824  18.648  0.00  0.00    +0.000 A 
ATOM      3  C   UNL     1       2.314   5.280  19.703  0.00  0.00    +0.000 A 
ATOM      4  C   UNL     1       2.100   6.645  19.901  0.00  0.00    +0.000 A 
ATOM      5  C   UNL     1       2.655   7.538  18.984  0.00  0.00    +0.000 A 
ATOM      6  C   UNL     1       3.466   7.085  17.942  0.00  0.00    +0.000 A 
ENDROOT
BRANCH   1  10
ATOM      7  C   UNL     1       6.053   4.344  14.372  0.00  0.00    +0.000 A 
ATOM      8  C   UNL     1       5.801   5.704  14.574  0.00  0.00    +0.000 A 
ATOM      9  C   UNL     1       5.056   6.136  15.678  0.00  0.00    +0.000 A 
ATOM     10  C   UNL     1       4.534   5.234  16.620  0.00  0.00    +0.000 A 
ATOM     11  C   UNL     1       4.816   3.875  16.411  0.00  0.00    +0.000 A 
ATOM     12  F   UNL     1       4.367   2.940  17.264  0.00  0.00    +0.000 F 
ATOM     13  C   UNL     1       5.551   3.436  15.310  0.00  0.00    +0.000 A 
BRANCH   7  14
ATOM     14  C   UNL     1       6.756   3.820  13.134  0.00  0.00    +0.000 C 
ATOM     15  C   UNL     1       7.473   4.897  12.316  0.00  0.00    +0.000 C 
BRANCH  14  16
ATOM     16  C   UNL     1       5.773   3.061  12.251  0.00  0.00    +0.000 C 
ATOM     17  O   UNL     1       5.993   1.980  11.722  0.00  0.00    +0.000 OA
BRANCH  16  19
ATOM     18  C   UNL     1       3.806   3.356  11.012  0.00  0.00    +0.000 C 
ATOM     19  O   UNL     1       4.621   3.780  12.105  0.00  0.00    +0.000 OA
ENDBRANCH  16  19
ENDBRANCH  14  16
ENDBRANCH   7  14
ENDBRANCH   1  10
BRANCH   4  20
ATOM     20  N   UNL     1       1.284   7.170  20.910  0.00  0.00    +0.000 N 
ATOM     21  H   UNL     1       1.069   6.439  21.585  0.00  0.00    +0.000 HD
BRANCH  20  22
ATOM     22  C   UNL     1       1.775   8.367  21.592  0.00  0.00    +0.000 C 
BRANCH  22  23
ATOM     23  C   UNL     1       0.691   9.401  21.770  0.00  0.00    +0.000 A 
ATOM     24  C   UNL     1       0.072   9.664  23.002  0.00  0.00    +0.000 A 
ATOM     25  C   UNL     1      -0.982  10.567  23.088  0.00  0.00    +0.000 A 
ATOM     26  C   UNL     1      -1.449  11.200  21.936  0.00  0.00    +0.000 A 
ATOM     27  C   UNL     1      -0.865  10.945  20.683  0.00  0.00    +0.000 A 
ATOM     28  C   UNL     1       0.234  10.082  20.632  0.00  0.00    +0.000 A 
BRANCH  28  29
ATOM     29  O   UNL     1       0.889   9.846  19.449  0.00  0.00    +0.000 OA
ATOM     30  H   UNL     1       1.850   9.819  19.658  0.00  0.00    +0.000 HD
ENDBRANCH  28  29
BRANCH  27  31
ATOM     31  C   UNL     1      -1.403  11.674  19.473  0.00  0.00    +0.000 C 
BRANCH  31  32
ATOM     32  N   UNL     1      -2.389  10.904  18.654  0.00  0.00    +0.000 NA
ATOM     33  C   UNL     1      -3.587  11.737  18.393  0.00  0.00    +0.000 C 
ATOM     34  C   UNL     1      -4.506  11.208  17.289  0.00  0.00    +0.000 C 
ATOM     35  C   UNL     1      -3.727  10.920  16.016  0.00  0.00    +0.000 C 
ATOM     36  C   UNL     1      -2.619   9.930  16.330  0.00  0.00    +0.000 C 
ATOM     37  C   UNL     1      -1.701  10.471  17.422  0.00  0.00    +0.000 C 
ENDBRANCH  31  32
ENDBRANCH  27  31
ENDBRANCH  22  23
ENDBRANCH  20  22
ENDBRANCH   4  20
TORSDOF 10
ENDMDL
MODEL 2
REMARK VINA RESULT:      -8.4      3.525      5.840
REMARK  Name = 
REMARK  12 active torsions:
REMARK  status: ('A' for Active; 'I' for Inactive)
REMARK    1  A    between atoms: C_1  and  O_2
REMARK    2  A    between atoms: O_2  and  C_3
REMARK    3  A    between atoms: C_3  and  C_5
REMARK    4  A    between atoms: C_5  and  C_6
REMARK    5  A    between atoms: C_5  and  C_7
REMARK    6  A    between atoms: C_10  and  C_11
REMARK    7  A    between atoms: C_14  and  N_15
REMARK    8  A    between atoms: N_15  and  C_16
REMARK    9  A    between atoms: C_16  and  C_17
REMARK   10  A    between atoms: C_21  and  C_22
REMARK   11  A    between atoms: C_22  and  N_23
REMARK   12  A    between atoms: C_29  and  O_30
REMARK                            x       y       z     vdW  Elec       q    Type
REMARK                         _______ _______ _______ _____ _____    ______ ____
ROOT
ATOM      1  C   UNL     1       0.472  10.116  21.012  0.00  0.00    +0.000 A 
ATOM      2  C   UNL     1      -0.469   9.917  22.034  0.00  0.00    +0.000 A 
ATOM      3  C   UNL     1      -1.111  10.993  22.653  0.00  0.00    +0.000 A 
ATOM      4  C   UNL     1      -0.829  12.308  22.278  0.00  0.00    +0.000 A 
ATOM      5  C   UNL     1       0.069  12.515  21.231  0.00  0.00    +0.000 A 
ATOM      6  C   UNL     1       0.726  11.443  20.626  0.00  0.00    +0.000 A 
ENDROOT
BRANCH   1  10
ATOM      7  C   UNL     1       2.502   6.791  19.120  0.00  0.00    +0.000 A 
ATOM      8  C   UNL     1       2.132   6.742  20.467  0.00  0.00    +0.000 A 
ATOM      9  C   UNL     1       1.461   7.817  21.063  0.00  0.00    +0.000 A 
ATOM     10  C   UNL     1       1.136   8.979  20.344  0.00  0.00    +0.000 A 
ATOM     11  C   UNL     1       1.497   9.001  18.988  0.00  0.00    +0.000 A 
ATOM     12  F   UNL     1       1.219  10.065  18.218  0.00  0.00    +0.000 F 
ATOM     13  C   UNL     1       2.172   7.937  18.389  0.00  0.00    +0.000 A 
BRANCH   7  14
ATOM     14  C   UNL     1       3.328   5.702  18.461  0.00  0.00    +0.000 C 
ATOM     15  C   UNL     1       4.118   6.167  17.236  0.00  0.00    +0.000 C 
BRANCH  14  16
ATOM     16  C   UNL     1       2.440   4.519  18.093  0.00  0.00    +0.000 C 
ATOM     17  O   UNL     1       1.292   4.353  18.483  0.00  0.00    +0.000 OA
BRANCH  16  19
ATOM     18  C   UNL     1       2.909   2.274  17.613  0.00  0.00    +0.000 C 
ATOM     19  O   UNL     1       3.125   3.648  17.294  0.00  0.00    +0.000 OA
ENDBRANCH  16  19
ENDBRANCH  14  16
ENDBRANCH   7  14
ENDBRANCH   1  10
BRANCH   4  20
ATOM     20  N   UNL     1      -1.464  13.429  22.824  0.00  0.00    +0.000 N 
ATOM     21  H   UNL     1      -0.776  14.008  23.302  0.00  0.00    +0.000 HD
BRANCH  20  22
ATOM     22  C   UNL     1      -2.264  14.240  21.907  0.00  0.00    +0.000 C 
BRANCH  22  23
ATOM     23  C   UNL     1      -3.595  13.599  21.599  0.00  0.00    +0.000 A 
ATOM     24  C   UNL     1      -4.630  13.482  22.540  0.00  0.00    +0.000 A 
ATOM     25  C   UNL     1      -5.802  12.804  22.225  0.00  0.00    +0.000 A 
ATOM     26  C   UNL     1      -5.944  12.210  20.971  0.00  0.00    +0.000 A 
ATOM     27  C   UNL     1      -4.919  12.290  20.012  0.00  0.00    +0.000 A 
ATOM     28  C   UNL     1      -3.777  13.032  20.330  0.00  0.00    +0.000 A 
BRANCH  28  29
ATOM     29  O   UNL     1      -2.772  13.204  19.410  0.00  0.00    +0.000 OA
ATOM     30  H   UNL     1      -2.020  12.641  19.705  0.00  0.00    +0.000 HD
ENDBRANCH  28  29
BRANCH  27  31
ATOM     31  C   UNL     1      -5.137  11.640  18.665  0.00  0.00    +0.000 C 
BRANCH  31  32
ATOM     32  N   UNL     1      -3.907  11.474  17.833  0.00  0.00    +0.000 NA
ATOM     33  C   UNL     1      -3.224  10.207  18.189  0.00  0.00    +0.000 C 
ATOM     34  C   UNL     1      -2.163   9.749  17.187  0.00  0.00    +0.000 C 
ATOM     35  C   UNL     1      -2.719   9.715  15.773  0.00  0.00    +0.000 C 
ATOM     36  C   UNL     1      -3.250  11.093  15.420  0.00  0.00    +0.000 C 
ATOM     37  C   UNL     1      -4.316  11.537  16.417  0.00  0.00    +0.000 C 
ENDBRANCH  31  32
ENDBRANCH  27  31
ENDBRANCH  22  23
ENDBRANCH  20  22
ENDBRANCH   4  20
TORSDOF 10
ENDMDL
MODEL 3
REMARK VINA RESULT:      -8.4      3.378      5.333
REMARK  Name = 
REMARK  12 active torsions:
REMARK  status: ('A' for Active; 'I' for Inactive)
REMARK    1  A    between atoms: C_1  and  O_2
REMARK    2  A    between atoms: O_2  and  C_3
REMARK    3  A    between atoms: C_3  and  C_5
REMARK    4  A    between atoms: C_5  and  C_6
REMARK    5  A    between atoms: C_5  and  C_7
REMARK    6  A    between atoms: C_10  and  C_11
REMARK    7  A    between atoms: C_14  and  N_15
REMARK    8  A    between atoms: N_15  and  C_16
REMARK    9  A    between atoms: C_16  and  C_17
REMARK   10  A    between atoms: C_21  and  C_22
REMARK   11  A    between atoms: C_22  and  N_23
REMARK   12  A    between atoms: C_29  and  O_30
REMARK                            x       y       z     vdW  Elec       q    Type
REMARK                         _______ _______ _______ _____ _____    ______ ____
ROOT
ATOM      1  C   UNL     1       1.010   9.219  19.281  0.00  0.00    +0.000 A 
ATOM      2  C   UNL     1       0.762   9.626  20.600  0.00  0.00    +0.000 A 
ATOM      3  C   UNL     1      -0.197  10.598  20.895  0.00  0.00    +0.000 A 
ATOM      4  C   UNL     1      -0.939  11.204  19.879  0.00  0.00    +0.000 A 
ATOM      5  C   UNL     1      -0.734  10.773  18.569  0.00  0.00    +0.000 A 
ATOM      6  C   UNL     1       0.239   9.818  18.270  0.00  0.00    +0.000 A 
ENDROOT
BRANCH   1  10
ATOM      7  C   UNL     1       3.889   6.143  18.277  0.00  0.00    +0.000 A 
ATOM      8  C   UNL     1       3.714   7.264  17.461  0.00  0.00    +0.000 A 
ATOM      9  C   UNL     1       2.791   8.260  17.806  0.00  0.00    +0.000 A 
ATOM     10  C   UNL     1       2.010   8.177  18.970  0.00  0.00    +0.000 A 
ATOM     11  C   UNL     1       2.215   7.054  19.785  0.00  0.00    +0.000 A 
ATOM     12  F   UNL     1       1.521   6.893  20.924  0.00  0.00    +0.000 F 
ATOM     13  C   UNL     1       3.127   6.055  19.446  0.00  0.00    +0.000 A 
BRANCH   7  14
ATOM     14  C   UNL     1       4.792   4.986  17.889  0.00  0.00    +0.000 C 
ATOM     15  C   UNL     1       5.172   4.955  16.407  0.00  0.00    +0.000 C 
BRANCH  14  16
ATOM     16  C   UNL     1       4.155   3.663  18.295  0.00  0.00    +0.000 C 
ATOM     17  O   UNL     1       4.502   2.977  19.246  0.00  0.00    +0.000 OA
BRANCH  16  19
ATOM     18  C   UNL     1       2.455   2.139  17.761  0.00  0.00    +0.000 C 
ATOM     19  O   UNL     1       3.162   3.331  17.417  0.00  0.00    +0.000 OA
ENDBRANCH  16  19
ENDBRANCH  14  16
ENDBRANCH   7  14
ENDBRANCH   1  10
BRANCH   4  20
ATOM     20  N   UNL     1      -1.943  12.153  20.105  0.00  0.00    +0.000 N 
ATOM     21  H   UNL     1      -2.850  11.690  20.113  0.00  0.00    +0.000 HD
BRANCH  20  22
ATOM     22  C   UNL     1      -1.791  12.998  21.289  0.00  0.00    +0.000 C 
BRANCH  22  23
ATOM     23  C   UNL     1      -3.051  13.044  22.117  0.00  0.00    +0.000 A 
ATOM     24  C   UNL     1      -3.123  12.576  23.438  0.00  0.00    +0.000 A 
ATOM     25  C   UNL     1      -4.334  12.565  24.122  0.00  0.00    +0.000 A 
ATOM     26  C   UNL     1      -5.496  12.997  23.482  0.00  0.00    +0.000 A 
ATOM     27  C   UNL     1      -5.463  13.452  22.153  0.00  0.00    +0.000 A 
ATOM     28  C   UNL     1      -4.224  13.515  21.508  0.00  0.00    +0.000 A 
BRANCH  28  29
ATOM     29  O   UNL     1      -4.119  14.014  20.234  0.00  0.00    +0.000 OA
ATOM     30  H   UNL     1      -3.252  13.709  19.881  0.00  0.00    +0.000 HD
ENDBRANCH  28  29
BRANCH  27  31
ATOM     31  C   UNL     1      -6.752  13.923  21.518  0.00  0.00    +0.000 C 
BRANCH  31  32
ATOM     32  N   UNL     1      -7.344  12.989  20.513  0.00  0.00    +0.000 NA
ATOM     33  C   UNL     1      -7.136  13.521  19.145  0.00  0.00    +0.000 C 
ATOM     34  C   UNL     1      -7.378  12.510  18.022  0.00  0.00    +0.000 C 
ATOM     35  C   UNL     1      -6.595  11.229  18.257  0.00  0.00    +0.000 C 
ATOM     36  C   UNL     1      -6.986  10.654  19.607  0.00  0.00    +0.000 C 
ATOM     37  C   UNL     1      -6.730  11.663  20.722  0.00  0.00    +0.000 C 
ENDBRANCH  31  32
ENDBRANCH  27  31
ENDBRANCH  22  23
ENDBRANCH  20  22
ENDBRANCH   4  20
TORSDOF 10
ENDMDL
MODEL 4
REMARK VINA RESULT:      -8.4      4.132      6.528
REMARK  Name = 
REMARK  12 active torsions:
REMARK  status: ('A' for Active; 'I' for Inactive)
REMARK    1  A    between atoms: C_1  and  O_2
REMARK    2  A    between atoms: O_2  and  C_3
REMARK    3  A    between atoms: C_3  and  C_5
REMARK    4  A    between atoms: C_5  and  C_6
REMARK    5  A    between atoms: C_5  and  C_7
REMARK    6  A    between atoms: C_10  and  C_11
REMARK    7  A    between atoms: C_14  and  N_15
REMARK    8  A    between atoms: N_15  and  C_16
REMARK    9  A    between atoms: C_16  and  C_17
REMARK   10  A    between atoms: C_21  and  C_22
REMARK   11  A    between atoms: C_22  and  N_23
REMARK   12  A    between atoms: C_29  and  O_30
REMARK                            x       y       z     vdW  Elec       q    Type
REMARK                         _______ _______ _______ _____ _____    ______ ____
ROOT
ATOM      1  C   UNL     1       1.090  10.075  18.779  0.00  0.00    +0.000 A 
ATOM      2  C   UNL     1       1.839  11.258  18.698  0.00  0.00    +0.000 A 
ATOM      3  C   UNL     1       1.220  12.508  18.617  0.00  0.00    +0.000 A 
ATOM      4  C   UNL     1      -0.171  12.620  18.606  0.00  0.00    +0.000 A 
ATOM      5  C   UNL     1      -0.925  11.454  18.734  0.00  0.00    +0.000 A 
ATOM      6  C   UNL     1      -0.310  10.203  18.794  0.00  0.00    +0.000 A 
ENDROOT
BRANCH   1  10
ATOM      7  C   UNL     1       2.941   6.166  19.009  0.00  0.00    +0.000 A 
ATOM      8  C   UNL     1       3.004   6.929  17.840  0.00  0.00    +0.000 A 
ATOM      9  C   UNL     1       2.415   8.199  17.783  0.00  0.00    +0.000 A 
ATOM     10  C   UNL     1       1.743   8.754  18.884  0.00  0.00    +0.000 A 
ATOM     11  C   UNL     1       1.708   7.981  20.055  0.00  0.00    +0.000 A 
ATOM     12  F   UNL     1       1.096   8.434  21.161  0.00  0.00    +0.000 F 
ATOM     13  C   UNL     1       2.286   6.713  20.117  0.00  0.00    +0.000 A 
BRANCH   7  14
ATOM     14  C   UNL     1       3.463   4.743  19.083  0.00  0.00    +0.000 C 
ATOM     15  C   UNL     1       3.908   4.167  17.737  0.00  0.00    +0.000 C 
BRANCH  14  16
ATOM     16  C   UNL     1       2.423   3.833  19.724  0.00  0.00    +0.000 C 
ATOM     17  O   UNL     1       2.553   3.264  20.799  0.00  0.00    +0.000 OA
BRANCH  16  19
ATOM     18  C   UNL     1       0.890   2.368  18.725  0.00  0.00    +0.000 C 
ATOM     19  O   UNL     1       1.336   3.712  18.905  0.00  0.00    +0.000 OA
ENDBRANCH  16  19
ENDBRANCH  14  16
ENDBRANCH   7  14
ENDBRANCH   1  10
BRANCH   4  20
ATOM     20  N   UNL     1      -0.857  13.839  18.570  0.00  0.00    +0.000 N 
ATOM     21  H   UNL     1      -1.835  13.671  18.347  0.00  0.00    +0.000 HD
BRANCH  20  22
ATOM     22  C   UNL     1      -0.742  14.691  19.754  0.00  0.00    +0.000 C 
BRANCH  22  23
ATOM     23  C   UNL     1      -1.283  14.016  20.990  0.00  0.00    +0.000 A 
ATOM     24  C   UNL     1      -0.467  13.531  22.023  0.00  0.00    +0.000 A 
ATOM     25  C   UNL     1      -1.017  12.840  23.098  0.00  0.00    +0.000 A 
ATOM     26  C   UNL     1      -2.390  12.602  23.139  0.00  0.00    +0.000 A 
ATOM     27  C   UNL     1      -3.235  13.055  22.111  0.00  0.00    +0.000 A 
ATOM     28  C   UNL     1      -2.667  13.803  21.074  0.00  0.00    +0.000 A 
BRANCH  28  29
ATOM     29  O   UNL     1      -3.450  14.330  20.077  0.00  0.00    +0.000 OA
ATOM     30  H   UNL     1      -4.314  14.559  20.488  0.00  0.00    +0.000 HD
ENDBRANCH  28  29
BRANCH  27  31
ATOM     31  C   UNL     1      -4.717  12.781  22.218  0.00  0.00    +0.000 C 
BRANCH  31  32
ATOM     32  N   UNL     1      -5.428  13.539  23.293  0.00  0.00    +0.000 NA
ATOM     33  C   UNL     1      -5.560  14.963  22.903  0.00  0.00    +0.000 C 
ATOM     34  C   UNL     1      -6.560  15.764  23.739  0.00  0.00    +0.000 C 
ATOM     35  C   UNL     1      -7.909  15.066  23.802  0.00  0.00    +0.000 C 
ATOM     36  C   UNL     1      -7.715  13.670  24.367  0.00  0.00    +0.000 C 
ATOM     37  C   UNL     1      -6.726  12.874  23.521  0.00  0.00    +0.000 C 
ENDBRANCH  31  32
ENDBRANCH  27  31
ENDBRANCH  22  23
ENDBRANCH  20  22
ENDBRANCH   4  20
TORSDOF 10
ENDMDL
MODEL 5
REMARK VINA RESULT:      -8.3      0.600      1.157
REMARK  Name = 
REMARK  12 active torsions:
REMARK  status: ('A' for Active; 'I' for Inactive)
REMARK    1  A    between atoms: C_1  and  O_2
REMARK    2  A    between atoms: O_2  and  C_3
REMARK    3  A    between atoms: C_3  and  C_5
REMARK    4  A    between atoms: C_5  and  C_6
REMARK    5  A    between atoms: C_5  and  C_7
REMARK    6  A    between atoms: C_10  and  C_11
REMARK    7  A    between atoms: C_14  and  N_15
REMARK    8  A    between atoms: N_15  and  C_16
REMARK    9  A    between atoms: C_16  and  C_17
REMARK   10  A    between atoms: C_21  and  C_22
REMARK   11  A    between atoms: C_22  and  N_23
REMARK   12  A    between atoms: C_29  and  O_30
REMARK                            x       y       z     vdW  Elec       q    Type
REMARK                         _______ _______ _______ _____ _____    ______ ____
ROOT
ATOM      1  C   UNL     1       3.664   6.069  17.858  0.00  0.00    +0.000 A 
ATOM      2  C   UNL     1       3.054   7.329  17.773  0.00  0.00    +0.000 A 
ATOM      3  C   UNL     1       2.250   7.821  18.804  0.00  0.00    +0.000 A 
ATOM      4  C   UNL     1       2.021   7.066  19.956  0.00  0.00    +0.000 A 
ATOM      5  C   UNL     1       2.660   5.832  20.072  0.00  0.00    +0.000 A 
ATOM      6  C   UNL     1       3.447   5.331  19.034  0.00  0.00    +0.000 A 
ENDROOT
BRANCH   1  10
ATOM      7  C   UNL     1       6.135   4.606  14.615  0.00  0.00    +0.000 A 
ATOM      8  C   UNL     1       5.857   5.969  14.756  0.00  0.00    +0.000 A 
ATOM      9  C   UNL     1       5.071   6.431  15.819  0.00  0.00    +0.000 A 
ATOM     10  C   UNL     1       4.531   5.557  16.777  0.00  0.00    +0.000 A 
ATOM     11  C   UNL     1       4.838   4.196  16.630  0.00  0.00    +0.000 A 
ATOM     12  F   UNL     1       4.375   3.287  17.503  0.00  0.00    +0.000 F 
ATOM     13  C   UNL     1       5.615   3.727  15.571  0.00  0.00    +0.000 A 
BRANCH   7  14
ATOM     14  C   UNL     1       6.886   4.046  13.421  0.00  0.00    +0.000 C 
ATOM     15  C   UNL     1       7.826   5.046  12.745  0.00  0.00    +0.000 C 
BRANCH  14  16
ATOM     16  C   UNL     1       5.905   3.479  12.402  0.00  0.00    +0.000 C 
ATOM     17  O   UNL     1       4.687   3.573  12.470  0.00  0.00    +0.000 OA
BRANCH  16  19
ATOM     18  C   UNL     1       6.411   1.396  11.453  0.00  0.00    +0.000 C 
ATOM     19  O   UNL     1       6.582   2.813  11.419  0.00  0.00    +0.000 OA
ENDBRANCH  16  19
ENDBRANCH  14  16
ENDBRANCH   7  14
ENDBRANCH   1  10
BRANCH   4  20
ATOM     20  N   UNL     1       1.262   7.512  21.044  0.00  0.00    +0.000 N 
ATOM     21  H   UNL     1       1.187   6.766  21.733  0.00  0.00    +0.000 HD
BRANCH  20  22
ATOM     22  C   UNL     1       1.699   8.753  21.682  0.00  0.00    +0.000 C 
BRANCH  22  23
ATOM     23  C   UNL     1       0.570   9.744  21.826  0.00  0.00    +0.000 A 
ATOM     24  C   UNL     1      -0.073  10.008  23.045  0.00  0.00    +0.000 A 
ATOM     25  C   UNL     1      -1.165  10.867  23.101  0.00  0.00    +0.000 A 
ATOM     26  C   UNL     1      -1.646  11.453  21.930  0.00  0.00    +0.000 A 
ATOM     27  C   UNL     1      -1.040  11.194  20.689  0.00  0.00    +0.000 A 
ATOM     28  C   UNL     1       0.096  10.378  20.668  0.00  0.00    +0.000 A 
BRANCH  28  29
ATOM     29  O   UNL     1       0.772  10.143  19.497  0.00  0.00    +0.000 OA
ATOM     30  H   UNL     1       0.874  11.014  19.050  0.00  0.00    +0.000 HD
ENDBRANCH  28  29
BRANCH  27  31
ATOM     31  C   UNL     1      -1.596  11.870  19.457  0.00  0.00    +0.000 C 
BRANCH  31  32
ATOM     32  N   UNL     1      -2.472  11.013  18.601  0.00  0.00    +0.000 NA
ATOM     33  C   UNL     1      -3.752  11.709  18.332  0.00  0.00    +0.000 C 
ATOM     34  C   UNL     1      -4.583  11.104  17.198  0.00  0.00    +0.000 C 
ATOM     35  C   UNL     1      -3.753  10.936  15.937  0.00  0.00    +0.000 C 
ATOM     36  C   UNL     1      -2.545  10.072  16.253  0.00  0.00    +0.000 C 
ATOM     37  C   UNL     1      -1.716  10.689  17.376  0.00  0.00    +0.000 C 
ENDBRANCH  31  32
ENDBRANCH  27  31
ENDBRANCH  22  23
ENDBRANCH  20  22
ENDBRANCH   4  20
TORSDOF 10
ENDMDL
MODEL 6
REMARK VINA RESULT:      -8.3      4.033     11.810
REMARK  Name = 
REMARK  12 active torsions:
REMARK  status: ('A' for Active; 'I' for Inactive)
REMARK    1  A    between atoms: C_1  and  O_2
REMARK    2  A    between atoms: O_2  and  C_3
REMARK    3  A    between atoms: C_3  and  C_5
REMARK    4  A    between atoms: C_5  and  C_6
REMARK    5  A    between atoms: C_5  and  C_7
REMARK    6  A    between atoms: C_10  and  C_11
REMARK    7  A    between atoms: C_14  and  N_15
REMARK    8  A    between atoms: N_15  and  C_16
REMARK    9  A    between atoms: C_16  and  C_17
REMARK   10  A    between atoms: C_21  and  C_22
REMARK   11  A    between atoms: C_22  and  N_23
REMARK   12  A    between atoms: C_29  and  O_30
REMARK                            x       y       z     vdW  Elec       q    Type
REMARK                         _______ _______ _______ _____ _____    ______ ____
ROOT
ATOM      1  C   UNL     1      -0.110  10.749  21.903  0.00  0.00    +0.000 A 
ATOM      2  C   UNL     1       0.011  10.462  20.535  0.00  0.00    +0.000 A 
ATOM      3  C   UNL     1       0.663   9.310  20.087  0.00  0.00    +0.000 A 
ATOM      4  C   UNL     1       1.224   8.407  20.991  0.00  0.00    +0.000 A 
ATOM      5  C   UNL     1       1.069   8.658  22.354  0.00  0.00    +0.000 A 
ATOM      6  C   UNL     1       0.436   9.819  22.803  0.00  0.00    +0.000 A 
ENDROOT
BRANCH   1  10
ATOM      7  C   UNL     1      -2.264  14.264  23.232  0.00  0.00    +0.000 A 
ATOM      8  C   UNL     1      -2.778  12.980  23.435  0.00  0.00    +0.000 A 
ATOM      9  C   UNL     1      -2.064  11.851  23.015  0.00  0.00    +0.000 A 
ATOM     10  C   UNL     1      -0.816  11.956  22.378  0.00  0.00    +0.000 A 
ATOM     11  C   UNL     1      -0.308  13.252  22.202  0.00  0.00    +0.000 A 
ATOM     12  F   UNL     1       0.882  13.451  21.612  0.00  0.00    +0.000 F 
ATOM     13  C   UNL     1      -1.016  14.382  22.611  0.00  0.00    +0.000 A 
BRANCH   7  14
ATOM     14  C   UNL     1      -3.049  15.519  23.566  0.00  0.00    +0.000 C 
ATOM     15  C   UNL     1      -3.167  15.806  25.064  0.00  0.00    +0.000 C 
BRANCH  14  16
ATOM     16  C   UNL     1      -4.435  15.456  22.935  0.00  0.00    +0.000 C 
ATOM     17  O   UNL     1      -4.667  15.549  21.737  0.00  0.00    +0.000 OA
BRANCH  16  19
ATOM     18  C   UNL     1      -6.362  14.315  23.624  0.00  0.00    +0.000 C 
ATOM     19  O   UNL     1      -5.387  15.319  23.905  0.00  0.00    +0.000 OA
ENDBRANCH  16  19
ENDBRANCH  14  16
ENDBRANCH   7  14
ENDBRANCH   1  10
BRANCH   4  20
ATOM     20  N   UNL     1       1.853   7.215  20.615  0.00  0.00    +0.000 N 
ATOM     21  H   UNL     1       2.675   7.067  21.198  0.00  0.00    +0.000 HD
BRANCH  20  22
ATOM     22  C   UNL     1       1.020   6.013  20.594  0.00  0.00    +0.000 C 
BRANCH  22  23
ATOM     23  C   UNL     1       1.843   4.755  20.460  0.00  0.00    +0.000 A 
ATOM     24  C   UNL     1       2.011   3.830  21.500  0.00  0.00    +0.000 A 
ATOM     25  C   UNL     1       2.853   2.733  21.346  0.00  0.00    +0.000 A 
ATOM     26  C   UNL     1       3.558   2.563  20.155  0.00  0.00    +0.000 A 
ATOM     27  C   UNL     1       3.429   3.482  19.099  0.00  0.00    +0.000 A 
ATOM     28  C   UNL     1       2.528   4.541  19.255  0.00  0.00    +0.000 A 
BRANCH  28  29
ATOM     29  O   UNL     1       2.308   5.433  18.234  0.00  0.00    +0.000 OA
ATOM     30  H   UNL     1       3.016   6.113  18.295  0.00  0.00    +0.000 HD
ENDBRANCH  28  29
BRANCH  27  31
ATOM     31  C   UNL     1       4.206   3.237  17.827  0.00  0.00    +0.000 C 
BRANCH  31  32
ATOM     32  N   UNL     1       4.861   4.445  17.238  0.00  0.00    +0.000 NA
ATOM     33  C   UNL     1       6.183   4.661  17.871  0.00  0.00    +0.000 C 
ATOM     34  C   UNL     1       7.096   5.639  17.128  0.00  0.00    +0.000 C 
ATOM     35  C   UNL     1       7.224   5.267  15.660  0.00  0.00    +0.000 C 
ATOM     36  C   UNL     1       5.839   5.227  15.039  0.00  0.00    +0.000 C 
ATOM     37  C   UNL     1       4.940   4.241  15.779  0.00  0.00    +0.000 C 
ENDBRANCH  31  32
ENDBRANCH  27  31
ENDBRANCH  22  23
ENDBRANCH  20  22
ENDBRANCH   4  20
TORSDOF 10
ENDMDL
MODEL 7
REMARK VINA RESULT:      -8.2      2.021      3.254
REMARK  Name = 
REMARK  12 active torsions:
REMARK  status: ('A' for Active; 'I' for Inactive)
REMARK    1  A    between atoms: C_1  and  O_2
REMARK    2  A    between atoms: O_2  and  C_3
REMARK    3  A    between atoms: C_3  and  C_5
REMARK    4  A    between atoms: C_5  and  C_6
REMARK    5  A    between atoms: C_5  and  C_7
REMARK    6  A    between atoms: C_10  and  C_11
REMARK    7  A    between atoms: C_14  and  N_15
REMARK    8  A    between atoms: N_15  and  C_16
REMARK    9  A    between atoms: C_16  and  C_17
REMARK   10  A    between atoms: C_21  and  C_22
REMARK   11  A    between atoms: C_22  and  N_23
REMARK   12  A    between atoms: C_29  and  O_30
REMARK                            x       y       z     vdW  Elec       q    Type
REMARK                         _______ _______ _______ _____ _____    ______ ____
ROOT
ATOM      1  C   UNL     1       3.782   5.808  17.893  0.00  0.00    +0.000 A 
ATOM      2  C   UNL     1       3.553   5.011  19.025  0.00  0.00    +0.000 A 
ATOM      3  C   UNL     1       2.746   5.454  20.076  0.00  0.00    +0.000 A 
ATOM      4  C   UNL     1       2.145   6.713  20.037  0.00  0.00    +0.000 A 
ATOM      5  C   UNL     1       2.327   7.494  18.896  0.00  0.00    +0.000 A 
ATOM      6  C   UNL     1       3.149   7.062  17.854  0.00  0.00    +0.000 A 
ENDROOT
BRANCH   1  10
ATOM      7  C   UNL     1       6.166   4.462  14.537  0.00  0.00    +0.000 A 
ATOM      8  C   UNL     1       5.958   5.823  14.777  0.00  0.00    +0.000 A 
ATOM      9  C   UNL     1       5.198   6.246  15.876  0.00  0.00    +0.000 A 
ATOM     10  C   UNL     1       4.618   5.333  16.772  0.00  0.00    +0.000 A 
ATOM     11  C   UNL     1       4.857   3.973  16.526  0.00  0.00    +0.000 A 
ATOM     12  F   UNL     1       4.351   3.027  17.334  0.00  0.00    +0.000 F 
ATOM     13  C   UNL     1       5.606   3.544  15.430  0.00  0.00    +0.000 A 
BRANCH   7  14
ATOM     14  C   UNL     1       6.885   3.954  13.301  0.00  0.00    +0.000 C 
ATOM     15  C   UNL     1       7.566   5.047  12.476  0.00  0.00    +0.000 C 
BRANCH  14  16
ATOM     16  C   UNL     1       5.925   3.158  12.424  0.00  0.00    +0.000 C 
ATOM     17  O   UNL     1       6.183   2.089  11.888  0.00  0.00    +0.000 OA
BRANCH  16  19
ATOM     18  C   UNL     1       3.917   3.349  11.231  0.00  0.00    +0.000 C 
ATOM     19  O   UNL     1       4.743   3.832  12.291  0.00  0.00    +0.000 OA
ENDBRANCH  16  19
ENDBRANCH  14  16
ENDBRANCH   7  14
ENDBRANCH   1  10
BRANCH   4  20
ATOM     20  N   UNL     1       1.292   7.203  21.033  0.00  0.00    +0.000 N 
ATOM     21  H   UNL     1       1.187   6.502  21.764  0.00  0.00    +0.000 HD
BRANCH  20  22
ATOM     22  C   UNL     1       1.643   8.498  21.616  0.00  0.00    +0.000 C 
BRANCH  22  23
ATOM     23  C   UNL     1       0.615   9.557  21.301  0.00  0.00    +0.000 A 
ATOM     24  C   UNL     1       0.413  10.076  20.012  0.00  0.00    +0.000 A 
ATOM     25  C   UNL     1      -0.488  11.113  19.798  0.00  0.00    +0.000 A 
ATOM     26  C   UNL     1      -1.180  11.664  20.876  0.00  0.00    +0.000 A 
ATOM     27  C   UNL     1      -0.986  11.183  22.183  0.00  0.00    +0.000 A 
ATOM     28  C   UNL     1      -0.123  10.097  22.363  0.00  0.00    +0.000 A 
BRANCH  28  29
ATOM     29  O   UNL     1       0.055   9.540  23.605  0.00  0.00    +0.000 OA
ATOM     30  H   UNL     1       0.072  10.284  24.249  0.00  0.00    +0.000 HD
ENDBRANCH  28  29
BRANCH  27  31
ATOM     31  C   UNL     1      -1.776  11.810  23.309  0.00  0.00    +0.000 C 
BRANCH  31  32
ATOM     32  N   UNL     1      -2.537  13.043  22.942  0.00  0.00    +0.000 NA
ATOM     33  C   UNL     1      -3.993  12.765  22.973  0.00  0.00    +0.000 C 
ATOM     34  C   UNL     1      -4.882  14.011  22.963  0.00  0.00    +0.000 C 
ATOM     35  C   UNL     1      -4.468  14.991  24.047  0.00  0.00    +0.000 C 
ATOM     36  C   UNL     1      -3.008  15.357  23.850  0.00  0.00    +0.000 C 
ATOM     37  C   UNL     1      -2.128  14.111  23.874  0.00  0.00    +0.000 C 
ENDBRANCH  31  32
ENDBRANCH  27  31
ENDBRANCH  22  23
ENDBRANCH  20  22
ENDBRANCH   4  20
TORSDOF 10
ENDMDL
MODEL 8
REMARK VINA RESULT:      -8.2      3.631      5.355
REMARK  Name = 
REMARK  12 active torsions:
REMARK  status: ('A' for Active; 'I' for Inactive)
REMARK    1  A    between atoms: C_1  and  O_2
REMARK    2  A    between atoms: O_2  and  C_3
REMARK    3  A    between atoms: C_3  and  C_5
REMARK    4  A    between atoms: C_5  and  C_6
REMARK    5  A    between atoms: C_5  and  C_7
REMARK    6  A    between atoms: C_10  and  C_11
REMARK    7  A    between atoms: C_14  and  N_15
REMARK    8  A    between atoms: N_15  and  C_16
REMARK    9  A    between atoms: C_16  and  C_17
REMARK   10  A    between atoms: C_21  and  C_22
REMARK   11  A    between atoms: C_22  and  N_23
REMARK   12  A    between atoms: C_29  and  O_30
REMARK                            x       y       z     vdW  Elec       q    Type
REMARK                         _______ _______ _______ _____ _____    ______ ____
ROOT
ATOM      1  C   UNL     1       1.326   8.959  19.219  0.00  0.00    +0.000 A 
ATOM      2  C   UNL     1       1.284  10.025  18.308  0.00  0.00    +0.000 A 
ATOM      3  C   UNL     1       0.450  11.127  18.514  0.00  0.00    +0.000 A 
ATOM      4  C   UNL     1      -0.377  11.200  19.636  0.00  0.00    +0.000 A 
ATOM      5  C   UNL     1      -0.308  10.168  20.572  0.00  0.00    +0.000 A 
ATOM      6  C   UNL     1       0.508   9.057  20.357  0.00  0.00    +0.000 A 
ENDROOT
BRANCH   1  10
ATOM      7  C   UNL     1       3.900   5.547  18.520  0.00  0.00    +0.000 A 
ATOM      8  C   UNL     1       3.865   6.622  17.628  0.00  0.00    +0.000 A 
ATOM      9  C   UNL     1       3.041   7.728  17.874  0.00  0.00    +0.000 A 
ATOM     10  C   UNL     1       2.221   7.803  19.012  0.00  0.00    +0.000 A 
ATOM     11  C   UNL     1       2.286   6.723  19.905  0.00  0.00    +0.000 A 
ATOM     12  F   UNL     1       1.547   6.711  21.026  0.00  0.00    +0.000 F 
ATOM     13  C   UNL     1       3.100   5.616  19.664  0.00  0.00    +0.000 A 
BRANCH   7  14
ATOM     14  C   UNL     1       4.690   4.281  18.240  0.00  0.00    +0.000 C 
ATOM     15  C   UNL     1       4.467   3.164  19.262  0.00  0.00    +0.000 C 
BRANCH  14  16
ATOM     16  C   UNL     1       6.176   4.602  18.131  0.00  0.00    +0.000 C 
ATOM     17  O   UNL     1       6.849   4.477  17.116  0.00  0.00    +0.000 OA
BRANCH  16  19
ATOM     18  C   UNL     1       7.825   5.831  19.254  0.00  0.00    +0.000 C 
ATOM     19  O   UNL     1       6.658   5.012  19.341  0.00  0.00    +0.000 OA
ENDBRANCH  16  19
ENDBRANCH  14  16
ENDBRANCH   7  14
ENDBRANCH   1  10
BRANCH   4  20
ATOM     20  N   UNL     1      -1.205  12.290  19.927  0.00  0.00    +0.000 N 
ATOM     21  H   UNL     1      -2.176  12.030  19.770  0.00  0.00    +0.000 HD
BRANCH  20  22
ATOM     22  C   UNL     1      -1.046  12.898  21.248  0.00  0.00    +0.000 C 
BRANCH  22  23
ATOM     23  C   UNL     1      -2.352  12.961  22.002  0.00  0.00    +0.000 A 
ATOM     24  C   UNL     1      -2.550  12.357  23.253  0.00  0.00    +0.000 A 
ATOM     25  C   UNL     1      -3.801  12.374  23.860  0.00  0.00    +0.000 A 
ATOM     26  C   UNL     1      -4.879  12.975  23.210  0.00  0.00    +0.000 A 
ATOM     27  C   UNL     1      -4.721  13.572  21.947  0.00  0.00    +0.000 A 
ATOM     28  C   UNL     1      -3.439  13.598  21.386  0.00  0.00    +0.000 A 
BRANCH  28  29
ATOM     29  O   UNL     1      -3.209  14.225  20.187  0.00  0.00    +0.000 OA
ATOM     30  H   UNL     1      -3.869  14.952  20.117  0.00  0.00    +0.000 HD
ENDBRANCH  28  29
BRANCH  27  31
ATOM     31  C   UNL     1      -5.922  14.222  21.298  0.00  0.00    +0.000 C 
BRANCH  31  32
ATOM     32  N   UNL     1      -6.778  13.306  20.485  0.00  0.00    +0.000 NA
ATOM     33  C   UNL     1      -6.442  13.445  19.048  0.00  0.00    +0.000 C 
ATOM     34  C   UNL     1      -6.988  12.330  18.153  0.00  0.00    +0.000 C 
ATOM     35  C   UNL     1      -6.615  10.959  18.692  0.00  0.00    +0.000 C 
ATOM     36  C   UNL     1      -7.139  10.830  20.112  0.00  0.00    +0.000 C 
ATOM     37  C   UNL     1      -6.580  11.938  21.000  0.00  0.00    +0.000 C 
ENDBRANCH  31  32
ENDBRANCH  27  31
ENDBRANCH  22  23
ENDBRANCH  20  22
ENDBRANCH   4  20
TORSDOF 10
ENDMDL
MODEL 9
REMARK VINA RESULT:      -8.1      4.183     12.025
REMARK  Name = 
REMARK  12 active torsions:
REMARK  status: ('A' for Active; 'I' for Inactive)
REMARK    1  A    between atoms: C_1  and  O_2
REMARK    2  A    between atoms: O_2  and  C_3
REMARK    3  A    between atoms: C_3  and  C_5
REMARK    4  A    between atoms: C_5  and  C_6
REMARK    5  A    between atoms: C_5  and  C_7
REMARK    6  A    between atoms: C_10  and  C_11
REMARK    7  A    between atoms: C_14  and  N_15
REMARK    8  A    between atoms: N_15  and  C_16
REMARK    9  A    between atoms: C_16  and  C_17
REMARK   10  A    between atoms: C_21  and  C_22
REMARK   11  A    between atoms: C_22  and  N_23
REMARK   12  A    between atoms: C_29  and  O_30
REMARK                            x       y       z     vdW  Elec       q    Type
REMARK                         _______ _______ _______ _____ _____    ______ ____
ROOT
ATOM      1  C   UNL     1      -0.273  10.813  21.886  0.00  0.00    +0.000 A 
ATOM      2  C   UNL     1      -0.197  10.599  20.502  0.00  0.00    +0.000 A 
ATOM      3  C   UNL     1       0.491   9.506  19.970  0.00  0.00    +0.000 A 
ATOM      4  C   UNL     1       1.136   8.591  20.804  0.00  0.00    +0.000 A 
ATOM      5  C   UNL     1       1.028   8.768  22.183  0.00  0.00    +0.000 A 
ATOM      6  C   UNL     1       0.358   9.871  22.716  0.00  0.00    +0.000 A 
ENDROOT
BRANCH   1  10
ATOM      7  C   UNL     1      -2.539  14.147  23.472  0.00  0.00    +0.000 A 
ATOM      8  C   UNL     1      -3.015  12.836  23.570  0.00  0.00    +0.000 A 
ATOM      9  C   UNL     1      -2.265  11.765  23.068  0.00  0.00    +0.000 A 
ATOM     10  C   UNL     1      -1.018  11.958  22.450  0.00  0.00    +0.000 A 
ATOM     11  C   UNL     1      -0.549  13.278  22.380  0.00  0.00    +0.000 A 
ATOM     12  F   UNL     1       0.637  13.558  21.815  0.00  0.00    +0.000 F 
ATOM     13  C   UNL     1      -1.293  14.351  22.871  0.00  0.00    +0.000 A 
BRANCH   7  14
ATOM     14  C   UNL     1      -3.364  15.347  23.898  0.00  0.00    +0.000 C 
ATOM     15  C   UNL     1      -3.196  15.734  25.369  0.00  0.00    +0.000 C 
BRANCH  14  16
ATOM     16  C   UNL     1      -4.837  15.112  23.584  0.00  0.00    +0.000 C 
ATOM     17  O   UNL     1      -5.276  14.174  22.933  0.00  0.00    +0.000 OA
BRANCH  16  19
ATOM     18  C   UNL     1      -5.709  17.261  23.246  0.00  0.00    +0.000 C 
ATOM     19  O   UNL     1      -5.595  16.124  24.102  0.00  0.00    +0.000 OA
ENDBRANCH  16  19
ENDBRANCH  14  16
ENDBRANCH   7  14
ENDBRANCH   1  10
BRANCH   4  20
ATOM     20  N   UNL     1       1.808   7.453  20.344  0.00  0.00    +0.000 N 
ATOM     21  H   UNL     1       2.797   7.665  20.234  0.00  0.00    +0.000 HD
BRANCH  20  22
ATOM     22  C   UNL     1       1.632   6.228  21.125  0.00  0.00    +0.000 C 
BRANCH  22  23
ATOM     23  C   UNL     1       1.831   4.989  20.287  0.00  0.00    +0.000 A 
ATOM     24  C   UNL     1       0.848   4.001  20.128  0.00  0.00    +0.000 A 
ATOM     25  C   UNL     1       1.120   2.838  19.414  0.00  0.00    +0.000 A 
ATOM     26  C   UNL     1       2.389   2.638  18.873  0.00  0.00    +0.000 A 
ATOM     27  C   UNL     1       3.404   3.598  19.030  0.00  0.00    +0.000 A 
ATOM     28  C   UNL     1       3.087   4.787  19.697  0.00  0.00    +0.000 A 
BRANCH  28  29
ATOM     29  O   UNL     1       4.015   5.790  19.823  0.00  0.00    +0.000 OA
ATOM     30  H   UNL     1       4.583   5.753  19.020  0.00  0.00    +0.000 HD
ENDBRANCH  28  29
BRANCH  27  31
ATOM     31  C   UNL     1       4.755   3.333  18.407  0.00  0.00    +0.000 C 
BRANCH  31  32
ATOM     32  N   UNL     1       5.222   4.369  17.437  0.00  0.00    +0.000 NA
ATOM     33  C   UNL     1       6.679   4.587  17.595  0.00  0.00    +0.000 C 
ATOM     34  C   UNL     1       7.340   5.352  16.445  0.00  0.00    +0.000 C 
ATOM     35  C   UNL     1       7.003   4.726  15.102  0.00  0.00    +0.000 C 
ATOM     36  C   UNL     1       5.493   4.688  14.941  0.00  0.00    +0.000 C 
ATOM     37  C   UNL     1       4.844   3.914  16.085  0.00  0.00    +0.000 C 
ENDBRANCH  31  32
ENDBRANCH  27  31
ENDBRANCH  22  23
ENDBRANCH  20  22
ENDBRANCH   4  20
TORSDOF 10
ENDMDL
