MODEL 1
REMARK VINA RESULT:      -8.2      0.000      0.000
REMARK  Name = 
REMARK  1 active torsions:
REMARK  status: ('A' for Active; 'I' for Inactive)
REMARK    1  A    between atoms: C_5  and  C_6
REMARK                            x       y       z     vdW  Elec       q    Type
REMARK                         _______ _______ _______ _____ _____    ______ ____
ROOT
ATOM      1  O   UNL     1       7.413   4.426  18.324  0.00  0.00    +0.000 OA
ATOM      2  C   UNL     1       6.206   4.456  18.081  0.00  0.00    +0.000 C 
ATOM      3  C   UNL     1       5.621   5.245  16.922  0.00  0.00    +0.000 C 
ATOM      4  N   UNL     1       4.728   6.286  17.414  0.00  0.00    +0.000 NA
ATOM      5  C   UNL     1       3.612   5.961  17.976  0.00  0.00    +0.000 C 
ATOM      6  C   UNL     1       3.130   4.558  18.162  0.00  0.00    +0.000 A 
ATOM      7  C   UNL     1       1.768   4.290  17.964  0.00  0.00    +0.000 A 
ATOM      8  C   UNL     1       1.278   3.050  18.331  0.00  0.00    +0.000 A 
ATOM      9  N   UNL     1       2.041   2.080  18.867  0.00  0.00    +0.000 NA
ATOM     10  C   UNL     1       3.360   2.349  19.009  0.00  0.00    +0.000 A 
ATOM     11  C   UNL     1       3.968   3.549  18.645  0.00  0.00    +0.000 A 
ATOM     12  N   UNL     1       5.358   3.658  18.800  0.00  0.00    +0.000 N 
ATOM     13  H   UNL     1       5.848   2.999  19.395  0.00  0.00    +0.000 HD
ENDROOT
BRANCH   5  14
ATOM     14  C   UNL     1       2.768   7.090  18.497  0.00  0.00    +0.000 A 
ATOM     15  C   UNL     1       2.372   7.082  19.841  0.00  0.00    +0.000 A 
ATOM     16  C   UNL     1       1.585   8.118  20.346  0.00  0.00    +0.000 A 
ATOM     17  C   UNL     1       1.186   9.162  19.513  0.00  0.00    +0.000 A 
ATOM     18  C   UNL     1       1.558   9.165  18.169  0.00  0.00    +0.000 A 
ATOM     19  C   UNL     1       2.336   8.125  17.658  0.00  0.00    +0.000 A 
ENDBRANCH   5  14
TORSDOF 1
ENDMDL
MODEL 2
REMARK VINA RESULT:      -8.2      0.218      1.159
REMARK  Name = 
REMARK  1 active torsions:
REMARK  status: ('A' for Active; 'I' for Inactive)
REMARK    1  A    between atoms: C_5  and  C_6
REMARK                            x       y       z     vdW  Elec       q    Type
REMARK                         _______ _______ _______ _____ _____    ______ ____
ROOT
ATOM      1  O   UNL     1       7.527   4.701  18.497  0.00  0.00    +0.000 OA
ATOM      2  C   UNL     1       6.330   4.694  18.208  0.00  0.00    +0.000 C 
ATOM      3  C   UNL     1       5.756   5.513  17.065  0.00  0.00    +0.000 C 
ATOM      4  N   UNL     1       4.803   6.494  17.569  0.00  0.00    +0.000 NA
ATOM      5  C   UNL     1       3.682   6.098  18.072  0.00  0.00    +0.000 C 
ATOM      6  C   UNL     1       3.252   4.670  18.174  0.00  0.00    +0.000 A 
ATOM      7  C   UNL     1       1.910   4.358  17.911  0.00  0.00    +0.000 A 
ATOM      8  C   UNL     1       1.458   3.084  18.202  0.00  0.00    +0.000 A 
ATOM      9  N   UNL     1       2.240   2.120  18.721  0.00  0.00    +0.000 NA
ATOM     10  C   UNL     1       3.541   2.434  18.927  0.00  0.00    +0.000 A 
ATOM     11  C   UNL     1       4.111   3.673  18.642  0.00  0.00    +0.000 A 
ATOM     12  N   UNL     1       5.489   3.830  18.857  0.00  0.00    +0.000 N 
ATOM     13  H   UNL     1       5.984   3.163  19.440  0.00  0.00    +0.000 HD
ENDROOT
BRANCH   5  14
ATOM     14  C   UNL     1       2.773   7.167  18.611  0.00  0.00    +0.000 A 
ATOM     15  C   UNL     1       2.427   8.248  17.790  0.00  0.00    +0.000 A 
ATOM     16  C   UNL     1       1.587   9.254  18.272  0.00  0.00    +0.000 A 
ATOM     17  C   UNL     1       1.094   9.188  19.574  0.00  0.00    +0.000 A 
ATOM     18  C   UNL     1       1.452   8.127  20.404  0.00  0.00    +0.000 A 
ATOM     19  C   UNL     1       2.300   7.124  19.930  0.00  0.00    +0.000 A 
ENDBRANCH   5  14
TORSDOF 1
ENDMDL
MODEL 3
REMARK VINA RESULT:      -7.9      2.426      5.191
REMARK  Name = 
REMARK  1 active torsions:
REMARK  status: ('A' for Active; 'I' for Inactive)
REMARK    1  A    between atoms: C_5  and  C_6
REMARK                            x       y       z     vdW  Elec       q    Type
REMARK                         _______ _______ _______ _____ _____    ______ ____
ROOT
ATOM      1  O   UNL     1       2.058   3.127  22.190  0.00  0.00    +0.000 OA
ATOM      2  C   UNL     1       2.130   3.770  21.143  0.00  0.00    +0.000 C 
ATOM      3  C   UNL     1       1.922   3.140  19.776  0.00  0.00    +0.000 C 
ATOM      4  N   UNL     1       3.138   3.242  18.979  0.00  0.00    +0.000 NA
ATOM      5  C   UNL     1       3.542   4.398  18.571  0.00  0.00    +0.000 C 
ATOM      6  C   UNL     1       2.840   5.690  18.844  0.00  0.00    +0.000 A 
ATOM      7  C   UNL     1       2.778   6.643  17.817  0.00  0.00    +0.000 A 
ATOM      8  C   UNL     1       2.318   7.911  18.119  0.00  0.00    +0.000 A 
ATOM      9  N   UNL     1       1.919   8.282  19.350  0.00  0.00    +0.000 NA
ATOM     10  C   UNL     1       1.950   7.331  20.314  0.00  0.00    +0.000 A 
ATOM     11  C   UNL     1       2.364   6.016  20.116  0.00  0.00    +0.000 A 
ATOM     12  N   UNL     1       2.285   5.129  21.201  0.00  0.00    +0.000 N 
ATOM     13  H   UNL     1       2.187   5.497  22.141  0.00  0.00    +0.000 HD
ENDROOT
BRANCH   5  14
ATOM     14  C   UNL     1       4.828   4.424  17.793  0.00  0.00    +0.000 A 
ATOM     15  C   UNL     1       4.827   4.002  16.458  0.00  0.00    +0.000 A 
ATOM     16  C   UNL     1       6.010   4.014  15.717  0.00  0.00    +0.000 A 
ATOM     17  C   UNL     1       7.198   4.443  16.306  0.00  0.00    +0.000 A 
ATOM     18  C   UNL     1       7.212   4.845  17.641  0.00  0.00    +0.000 A 
ATOM     19  C   UNL     1       6.032   4.823  18.389  0.00  0.00    +0.000 A 
ENDBRANCH   5  14
TORSDOF 1
ENDMDL
MODEL 4
REMARK VINA RESULT:      -7.9      2.424      5.107
REMARK  Name = 
REMARK  1 active torsions:
REMARK  status: ('A' for Active; 'I' for Inactive)
REMARK    1  A    between atoms: C_5  and  C_6
REMARK                            x       y       z     vdW  Elec       q    Type
REMARK                         _______ _______ _______ _____ _____    ______ ____
ROOT
ATOM      1  O   UNL     1       2.004   2.982  22.162  0.00  0.00    +0.000 OA
ATOM      2  C   UNL     1       2.085   3.651  21.132  0.00  0.00    +0.000 C 
ATOM      3  C   UNL     1       1.879   3.057  19.748  0.00  0.00    +0.000 C 
ATOM      4  N   UNL     1       3.098   3.170  18.959  0.00  0.00    +0.000 NA
ATOM      5  C   UNL     1       3.513   4.333  18.582  0.00  0.00    +0.000 C 
ATOM      6  C   UNL     1       2.820   5.622  18.885  0.00  0.00    +0.000 A 
ATOM      7  C   UNL     1       2.769   6.602  17.882  0.00  0.00    +0.000 A 
ATOM      8  C   UNL     1       2.317   7.865  18.215  0.00  0.00    +0.000 A 
ATOM      9  N   UNL     1       1.915   8.208  19.453  0.00  0.00    +0.000 NA
ATOM     10  C   UNL     1       1.935   7.233  20.393  0.00  0.00    +0.000 A 
ATOM     11  C   UNL     1       2.340   5.919  20.163  0.00  0.00    +0.000 A 
ATOM     12  N   UNL     1       2.250   5.007  21.225  0.00  0.00    +0.000 N 
ATOM     13  H   UNL     1       2.151   5.351  22.173  0.00  0.00    +0.000 HD
ENDROOT
BRANCH   5  14
ATOM     14  C   UNL     1       4.802   4.369  17.811  0.00  0.00    +0.000 A 
ATOM     15  C   UNL     1       5.966   4.819  18.446  0.00  0.00    +0.000 A 
ATOM     16  C   UNL     1       7.174   4.866  17.747  0.00  0.00    +0.000 A 
ATOM     17  C   UNL     1       7.224   4.467  16.412  0.00  0.00    +0.000 A 
ATOM     18  C   UNL     1       6.065   4.038  15.767  0.00  0.00    +0.000 A 
ATOM     19  C   UNL     1       4.853   4.001  16.459  0.00  0.00    +0.000 A 
ENDBRANCH   5  14
TORSDOF 1
ENDMDL
MODEL 5
REMARK VINA RESULT:      -7.2      2.385      4.110
REMARK  Name = 
REMARK  1 active torsions:
REMARK  status: ('A' for Active; 'I' for Inactive)
REMARK    1  A    between atoms: C_5  and  C_6
REMARK                            x       y       z     vdW  Elec       q    Type
REMARK                         _______ _______ _______ _____ _____    ______ ____
ROOT
ATOM      1  O   UNL     1       3.717   0.879  18.635  0.00  0.00    +0.000 OA
ATOM      2  C   UNL     1       3.560   2.097  18.547  0.00  0.00    +0.000 C 
ATOM      3  C   UNL     1       3.668   2.847  17.230  0.00  0.00    +0.000 C 
ATOM      4  N   UNL     1       4.766   3.804  17.278  0.00  0.00    +0.000 NA
ATOM      5  C   UNL     1       4.685   4.834  18.052  0.00  0.00    +0.000 C 
ATOM      6  C   UNL     1       3.515   5.151  18.927  0.00  0.00    +0.000 A 
ATOM      7  C   UNL     1       3.109   6.489  19.035  0.00  0.00    +0.000 A 
ATOM      8  C   UNL     1       2.168   6.819  19.994  0.00  0.00    +0.000 A 
ATOM      9  N   UNL     1       1.613   5.920  20.828  0.00  0.00    +0.000 NA
ATOM     10  C   UNL     1       1.992   4.629  20.675  0.00  0.00    +0.000 A 
ATOM     11  C   UNL     1       2.906   4.180  19.724  0.00  0.00    +0.000 A 
ATOM     12  N   UNL     1       3.153   2.801  19.649  0.00  0.00    +0.000 N 
ATOM     13  H   UNL     1       2.885   2.201  20.422  0.00  0.00    +0.000 HD
ENDROOT
BRANCH   5  14
ATOM     14  C   UNL     1       5.877   5.749  18.079  0.00  0.00    +0.000 A 
ATOM     15  C   UNL     1       6.877   5.540  19.036  0.00  0.00    +0.000 A 
ATOM     16  C   UNL     1       7.991   6.380  19.083  0.00  0.00    +0.000 A 
ATOM     17  C   UNL     1       8.108   7.434  18.178  0.00  0.00    +0.000 A 
ATOM     18  C   UNL     1       7.106   7.662  17.236  0.00  0.00    +0.000 A 
ATOM     19  C   UNL     1       5.986   6.831  17.194  0.00  0.00    +0.000 A 
ENDBRANCH   5  14
TORSDOF 1
ENDMDL
MODEL 6
REMARK VINA RESULT:      -7.2      2.398      4.312
REMARK  Name = 
REMARK  1 active torsions:
REMARK  status: ('A' for Active; 'I' for Inactive)
REMARK    1  A    between atoms: C_5  and  C_6
REMARK                            x       y       z     vdW  Elec       q    Type
REMARK                         _______ _______ _______ _____ _____    ______ ____
ROOT
ATOM      1  O   UNL     1       3.332   1.047  18.547  0.00  0.00    +0.000 OA
ATOM      2  C   UNL     1       3.255   2.274  18.477  0.00  0.00    +0.000 C 
ATOM      3  C   UNL     1       3.443   3.036  17.176  0.00  0.00    +0.000 C 
ATOM      4  N   UNL     1       4.599   3.919  17.267  0.00  0.00    +0.000 NA
ATOM      5  C   UNL     1       4.564   4.940  18.056  0.00  0.00    +0.000 C 
ATOM      6  C   UNL     1       3.395   5.318  18.908  0.00  0.00    +0.000 A 
ATOM      7  C   UNL     1       3.073   6.678  19.030  0.00  0.00    +0.000 A 
ATOM      8  C   UNL     1       2.131   7.051  19.971  0.00  0.00    +0.000 A 
ATOM      9  N   UNL     1       1.500   6.178  20.777  0.00  0.00    +0.000 NA
ATOM     10  C   UNL     1       1.799   4.867  20.610  0.00  0.00    +0.000 A 
ATOM     11  C   UNL     1       2.706   4.375  19.674  0.00  0.00    +0.000 A 
ATOM     12  N   UNL     1       2.867   2.984  19.581  0.00  0.00    +0.000 N 
ATOM     13  H   UNL     1       2.542   2.391  20.336  0.00  0.00    +0.000 HD
ENDROOT
BRANCH   5  14
ATOM     14  C   UNL     1       5.810   5.777  18.127  0.00  0.00    +0.000 A 
ATOM     15  C   UNL     1       5.977   6.832  17.221  0.00  0.00    +0.000 A 
ATOM     16  C   UNL     1       7.129   7.620  17.266  0.00  0.00    +0.000 A 
ATOM     17  C   UNL     1       8.119   7.356  18.211  0.00  0.00    +0.000 A 
ATOM     18  C   UNL     1       7.970   6.294  19.101  0.00  0.00    +0.000 A 
ATOM     19  C   UNL     1       6.825   5.496  19.052  0.00  0.00    +0.000 A 
ENDBRANCH   5  14
TORSDOF 1
ENDMDL
MODEL 7
REMARK VINA RESULT:      -7.2      2.922      4.772
REMARK  Name = 
REMARK  1 active torsions:
REMARK  status: ('A' for Active; 'I' for Inactive)
REMARK    1  A    between atoms: C_5  and  C_6
REMARK                            x       y       z     vdW  Elec       q    Type
REMARK                         _______ _______ _______ _____ _____    ______ ____
ROOT
ATOM      1  O   UNL     1       7.991   7.353  18.196  0.00  0.00    +0.000 OA
ATOM      2  C   UNL     1       7.172   6.857  17.421  0.00  0.00    +0.000 C 
ATOM      3  C   UNL     1       5.747   7.367  17.295  0.00  0.00    +0.000 C 
ATOM      4  N   UNL     1       4.799   6.331  17.685  0.00  0.00    +0.000 NA
ATOM      5  C   UNL     1       4.665   5.277  16.952  0.00  0.00    +0.000 C 
ATOM      6  C   UNL     1       5.416   5.020  15.684  0.00  0.00    +0.000 A 
ATOM      7  C   UNL     1       4.728   4.435  14.611  0.00  0.00    +0.000 A 
ATOM      8  C   UNL     1       5.455   4.007  13.516  0.00  0.00    +0.000 A 
ATOM      9  N   UNL     1       6.792   4.127  13.420  0.00  0.00    +0.000 NA
ATOM     10  C   UNL     1       7.427   4.732  14.451  0.00  0.00    +0.000 A 
ATOM     11  C   UNL     1       6.793   5.230  15.588  0.00  0.00    +0.000 A 
ATOM     12  N   UNL     1       7.580   5.885  16.548  0.00  0.00    +0.000 N 
ATOM     13  H   UNL     1       8.587   5.762  16.538  0.00  0.00    +0.000 HD
ENDROOT
BRANCH   5  14
ATOM     14  C   UNL     1       3.701   4.234  17.445  0.00  0.00    +0.000 A 
ATOM     15  C   UNL     1       2.375   4.600  17.708  0.00  0.00    +0.000 A 
ATOM     16  C   UNL     1       1.463   3.649  18.170  0.00  0.00    +0.000 A 
ATOM     17  C   UNL     1       1.872   2.332  18.375  0.00  0.00    +0.000 A 
ATOM     18  C   UNL     1       3.195   1.966  18.136  0.00  0.00    +0.000 A 
ATOM     19  C   UNL     1       4.113   2.916  17.685  0.00  0.00    +0.000 A 
ENDBRANCH   5  14
TORSDOF 1
ENDMDL
MODEL 8
REMARK VINA RESULT:      -7.1      1.949      3.368
REMARK  Name = 
REMARK  1 active torsions:
REMARK  status: ('A' for Active; 'I' for Inactive)
REMARK    1  A    between atoms: C_5  and  C_6
REMARK                            x       y       z     vdW  Elec       q    Type
REMARK                         _______ _______ _______ _____ _____    ______ ____
ROOT
ATOM      1  O   UNL     1       3.202   1.410  18.276  0.00  0.00    +0.000 OA
ATOM      2  C   UNL     1       3.794   2.482  18.405  0.00  0.00    +0.000 C 
ATOM      3  C   UNL     1       3.906   3.204  19.737  0.00  0.00    +0.000 C 
ATOM      4  N   UNL     1       3.241   4.499  19.673  0.00  0.00    +0.000 NA
ATOM      5  C   UNL     1       3.733   5.435  18.933  0.00  0.00    +0.000 C 
ATOM      6  C   UNL     1       4.978   5.309  18.115  0.00  0.00    +0.000 A 
ATOM      7  C   UNL     1       5.853   6.404  18.061  0.00  0.00    +0.000 A 
ATOM      8  C   UNL     1       6.894   6.373  17.151  0.00  0.00    +0.000 A 
ATOM      9  N   UNL     1       7.118   5.344  16.314  0.00  0.00    +0.000 NA
ATOM     10  C   UNL     1       6.284   4.282  16.415  0.00  0.00    +0.000 A 
ATOM     11  C   UNL     1       5.224   4.190  17.315  0.00  0.00    +0.000 A 
ATOM     12  N   UNL     1       4.482   2.999  17.341  0.00  0.00    +0.000 N 
ATOM     13  H   UNL     1       4.547   2.352  16.562  0.00  0.00    +0.000 HD
ENDROOT
BRANCH   5  14
ATOM     14  C   UNL     1       2.965   6.726  18.884  0.00  0.00    +0.000 A 
ATOM     15  C   UNL     1       2.269   7.151  20.024  0.00  0.00    +0.000 A 
ATOM     16  C   UNL     1       1.546   8.345  20.000  0.00  0.00    +0.000 A 
ATOM     17  C   UNL     1       1.510   9.116  18.840  0.00  0.00    +0.000 A 
ATOM     18  C   UNL     1       2.182   8.690  17.696  0.00  0.00    +0.000 A 
ATOM     19  C   UNL     1       2.898   7.491  17.711  0.00  0.00    +0.000 A 
ENDBRANCH   5  14
TORSDOF 1
ENDMDL
MODEL 9
REMARK VINA RESULT:      -7.1      2.931      4.742
REMARK  Name = 
REMARK  1 active torsions:
REMARK  status: ('A' for Active; 'I' for Inactive)
REMARK    1  A    between atoms: C_5  and  C_6
REMARK                            x       y       z     vdW  Elec       q    Type
REMARK                         _______ _______ _______ _____ _____    ______ ____
ROOT
ATOM      1  O   UNL     1       7.977   7.400  18.152  0.00  0.00    +0.000 OA
ATOM      2  C   UNL     1       7.157   6.893  17.385  0.00  0.00    +0.000 C 
ATOM      3  C   UNL     1       5.730   7.399  17.257  0.00  0.00    +0.000 C 
ATOM      4  N   UNL     1       4.785   6.366  17.661  0.00  0.00    +0.000 NA
ATOM      5  C   UNL     1       4.652   5.303  16.942  0.00  0.00    +0.000 C 
ATOM      6  C   UNL     1       5.399   5.032  15.676  0.00  0.00    +0.000 A 
ATOM      7  C   UNL     1       4.711   4.432  14.612  0.00  0.00    +0.000 A 
ATOM      8  C   UNL     1       5.436   3.992  13.520  0.00  0.00    +0.000 A 
ATOM      9  N   UNL     1       6.773   4.113  13.419  0.00  0.00    +0.000 NA
ATOM     10  C   UNL     1       7.408   4.732  14.442  0.00  0.00    +0.000 A 
ATOM     11  C   UNL     1       6.777   5.243  15.574  0.00  0.00    +0.000 A 
ATOM     12  N   UNL     1       7.565   5.911  16.523  0.00  0.00    +0.000 N 
ATOM     13  H   UNL     1       8.571   5.791  16.512  0.00  0.00    +0.000 HD
ENDROOT
BRANCH   5  14
ATOM     14  C   UNL     1       3.691   4.265  17.450  0.00  0.00    +0.000 A 
ATOM     15  C   UNL     1       4.135   2.947  17.619  0.00  0.00    +0.000 A 
ATOM     16  C   UNL     1       3.259   1.965  18.085  0.00  0.00    +0.000 A 
ATOM     17  C   UNL     1       1.937   2.293  18.380  0.00  0.00    +0.000 A 
ATOM     18  C   UNL     1       1.481   3.597  18.194  0.00  0.00    +0.000 A 
ATOM     19  C   UNL     1       2.351   4.579  17.717  0.00  0.00    +0.000 A 
ENDBRANCH   5  14
TORSDOF 1
ENDMDL
