MODEL 1
REMARK VINA RESULT:      -8.6      0.000      0.000
REMARK  Name = 
REMARK  5 active torsions:
REMARK  status: ('A' for Active; 'I' for Inactive)
REMARK    1  A    between atoms: C_1  and  C_2
REMARK    2  A    between atoms: C_5  and  C_7
REMARK    3  A    between atoms: N_15  and  S_16
REMARK    4  A    between atoms: S_16  and  C_19
REMARK    5  A    between atoms: C_22  and  C_23
REMARK                            x       y       z     vdW  Elec       q    Type
REMARK                         _______ _______ _______ _____ _____    ______ ____
ROOT
ATOM      1  C   UNL     1       3.726   4.601  16.627  0.00  0.00    +0.000 C 
ATOM      2  C   UNL     1       4.038   5.980  17.216  0.00  0.00    +0.000 C 
ATOM      3  C   UNL     1       5.335   6.554  16.641  0.00  0.00    +0.000 C 
ATOM      4  N   UNL     1       6.511   5.801  17.081  0.00  0.00    +0.000 N 
ATOM      5  C   UNL     1       7.278   4.884  16.344  0.00  0.00    +0.000 C 
ATOM      6  O   UNL     1       8.144   4.191  16.876  0.00  0.00    +0.000 OA
ATOM      7  C   UNL     1       6.639   5.788  18.550  0.00  0.00    +0.000 C 
ATOM      8  C   UNL     1       5.349   5.271  19.234  0.00  0.00    +0.000 C 
ATOM      9  N   UNL     1       4.128   5.973  18.708  0.00  0.00    +0.000 NA
ENDROOT
BRANCH   5  10
ATOM     10  C   UNL     1       7.021   4.647  14.889  0.00  0.00    +0.000 A 
ATOM     11  C   UNL     1       6.058   3.761  14.406  0.00  0.00    +0.000 A 
ATOM     12  C   UNL     1       6.007   3.437  13.048  0.00  0.00    +0.000 A 
ATOM     13  C   UNL     1       6.824   4.108  12.142  0.00  0.00    +0.000 A 
ATOM     14  C   UNL     1       7.682   5.108  12.592  0.00  0.00    +0.000 A 
ATOM     15  C   UNL     1       7.793   5.367  13.962  0.00  0.00    +0.000 A 
ENDBRANCH   5  10
BRANCH   9  16
ATOM     16  S   UNL     1       2.665   5.646  19.502  0.00  0.00    +0.000 S 
ATOM     17  O   UNL     1       1.757   5.021  18.563  0.00  0.00    +0.000 OA
ATOM     18  O   UNL     1       2.975   5.031  20.776  0.00  0.00    +0.000 OA
BRANCH  16  19
ATOM     19  C   UNL     1       1.905   7.192  19.918  0.00  0.00    +0.000 A 
ATOM     20  C   UNL     1       1.357   7.669  21.091  0.00  0.00    +0.000 A 
ATOM     21  C   UNL     1       0.858   8.994  20.947  0.00  0.00    +0.000 A 
ATOM     22  C   UNL     1       1.030   9.497  19.669  0.00  0.00    +0.000 A 
ATOM     23  S   UNL     1       1.808   8.343  18.662  0.00  0.00    +0.000 S 
BRANCH  22  24
ATOM     24  C   UNL     1       0.697  10.833  19.165  0.00  0.00    +0.000 A 
ATOM     25  C   UNL     1       1.635  11.850  18.999  0.00  0.00    +0.000 A 
ATOM     26  C   UNL     1       1.199  13.100  18.568  0.00  0.00    +0.000 A 
ATOM     27  C   UNL     1      -0.152  13.298  18.311  0.00  0.00    +0.000 A 
ATOM     28  C   UNL     1      -1.013  12.228  18.479  0.00  0.00    +0.000 A 
ATOM     29  N   UNL     1      -0.620  11.004  18.892  0.00  0.00    +0.000 NA
ENDBRANCH  22  24
ENDBRANCH  16  19
ENDBRANCH   9  16
TORSDOF 4
ENDMDL
MODEL 2
REMARK VINA RESULT:      -8.2      1.586      1.962
REMARK  Name = 
REMARK  5 active torsions:
REMARK  status: ('A' for Active; 'I' for Inactive)
REMARK    1  A    between atoms: C_1  and  C_2
REMARK    2  A    between atoms: C_5  and  C_7
REMARK    3  A    between atoms: N_15  and  S_16
REMARK    4  A    between atoms: S_16  and  C_19
REMARK    5  A    between atoms: C_22  and  C_23
REMARK                            x       y       z     vdW  Elec       q    Type
REMARK                         _______ _______ _______ _____ _____    ______ ____
ROOT
ATOM      1  C   UNL     1       3.793   4.907  16.532  0.00  0.00    +0.000 C 
ATOM      2  C   UNL     1       4.218   6.240  17.156  0.00  0.00    +0.000 C 
ATOM      3  C   UNL     1       5.583   6.693  16.631  0.00  0.00    +0.000 C 
ATOM      4  N   UNL     1       6.665   5.822  17.094  0.00  0.00    +0.000 N 
ATOM      5  C   UNL     1       7.363   4.845  16.364  0.00  0.00    +0.000 C 
ATOM      6  O   UNL     1       8.139   4.063  16.909  0.00  0.00    +0.000 OA
ATOM      7  C   UNL     1       6.744   5.773  18.565  0.00  0.00    +0.000 C 
ATOM      8  C   UNL     1       5.388   5.375  19.199  0.00  0.00    +0.000 C 
ATOM      9  N   UNL     1       4.259   6.202  18.649  0.00  0.00    +0.000 NA
ENDROOT
BRANCH   5  10
ATOM     10  C   UNL     1       7.131   4.657  14.897  0.00  0.00    +0.000 A 
ATOM     11  C   UNL     1       6.186   3.777  14.368  0.00  0.00    +0.000 A 
ATOM     12  C   UNL     1       6.159   3.502  12.999  0.00  0.00    +0.000 A 
ATOM     13  C   UNL     1       6.982   4.213  12.130  0.00  0.00    +0.000 A 
ATOM     14  C   UNL     1       7.821   5.205  12.629  0.00  0.00    +0.000 A 
ATOM     15  C   UNL     1       7.909   5.417  14.009  0.00  0.00    +0.000 A 
ENDBRANCH   5  10
BRANCH   9  16
ATOM     16  S   UNL     1       2.746   6.008  19.392  0.00  0.00    +0.000 S 
ATOM     17  O   UNL     1       1.909   5.197  18.534  0.00  0.00    +0.000 OA
ATOM     18  O   UNL     1       2.970   5.655  20.779  0.00  0.00    +0.000 OA
BRANCH  16  19
ATOM     19  C   UNL     1       1.951   7.591  19.449  0.00  0.00    +0.000 A 
ATOM     20  C   UNL     1       1.815   8.593  18.510  0.00  0.00    +0.000 A 
ATOM     21  C   UNL     1       1.080   9.701  19.015  0.00  0.00    +0.000 A 
ATOM     22  C   UNL     1       0.677   9.524  20.328  0.00  0.00    +0.000 A 
ATOM     23  S   UNL     1       1.197   8.000  20.923  0.00  0.00    +0.000 S 
BRANCH  22  24
ATOM     24  C   UNL     1      -0.140  10.418  21.156  0.00  0.00    +0.000 A 
ATOM     25  C   UNL     1      -0.583  11.669  20.733  0.00  0.00    +0.000 A 
ATOM     26  C   UNL     1      -1.306  12.460  21.624  0.00  0.00    +0.000 A 
ATOM     27  C   UNL     1      -1.568  11.980  22.900  0.00  0.00    +0.000 A 
ATOM     28  C   UNL     1      -1.112  10.717  23.231  0.00  0.00    +0.000 A 
ATOM     29  N   UNL     1      -0.412   9.925  22.390  0.00  0.00    +0.000 NA
ENDBRANCH  22  24
ENDBRANCH  16  19
ENDBRANCH   9  16
TORSDOF 4
ENDMDL
MODEL 3
REMARK VINA RESULT:      -8.0      0.575      1.267
REMARK  Name = 
REMARK  5 active torsions:
REMARK  status: ('A' for Active; 'I' for Inactive)
REMARK    1  A    between atoms: C_1  and  C_2
REMARK    2  A    between atoms: C_5  and  C_7
REMARK    3  A    between atoms: N_15  and  S_16
REMARK    4  A    between atoms: S_16  and  C_19
REMARK    5  A    between atoms: C_22  and  C_23
REMARK                            x       y       z     vdW  Elec       q    Type
REMARK                         _______ _______ _______ _____ _____    ______ ____
ROOT
ATOM      1  C   UNL     1       3.777   4.515  16.663  0.00  0.00    +0.000 C 
ATOM      2  C   UNL     1       4.036   5.917  17.222  0.00  0.00    +0.000 C 
ATOM      3  C   UNL     1       5.338   6.507  16.675  0.00  0.00    +0.000 C 
ATOM      4  N   UNL     1       6.516   5.795  17.176  0.00  0.00    +0.000 N 
ATOM      5  C   UNL     1       7.329   4.876  16.492  0.00  0.00    +0.000 C 
ATOM      6  O   UNL     1       8.192   4.220  17.072  0.00  0.00    +0.000 OA
ATOM      7  C   UNL     1       6.594   5.825  18.648  0.00  0.00    +0.000 C 
ATOM      8  C   UNL     1       5.293   5.297  19.303  0.00  0.00    +0.000 C 
ATOM      9  N   UNL     1       4.076   5.954  18.716  0.00  0.00    +0.000 NA
ENDROOT
BRANCH   5  10
ATOM     10  C   UNL     1       7.127   4.592  15.036  0.00  0.00    +0.000 A 
ATOM     11  C   UNL     1       7.873   5.190  14.019  0.00  0.00    +0.000 A 
ATOM     12  C   UNL     1       7.501   5.036  12.681  0.00  0.00    +0.000 A 
ATOM     13  C   UNL     1       6.469   4.166  12.342  0.00  0.00    +0.000 A 
ATOM     14  C   UNL     1       5.817   3.443  13.337  0.00  0.00    +0.000 A 
ATOM     15  C   UNL     1       6.133   3.666  14.681  0.00  0.00    +0.000 A 
ENDBRANCH   5  10
BRANCH   9  16
ATOM     16  S   UNL     1       2.594   5.614  19.470  0.00  0.00    +0.000 S 
ATOM     17  O   UNL     1       1.689   5.060  18.486  0.00  0.00    +0.000 OA
ATOM     18  O   UNL     1       2.872   4.924  20.713  0.00  0.00    +0.000 OA
BRANCH  16  19
ATOM     19  C   UNL     1       1.858   7.150  19.959  0.00  0.00    +0.000 A 
ATOM     20  C   UNL     1       1.313   7.578  21.152  0.00  0.00    +0.000 A 
ATOM     21  C   UNL     1       0.836   8.916  21.073  0.00  0.00    +0.000 A 
ATOM     22  C   UNL     1       1.022   9.478  19.821  0.00  0.00    +0.000 A 
ATOM     23  S   UNL     1       1.784   8.363  18.761  0.00  0.00    +0.000 S 
BRANCH  22  24
ATOM     24  C   UNL     1       0.712  10.843  19.382  0.00  0.00    +0.000 A 
ATOM     25  C   UNL     1      -0.571  11.386  19.402  0.00  0.00    +0.000 A 
ATOM     26  C   UNL     1      -0.760  12.674  18.908  0.00  0.00    +0.000 A 
ATOM     27  C   UNL     1       0.330  13.382  18.419  0.00  0.00    +0.000 A 
ATOM     28  C   UNL     1       1.574  12.778  18.458  0.00  0.00    +0.000 A 
ATOM     29  N   UNL     1       1.790  11.533  18.933  0.00  0.00    +0.000 NA
ENDBRANCH  22  24
ENDBRANCH  16  19
ENDBRANCH   9  16
TORSDOF 4
ENDMDL
MODEL 4
REMARK VINA RESULT:      -8.0      1.451      2.149
REMARK  Name = 
REMARK  5 active torsions:
REMARK  status: ('A' for Active; 'I' for Inactive)
REMARK    1  A    between atoms: C_1  and  C_2
REMARK    2  A    between atoms: C_5  and  C_7
REMARK    3  A    between atoms: N_15  and  S_16
REMARK    4  A    between atoms: S_16  and  C_19
REMARK    5  A    between atoms: C_22  and  C_23
REMARK                            x       y       z     vdW  Elec       q    Type
REMARK                         _______ _______ _______ _____ _____    ______ ____
ROOT
ATOM      1  C   UNL     1       3.854   4.789  16.557  0.00  0.00    +0.000 C 
ATOM      2  C   UNL     1       4.228   6.154  17.142  0.00  0.00    +0.000 C 
ATOM      3  C   UNL     1       5.585   6.634  16.620  0.00  0.00    +0.000 C 
ATOM      4  N   UNL     1       6.688   5.814  17.124  0.00  0.00    +0.000 N 
ATOM      5  C   UNL     1       7.426   4.837  16.435  0.00  0.00    +0.000 C 
ATOM      6  O   UNL     1       8.220   4.098  17.015  0.00  0.00    +0.000 OA
ATOM      7  C   UNL     1       6.748   5.815  18.597  0.00  0.00    +0.000 C 
ATOM      8  C   UNL     1       5.397   5.394  19.227  0.00  0.00    +0.000 C 
ATOM      9  N   UNL     1       4.251   6.165  18.636  0.00  0.00    +0.000 NA
ENDROOT
BRANCH   5  10
ATOM     10  C   UNL     1       7.220   4.594  14.972  0.00  0.00    +0.000 A 
ATOM     11  C   UNL     1       7.945   5.239  13.969  0.00  0.00    +0.000 A 
ATOM     12  C   UNL     1       7.567   5.118  12.630  0.00  0.00    +0.000 A 
ATOM     13  C   UNL     1       6.552   4.237  12.270  0.00  0.00    +0.000 A 
ATOM     14  C   UNL     1       5.924   3.469  13.247  0.00  0.00    +0.000 A 
ATOM     15  C   UNL     1       6.244   3.657  14.595  0.00  0.00    +0.000 A 
ENDBRANCH   5  10
BRANCH   9  16
ATOM     16  S   UNL     1       2.734   5.946  19.366  0.00  0.00    +0.000 S 
ATOM     17  O   UNL     1       1.907   5.149  18.486  0.00  0.00    +0.000 OA
ATOM     18  O   UNL     1       2.953   5.566  20.747  0.00  0.00    +0.000 OA
BRANCH  16  19
ATOM     19  C   UNL     1       1.929   7.523  19.451  0.00  0.00    +0.000 A 
ATOM     20  C   UNL     1       1.801   8.548  18.537  0.00  0.00    +0.000 A 
ATOM     21  C   UNL     1       1.052   9.639  19.060  0.00  0.00    +0.000 A 
ATOM     22  C   UNL     1       0.631   9.426  20.362  0.00  0.00    +0.000 A 
ATOM     23  S   UNL     1       1.152   7.890  20.925  0.00  0.00    +0.000 S 
BRANCH  22  24
ATOM     24  C   UNL     1      -0.203  10.294  21.201  0.00  0.00    +0.000 A 
ATOM     25  C   UNL     1      -0.400  10.087  22.564  0.00  0.00    +0.000 A 
ATOM     26  C   UNL     1      -1.259  10.941  23.253  0.00  0.00    +0.000 A 
ATOM     27  C   UNL     1      -1.888  11.972  22.567  0.00  0.00    +0.000 A 
ATOM     28  C   UNL     1      -1.618  12.120  21.218  0.00  0.00    +0.000 A 
ATOM     29  N   UNL     1      -0.788  11.312  20.524  0.00  0.00    +0.000 NA
ENDBRANCH  22  24
ENDBRANCH  16  19
ENDBRANCH   9  16
TORSDOF 4
ENDMDL
MODEL 5
REMARK VINA RESULT:      -7.8      4.085     11.182
REMARK  Name = 
REMARK  5 active torsions:
REMARK  status: ('A' for Active; 'I' for Inactive)
REMARK    1  A    between atoms: C_1  and  C_2
REMARK    2  A    between atoms: C_5  and  C_7
REMARK    3  A    between atoms: N_15  and  S_16
REMARK    4  A    between atoms: S_16  and  C_19
REMARK    5  A    between atoms: C_22  and  C_23
REMARK                            x       y       z     vdW  Elec       q    Type
REMARK                         _______ _______ _______ _____ _____    ______ ____
ROOT
ATOM      1  C   UNL     1      -1.523  11.277  22.806  0.00  0.00    +0.000 C 
ATOM      2  C   UNL     1      -0.519  11.834  21.793  0.00  0.00    +0.000 C 
ATOM      3  C   UNL     1      -1.013  13.146  21.179  0.00  0.00    +0.000 C 
ATOM      4  N   UNL     1      -2.181  12.944  20.319  0.00  0.00    +0.000 N 
ATOM      5  C   UNL     1      -3.525  13.248  20.597  0.00  0.00    +0.000 C 
ATOM      6  O   UNL     1      -4.436  12.879  19.859  0.00  0.00    +0.000 OA
ATOM      7  C   UNL     1      -1.897  12.011  19.213  0.00  0.00    +0.000 C 
ATOM      8  C   UNL     1      -1.336  10.663  19.730  0.00  0.00    +0.000 C 
ATOM      9  N   UNL     1      -0.201  10.873  20.693  0.00  0.00    +0.000 NA
ENDROOT
BRANCH   5  10
ATOM     10  C   UNL     1      -3.917  13.966  21.850  0.00  0.00    +0.000 A 
ATOM     11  C   UNL     1      -4.466  13.335  22.966  0.00  0.00    +0.000 A 
ATOM     12  C   UNL     1      -4.994  14.085  24.019  0.00  0.00    +0.000 A 
ATOM     13  C   UNL     1      -4.845  15.469  24.031  0.00  0.00    +0.000 A 
ATOM     14  C   UNL     1      -4.160  16.100  22.996  0.00  0.00    +0.000 A 
ATOM     15  C   UNL     1      -3.710  15.355  21.900  0.00  0.00    +0.000 A 
ENDBRANCH   5  10
BRANCH   9  16
ATOM     16  S   UNL     1       0.635   9.483  21.191  0.00  0.00    +0.000 S 
ATOM     17  O   UNL     1       1.694   9.878  22.095  0.00  0.00    +0.000 OA
ATOM     18  O   UNL     1      -0.342   8.482  21.565  0.00  0.00    +0.000 OA
BRANCH  16  19
ATOM     19  C   UNL     1       1.465   8.803  19.781  0.00  0.00    +0.000 A 
ATOM     20  C   UNL     1       1.790   9.337  18.551  0.00  0.00    +0.000 A 
ATOM     21  C   UNL     1       2.470   8.399  17.724  0.00  0.00    +0.000 A 
ATOM     22  C   UNL     1       2.643   7.169  18.338  0.00  0.00    +0.000 A 
ATOM     23  S   UNL     1       1.978   7.181  19.921  0.00  0.00    +0.000 S 
BRANCH  22  24
ATOM     24  C   UNL     1       3.342   5.987  17.823  0.00  0.00    +0.000 A 
ATOM     25  C   UNL     1       2.784   4.710  17.805  0.00  0.00    +0.000 A 
ATOM     26  C   UNL     1       3.560   3.648  17.346  0.00  0.00    +0.000 A 
ATOM     27  C   UNL     1       4.858   3.889  16.915  0.00  0.00    +0.000 A 
ATOM     28  C   UNL     1       5.325   5.191  16.944  0.00  0.00    +0.000 A 
ATOM     29  N   UNL     1       4.597   6.242  17.379  0.00  0.00    +0.000 NA
ENDBRANCH  22  24
ENDBRANCH  16  19
ENDBRANCH   9  16
TORSDOF 4
ENDMDL
MODEL 6
REMARK VINA RESULT:      -7.8      4.026     11.149
REMARK  Name = 
REMARK  5 active torsions:
REMARK  status: ('A' for Active; 'I' for Inactive)
REMARK    1  A    between atoms: C_1  and  C_2
REMARK    2  A    between atoms: C_5  and  C_7
REMARK    3  A    between atoms: N_15  and  S_16
REMARK    4  A    between atoms: S_16  and  C_19
REMARK    5  A    between atoms: C_22  and  C_23
REMARK                            x       y       z     vdW  Elec       q    Type
REMARK                         _______ _______ _______ _____ _____    ______ ____
ROOT
ATOM      1  C   UNL     1      -1.492  11.263  22.945  0.00  0.00    +0.000 C 
ATOM      2  C   UNL     1      -0.407  11.713  21.962  0.00  0.00    +0.000 C 
ATOM      3  C   UNL     1      -0.791  13.020  21.264  0.00  0.00    +0.000 C 
ATOM      4  N   UNL     1      -1.923  12.843  20.353  0.00  0.00    +0.000 N 
ATOM      5  C   UNL     1      -3.259  13.235  20.544  0.00  0.00    +0.000 C 
ATOM      6  O   UNL     1      -4.152  12.883  19.776  0.00  0.00    +0.000 OA
ATOM      7  C   UNL     1      -1.639  11.843  19.308  0.00  0.00    +0.000 C 
ATOM      8  C   UNL     1      -1.185  10.492  19.914  0.00  0.00    +0.000 C 
ATOM      9  N   UNL     1      -0.091  10.683  20.926  0.00  0.00    +0.000 NA
ENDROOT
BRANCH   5  10
ATOM     10  C   UNL     1      -3.671  14.034  21.741  0.00  0.00    +0.000 A 
ATOM     11  C   UNL     1      -3.379  15.388  21.907  0.00  0.00    +0.000 A 
ATOM     12  C   UNL     1      -3.614  16.021  23.129  0.00  0.00    +0.000 A 
ATOM     13  C   UNL     1      -4.278  15.343  24.147  0.00  0.00    +0.000 A 
ATOM     14  C   UNL     1      -4.715  14.037  23.939  0.00  0.00    +0.000 A 
ATOM     15  C   UNL     1      -4.399  13.378  22.747  0.00  0.00    +0.000 A 
ENDBRANCH   5  10
BRANCH   9  16
ATOM     16  S   UNL     1       0.637   9.275  21.531  0.00  0.00    +0.000 S 
ATOM     17  O   UNL     1       1.725   9.653  22.407  0.00  0.00    +0.000 OA
ATOM     18  O   UNL     1      -0.415   8.384  21.977  0.00  0.00    +0.000 OA
BRANCH  16  19
ATOM     19  C   UNL     1       1.407   8.426  20.180  0.00  0.00    +0.000 A 
ATOM     20  C   UNL     1       1.861   8.861  18.951  0.00  0.00    +0.000 A 
ATOM     21  C   UNL     1       2.420   7.802  18.183  0.00  0.00    +0.000 A 
ATOM     22  C   UNL     1       2.374   6.582  18.838  0.00  0.00    +0.000 A 
ATOM     23  S   UNL     1       1.655   6.751  20.388  0.00  0.00    +0.000 S 
BRANCH  22  24
ATOM     24  C   UNL     1       2.901   5.289  18.388  0.00  0.00    +0.000 A 
ATOM     25  C   UNL     1       2.137   4.339  17.714  0.00  0.00    +0.000 A 
ATOM     26  C   UNL     1       2.724   3.120  17.384  0.00  0.00    +0.000 A 
ATOM     27  C   UNL     1       4.050   2.888  17.728  0.00  0.00    +0.000 A 
ATOM     28  C   UNL     1       4.743   3.895  18.376  0.00  0.00    +0.000 A 
ATOM     29  N   UNL     1       4.204   5.087  18.706  0.00  0.00    +0.000 NA
ENDBRANCH  22  24
ENDBRANCH  16  19
ENDBRANCH   9  16
TORSDOF 4
ENDMDL
MODEL 7
REMARK VINA RESULT:      -7.6      4.157     10.917
REMARK  Name = 
REMARK  5 active torsions:
REMARK  status: ('A' for Active; 'I' for Inactive)
REMARK    1  A    between atoms: C_1  and  C_2
REMARK    2  A    between atoms: C_5  and  C_7
REMARK    3  A    between atoms: N_15  and  S_16
REMARK    4  A    between atoms: S_16  and  C_19
REMARK    5  A    between atoms: C_22  and  C_23
REMARK                            x       y       z     vdW  Elec       q    Type
REMARK                         _______ _______ _______ _____ _____    ______ ____
ROOT
ATOM      1  C   UNL     1      -1.172  11.218  22.724  0.00  0.00    +0.000 C 
ATOM      2  C   UNL     1      -0.117  11.468  21.642  0.00  0.00    +0.000 C 
ATOM      3  C   UNL     1      -0.460  12.697  20.797  0.00  0.00    +0.000 C 
ATOM      4  N   UNL     1      -1.648  12.479  19.969  0.00  0.00    +0.000 N 
ATOM      5  C   UNL     1      -2.946  12.978  20.168  0.00  0.00    +0.000 C 
ATOM      6  O   UNL     1      -3.898  12.589  19.494  0.00  0.00    +0.000 OA
ATOM      7  C   UNL     1      -1.479  11.337  19.052  0.00  0.00    +0.000 C 
ATOM      8  C   UNL     1      -1.073  10.048  19.808  0.00  0.00    +0.000 C 
ATOM      9  N   UNL     1       0.083  10.296  20.736  0.00  0.00    +0.000 NA
ENDROOT
BRANCH   5  10
ATOM     10  C   UNL     1      -3.247  13.948  21.267  0.00  0.00    +0.000 A 
ATOM     11  C   UNL     1      -3.833  13.588  22.481  0.00  0.00    +0.000 A 
ATOM     12  C   UNL     1      -4.269  14.566  23.378  0.00  0.00    +0.000 A 
ATOM     13  C   UNL     1      -3.991  15.907  23.133  0.00  0.00    +0.000 A 
ATOM     14  C   UNL     1      -3.268  16.269  21.999  0.00  0.00    +0.000 A 
ATOM     15  C   UNL     1      -2.911  15.296  21.060  0.00  0.00    +0.000 A 
ENDBRANCH   5  10
BRANCH   9  16
ATOM     16  S   UNL     1       0.758   8.931  21.486  0.00  0.00    +0.000 S 
ATOM     17  O   UNL     1       1.833   9.363  22.354  0.00  0.00    +0.000 OA
ATOM     18  O   UNL     1      -0.328   8.110  21.981  0.00  0.00    +0.000 OA
BRANCH  16  19
ATOM     19  C   UNL     1       1.541   7.946  20.239  0.00  0.00    +0.000 A 
ATOM     20  C   UNL     1       2.173   8.277  19.058  0.00  0.00    +0.000 A 
ATOM     21  C   UNL     1       2.659   7.129  18.372  0.00  0.00    +0.000 A 
ATOM     22  C   UNL     1       2.382   5.947  19.040  0.00  0.00    +0.000 A 
ATOM     23  S   UNL     1       1.537   6.260  20.502  0.00  0.00    +0.000 S 
BRANCH  22  24
ATOM     24  C   UNL     1       2.772   4.582  18.672  0.00  0.00    +0.000 A 
ATOM     25  C   UNL     1       1.978   3.736  17.900  0.00  0.00    +0.000 A 
ATOM     26  C   UNL     1       2.421   2.438  17.658  0.00  0.00    +0.000 A 
ATOM     27  C   UNL     1       3.639   2.026  18.184  0.00  0.00    +0.000 A 
ATOM     28  C   UNL     1       4.376   2.938  18.920  0.00  0.00    +0.000 A 
ATOM     29  N   UNL     1       3.975   4.203  19.168  0.00  0.00    +0.000 NA
ENDBRANCH  22  24
ENDBRANCH  16  19
ENDBRANCH   9  16
TORSDOF 4
ENDMDL
MODEL 8
REMARK VINA RESULT:      -7.5      6.296      9.759
REMARK  Name = 
REMARK  5 active torsions:
REMARK  status: ('A' for Active; 'I' for Inactive)
REMARK    1  A    between atoms: C_1  and  C_2
REMARK    2  A    between atoms: C_5  and  C_7
REMARK    3  A    between atoms: N_15  and  S_16
REMARK    4  A    between atoms: S_16  and  C_19
REMARK    5  A    between atoms: C_22  and  C_23
REMARK                            x       y       z     vdW  Elec       q    Type
REMARK                         _______ _______ _______ _____ _____    ______ ____
ROOT
ATOM      1  C   UNL     1       3.040  12.865  18.256  0.00  0.00    +0.000 C 
ATOM      2  C   UNL     1       2.799  13.630  19.561  0.00  0.00    +0.000 C 
ATOM      3  C   UNL     1       1.872  12.856  20.501  0.00  0.00    +0.000 C 
ATOM      4  N   UNL     1       0.506  12.773  19.980  0.00  0.00    +0.000 N 
ATOM      5  C   UNL     1      -0.131  11.669  19.390  0.00  0.00    +0.000 C 
ATOM      6  O   UNL     1      -1.227  11.771  18.841  0.00  0.00    +0.000 OA
ATOM      7  C   UNL     1      -0.085  14.107  19.767  0.00  0.00    +0.000 C 
ATOM      8  C   UNL     1       0.811  14.994  18.867  0.00  0.00    +0.000 C 
ATOM      9  N   UNL     1       2.237  14.998  19.343  0.00  0.00    +0.000 NA
ENDROOT
BRANCH   5  10
ATOM     10  C   UNL     1       0.533  10.328  19.331  0.00  0.00    +0.000 A 
ATOM     11  C   UNL     1       0.656   9.475  20.427  0.00  0.00    +0.000 A 
ATOM     12  C   UNL     1       1.459   8.334  20.353  0.00  0.00    +0.000 A 
ATOM     13  C   UNL     1       2.028   7.961  19.139  0.00  0.00    +0.000 A 
ATOM     14  C   UNL     1       1.785   8.722  17.999  0.00  0.00    +0.000 A 
ATOM     15  C   UNL     1       1.054   9.910  18.095  0.00  0.00    +0.000 A 
ENDBRANCH   5  10
BRANCH   9  16
ATOM     16  S   UNL     1       3.291  16.078  18.567  0.00  0.00    +0.000 S 
ATOM     17  O   UNL     1       3.230  15.843  17.141  0.00  0.00    +0.000 OA
ATOM     18  O   UNL     1       3.070  17.397  19.125  0.00  0.00    +0.000 OA
BRANCH  16  19
ATOM     19  C   UNL     1       4.949  15.661  19.033  0.00  0.00    +0.000 A 
ATOM     20  C   UNL     1       5.636  15.785  20.223  0.00  0.00    +0.000 A 
ATOM     21  C   UNL     1       6.972  15.305  20.121  0.00  0.00    +0.000 A 
ATOM     22  C   UNL     1       7.277  14.830  18.856  0.00  0.00    +0.000 A 
ATOM     23  S   UNL     1       5.921  14.973  17.811  0.00  0.00    +0.000 S 
BRANCH  22  24
ATOM     24  C   UNL     1       8.523  14.211  18.394  0.00  0.00    +0.000 A 
ATOM     25  C   UNL     1       8.619  12.882  17.990  0.00  0.00    +0.000 A 
ATOM     26  C   UNL     1       9.866  12.381  17.623  0.00  0.00    +0.000 A 
ATOM     27  C   UNL     1      10.974  13.218  17.664  0.00  0.00    +0.000 A 
ATOM     28  C   UNL     1      10.786  14.533  18.055  0.00  0.00    +0.000 A 
ATOM     29  N   UNL     1       9.590  15.048  18.412  0.00  0.00    +0.000 NA
ENDBRANCH  22  24
ENDBRANCH  16  19
ENDBRANCH   9  16
TORSDOF 4
ENDMDL
MODEL 9
REMARK VINA RESULT:      -7.4      4.062     11.254
REMARK  Name = 
REMARK  5 active torsions:
REMARK  status: ('A' for Active; 'I' for Inactive)
REMARK    1  A    between atoms: C_1  and  C_2
REMARK    2  A    between atoms: C_5  and  C_7
REMARK    3  A    between atoms: N_15  and  S_16
REMARK    4  A    between atoms: S_16  and  C_19
REMARK    5  A    between atoms: C_22  and  C_23
REMARK                            x       y       z     vdW  Elec       q    Type
REMARK                         _______ _______ _______ _____ _____    ______ ____
ROOT
ATOM      1  C   UNL     1      -1.977  11.792  22.192  0.00  0.00    +0.000 C 
ATOM      2  C   UNL     1      -1.167  12.294  20.992  0.00  0.00    +0.000 C 
ATOM      3  C   UNL     1      -1.994  13.233  20.111  0.00  0.00    +0.000 C 
ATOM      4  N   UNL     1      -3.081  12.528  19.428  0.00  0.00    +0.000 N 
ATOM      5  C   UNL     1      -4.453  12.552  19.729  0.00  0.00    +0.000 C 
ATOM      6  O   UNL     1      -5.247  11.787  19.184  0.00  0.00    +0.000 OA
ATOM      7  C   UNL     1      -2.579  11.438  18.572  0.00  0.00    +0.000 C 
ATOM      8  C   UNL     1      -1.679  10.456  19.363  0.00  0.00    +0.000 C 
ATOM      9  N   UNL     1      -0.625  11.186  20.147  0.00  0.00    +0.000 NA
ENDROOT
BRANCH   5  10
ATOM     10  C   UNL     1      -5.001  13.455  20.789  0.00  0.00    +0.000 A 
ATOM     11  C   UNL     1      -5.135  14.835  20.639  0.00  0.00    +0.000 A 
ATOM     12  C   UNL     1      -5.462  15.640  21.733  0.00  0.00    +0.000 A 
ATOM     13  C   UNL     1      -5.800  15.057  22.950  0.00  0.00    +0.000 A 
ATOM     14  C   UNL     1      -5.821  13.670  23.071  0.00  0.00    +0.000 A 
ATOM     15  C   UNL     1      -5.408  12.870  22.000  0.00  0.00    +0.000 A 
ENDBRANCH   5  10
BRANCH   9  16
ATOM     16  S   UNL     1       0.552  10.230  20.908  0.00  0.00    +0.000 S 
ATOM     17  O   UNL     1       1.606  11.093  21.398  0.00  0.00    +0.000 OA
ATOM     18  O   UNL     1      -0.127   9.296  21.782  0.00  0.00    +0.000 OA
BRANCH  16  19
ATOM     19  C   UNL     1       1.323   9.218  19.674  0.00  0.00    +0.000 A 
ATOM     20  C   UNL     1       1.656   9.455  18.356  0.00  0.00    +0.000 A 
ATOM     21  C   UNL     1       2.273   8.326  17.750  0.00  0.00    +0.000 A 
ATOM     22  C   UNL     1       2.393   7.250  18.614  0.00  0.00    +0.000 A 
ATOM     23  S   UNL     1       1.755   7.640  20.160  0.00  0.00    +0.000 S 
BRANCH  22  24
ATOM     24  C   UNL     1       3.022   5.949  18.364  0.00  0.00    +0.000 A 
ATOM     25  C   UNL     1       2.353   4.866  17.799  0.00  0.00    +0.000 A 
ATOM     26  C   UNL     1       3.032   3.658  17.659  0.00  0.00    +0.000 A 
ATOM     27  C   UNL     1       4.353   3.568  18.080  0.00  0.00    +0.000 A 
ATOM     28  C   UNL     1       4.950   4.698  18.609  0.00  0.00    +0.000 A 
ATOM     29  N   UNL     1       4.319   5.884  18.754  0.00  0.00    +0.000 NA
ENDBRANCH  22  24
ENDBRANCH  16  19
ENDBRANCH   9  16
TORSDOF 4
ENDMDL
