MODEL 1
REMARK VINA RESULT:      -8.0      0.000      0.000
REMARK  Name = 
REMARK  12 active torsions:
REMARK  status: ('A' for Active; 'I' for Inactive)
REMARK    1  A    between atoms: C_1  and  O_2
REMARK    2  A    between atoms: O_2  and  C_3
REMARK    3  A    between atoms: C_5  and  C_6
REMARK    4  A    between atoms: C_6  and  C_7
REMARK    5  A    between atoms: C_11  and  O_12
REMARK    6  A    between atoms: O_12  and  C_13
REMARK    7  A    between atoms: C_13  and  C_14
REMARK    8  A    between atoms: C_14  and  C_15
REMARK    9  A    between atoms: C_15  and  N_16
REMARK   10  A    between atoms: C_19  and  C_20
REMARK   11  A    between atoms: C_20  and  C_21
REMARK   12  A    between atoms: C_20  and  C_28
REMARK                            x       y       z     vdW  Elec       q    Type
REMARK                         _______ _______ _______ _____ _____    ______ ____
ROOT
ATOM      1  N   UNL     1      10.143  10.628  18.967  0.00  0.00    +0.000 NA
ATOM      2  C   UNL     1      10.054  11.500  17.785  0.00  0.00    +0.000 C 
ATOM      3  C   UNL     1      11.286  12.397  17.633  0.00  0.00    +0.000 C 
ATOM      4  C   UNL     1      11.510  13.311  18.850  0.00  0.00    +0.000 C 
ATOM      5  C   UNL     1      11.659  12.368  20.049  0.00  0.00    +0.000 C 
ATOM      6  C   UNL     1      10.503  11.383  20.170  0.00  0.00    +0.000 C 
ENDROOT
BRANCH   1   7
ATOM      7  C   UNL     1       8.888   9.841  19.102  0.00  0.00    +0.000 C 
BRANCH   7   8
ATOM      8  C   UNL     1       8.225   9.261  17.830  0.00  0.00    +0.000 C 
BRANCH   8   9
ATOM      9  C   UNL     1       7.974   7.763  17.959  0.00  0.00    +0.000 C 
BRANCH   9  10
ATOM     10  O   UNL     1       7.706   7.098  16.740  0.00  0.00    +0.000 OA
BRANCH  10  16
ATOM     11  C   UNL     1       6.461   5.033  15.980  0.00  0.00    +0.000 A 
ATOM     12  C   UNL     1       5.551   4.041  16.387  0.00  0.00    +0.000 A 
ATOM     13  C   UNL     1       4.815   4.204  17.560  0.00  0.00    +0.000 A 
ATOM     14  C   UNL     1       4.998   5.345  18.342  0.00  0.00    +0.000 A 
ATOM     15  C   UNL     1       5.966   6.282  17.995  0.00  0.00    +0.000 A 
ATOM     16  C   UNL     1       6.739   6.115  16.846  0.00  0.00    +0.000 A 
BRANCH  13  17
ATOM     17  C   UNL     1       3.789   3.218  17.974  0.00  0.00    +0.000 C 
ATOM     18  C   UNL     1       2.430   3.213  17.312  0.00  0.00    +0.000 C 
ATOM     19  O   UNL     1       4.058   2.419  18.869  0.00  0.00    +0.000 OA
ENDBRANCH  13  17
BRANCH  11  21
ATOM     20  C   UNL     1       6.425   4.120  13.777  0.00  0.00    +0.000 C 
ATOM     21  O   UNL     1       7.078   4.933  14.755  0.00  0.00    +0.000 OA
ENDBRANCH  11  21
ENDBRANCH  10  16
ENDBRANCH   9  10
ENDBRANCH   8   9
ENDBRANCH   7   8
ENDBRANCH   1   7
BRANCH   4  22
ATOM     22  C   UNL     1      10.409  14.416  19.075  0.00  0.00    +0.000 C 
BRANCH  22  23
ATOM     23  C   UNL     1      10.786  15.339  20.231  0.00  0.00    +0.000 A 
ATOM     24  C   UNL     1      11.982  16.075  20.237  0.00  0.00    +0.000 A 
ATOM     25  C   UNL     1      12.286  16.936  21.293  0.00  0.00    +0.000 A 
ATOM     26  C   UNL     1      11.400  17.061  22.354  0.00  0.00    +0.000 A 
ATOM     27  F   UNL     1      11.693  17.887  23.367  0.00  0.00    +0.000 F 
ATOM     28  C   UNL     1      10.217  16.338  22.381  0.00  0.00    +0.000 A 
ATOM     29  C   UNL     1       9.915  15.468  21.331  0.00  0.00    +0.000 A 
ENDBRANCH  22  23
BRANCH  22  30
ATOM     30  C   UNL     1       9.950  15.161  17.765  0.00  0.00    +0.000 C 
ATOM     31  C   UNL     1       8.678  16.016  17.903  0.00  0.00    +0.000 C 
ATOM     32  C   UNL     1       8.902  17.379  18.540  0.00  0.00    +0.000 C 
ATOM     33  C   UNL     1      10.004  18.189  17.877  0.00  0.00    +0.000 C 
ATOM     34  C   UNL     1      11.207  17.417  17.340  0.00  0.00    +0.000 C 
ATOM     35  C   UNL     1      11.004  15.948  16.973  0.00  0.00    +0.000 C 
ENDBRANCH  22  30
ENDBRANCH   4  22
TORSDOF 10
ENDMDL
MODEL 2
REMARK VINA RESULT:      -7.8      7.845     11.641
REMARK  Name = 
REMARK  12 active torsions:
REMARK  status: ('A' for Active; 'I' for Inactive)
REMARK    1  A    between atoms: C_1  and  O_2
REMARK    2  A    between atoms: O_2  and  C_3
REMARK    3  A    between atoms: C_5  and  C_6
REMARK    4  A    between atoms: C_6  and  C_7
REMARK    5  A    between atoms: C_11  and  O_12
REMARK    6  A    between atoms: O_12  and  C_13
REMARK    7  A    between atoms: C_13  and  C_14
REMARK    8  A    between atoms: C_14  and  C_15
REMARK    9  A    between atoms: C_15  and  N_16
REMARK   10  A    between atoms: C_19  and  C_20
REMARK   11  A    between atoms: C_20  and  C_21
REMARK   12  A    between atoms: C_20  and  C_28
REMARK                            x       y       z     vdW  Elec       q    Type
REMARK                         _______ _______ _______ _____ _____    ______ ____
ROOT
ATOM      1  N   UNL     1       2.264   4.367  19.604  0.00  0.00    +0.000 NA
ATOM      2  C   UNL     1       2.379   5.055  18.308  0.00  0.00    +0.000 C 
ATOM      3  C   UNL     1       2.654   4.083  17.158  0.00  0.00    +0.000 C 
ATOM      4  C   UNL     1       3.951   3.279  17.357  0.00  0.00    +0.000 C 
ATOM      5  C   UNL     1       3.770   2.530  18.682  0.00  0.00    +0.000 C 
ATOM      6  C   UNL     1       3.385   3.452  19.832  0.00  0.00    +0.000 C 
ENDROOT
BRANCH   1   7
ATOM      7  C   UNL     1       2.075   5.371  20.686  0.00  0.00    +0.000 C 
BRANCH   7   8
ATOM      8  C   UNL     1       1.984   6.870  20.313  0.00  0.00    +0.000 C 
BRANCH   8   9
ATOM      9  C   UNL     1       0.968   7.604  21.181  0.00  0.00    +0.000 C 
BRANCH   9  10
ATOM     10  O   UNL     1       1.471   8.747  21.846  0.00  0.00    +0.000 OA
BRANCH  10  16
ATOM     11  C   UNL     1       0.449  10.775  20.737  0.00  0.00    +0.000 A 
ATOM     12  C   UNL     1      -0.607  11.701  20.815  0.00  0.00    +0.000 A 
ATOM     13  C   UNL     1      -1.368  11.800  21.978  0.00  0.00    +0.000 A 
ATOM     14  C   UNL     1      -1.094  10.962  23.061  0.00  0.00    +0.000 A 
ATOM     15  C   UNL     1      -0.116   9.981  22.954  0.00  0.00    +0.000 A 
ATOM     16  C   UNL     1       0.629   9.841  21.783  0.00  0.00    +0.000 A 
BRANCH  13  17
ATOM     17  C   UNL     1      -2.434  12.820  22.124  0.00  0.00    +0.000 C 
ATOM     18  C   UNL     1      -3.692  12.499  22.898  0.00  0.00    +0.000 C 
ATOM     19  O   UNL     1      -2.281  13.920  21.597  0.00  0.00    +0.000 OA
ENDBRANCH  13  17
BRANCH  11  21
ATOM     20  C   UNL     1       0.835  10.053  18.498  0.00  0.00    +0.000 C 
ATOM     21  O   UNL     1       1.282  10.780  19.644  0.00  0.00    +0.000 OA
ENDBRANCH  11  21
ENDBRANCH  10  16
ENDBRANCH   9  10
ENDBRANCH   8   9
ENDBRANCH   7   8
ENDBRANCH   1   7
BRANCH   4  22
ATOM     22  C   UNL     1       5.280   4.123  17.308  0.00  0.00    +0.000 C 
BRANCH  22  23
ATOM     23  C   UNL     1       5.806   4.237  15.879  0.00  0.00    +0.000 A 
ATOM     24  C   UNL     1       7.141   4.571  15.600  0.00  0.00    +0.000 A 
ATOM     25  C   UNL     1       7.602   4.637  14.284  0.00  0.00    +0.000 A 
ATOM     26  C   UNL     1       6.729   4.377  13.237  0.00  0.00    +0.000 A 
ATOM     27  F   UNL     1       7.171   4.442  11.975  0.00  0.00    +0.000 F 
ATOM     28  C   UNL     1       5.401   4.056  13.482  0.00  0.00    +0.000 A 
ATOM     29  C   UNL     1       4.935   4.000  14.796  0.00  0.00    +0.000 A 
ENDBRANCH  22  23
BRANCH  22  30
ATOM     30  C   UNL     1       5.222   5.486  18.095  0.00  0.00    +0.000 C 
ATOM     31  C   UNL     1       6.094   5.557  19.361  0.00  0.00    +0.000 C 
ATOM     32  C   UNL     1       7.566   5.831  19.095  0.00  0.00    +0.000 C 
ATOM     33  C   UNL     1       7.813   7.053  18.225  0.00  0.00    +0.000 C 
ATOM     34  C   UNL     1       6.797   7.334  17.120  0.00  0.00    +0.000 C 
ATOM     35  C   UNL     1       5.382   6.789  17.298  0.00  0.00    +0.000 C 
ENDBRANCH  22  30
ENDBRANCH   4  22
TORSDOF 10
ENDMDL
MODEL 3
REMARK VINA RESULT:      -7.8      1.437      1.718
REMARK  Name = 
REMARK  12 active torsions:
REMARK  status: ('A' for Active; 'I' for Inactive)
REMARK    1  A    between atoms: C_1  and  O_2
REMARK    2  A    between atoms: O_2  and  C_3
REMARK    3  A    between atoms: C_5  and  C_6
REMARK    4  A    between atoms: C_6  and  C_7
REMARK    5  A    between atoms: C_11  and  O_12
REMARK    6  A    between atoms: O_12  and  C_13
REMARK    7  A    between atoms: C_13  and  C_14
REMARK    8  A    between atoms: C_14  and  C_15
REMARK    9  A    between atoms: C_15  and  N_16
REMARK   10  A    between atoms: C_19  and  C_20
REMARK   11  A    between atoms: C_20  and  C_21
REMARK   12  A    between atoms: C_20  and  C_28
REMARK                            x       y       z     vdW  Elec       q    Type
REMARK                         _______ _______ _______ _____ _____    ______ ____
ROOT
ATOM      1  N   UNL     1       9.522  10.445  18.751  0.00  0.00    +0.000 NA
ATOM      2  C   UNL     1      10.034  11.553  17.929  0.00  0.00    +0.000 C 
ATOM      3  C   UNL     1      11.141  12.336  18.640  0.00  0.00    +0.000 C 
ATOM      4  C   UNL     1      10.677  12.944  19.975  0.00  0.00    +0.000 C 
ATOM      5  C   UNL     1      10.208  11.757  20.824  0.00  0.00    +0.000 C 
ATOM      6  C   UNL     1       9.185  10.886  20.106  0.00  0.00    +0.000 C 
ENDROOT
BRANCH   1   7
ATOM      7  C   UNL     1       8.401   9.773  18.038  0.00  0.00    +0.000 C 
BRANCH   7   8
ATOM      8  C   UNL     1       8.263   8.235  18.136  0.00  0.00    +0.000 C 
BRANCH   8   9
ATOM      9  C   UNL     1       6.896   7.762  17.653  0.00  0.00    +0.000 C 
BRANCH   9  10
ATOM     10  O   UNL     1       6.933   6.776  16.639  0.00  0.00    +0.000 OA
BRANCH  10  16
ATOM     11  C   UNL     1       5.788   4.568  16.190  0.00  0.00    +0.000 A 
ATOM     12  C   UNL     1       4.677   3.774  16.530  0.00  0.00    +0.000 A 
ATOM     13  C   UNL     1       3.605   4.330  17.225  0.00  0.00    +0.000 A 
ATOM     14  C   UNL     1       3.643   5.674  17.602  0.00  0.00    +0.000 A 
ATOM     15  C   UNL     1       4.778   6.437  17.353  0.00  0.00    +0.000 A 
ATOM     16  C   UNL     1       5.877   5.886  16.694  0.00  0.00    +0.000 A 
BRANCH  13  17
ATOM     17  C   UNL     1       2.385   3.544  17.527  0.00  0.00    +0.000 C 
ATOM     18  C   UNL     1       2.493   2.076  17.868  0.00  0.00    +0.000 C 
ATOM     19  O   UNL     1       1.291   4.103  17.484  0.00  0.00    +0.000 OA
ENDBRANCH  13  17
BRANCH  11  21
ATOM     20  C   UNL     1       6.771   4.473  14.020  0.00  0.00    +0.000 C 
ATOM     21  O   UNL     1       6.775   4.051  15.385  0.00  0.00    +0.000 OA
ENDBRANCH  11  21
ENDBRANCH  10  16
ENDBRANCH   9  10
ENDBRANCH   8   9
ENDBRANCH   7   8
ENDBRANCH   1   7
BRANCH   4  22
ATOM     22  C   UNL     1       9.589  14.077  19.857  0.00  0.00    +0.000 C 
BRANCH  22  23
ATOM     23  C   UNL     1       9.402  14.800  21.189  0.00  0.00    +0.000 A 
ATOM     24  C   UNL     1      10.492  15.260  21.946  0.00  0.00    +0.000 A 
ATOM     25  C   UNL     1      10.291  15.946  23.146  0.00  0.00    +0.000 A 
ATOM     26  C   UNL     1       8.999  16.169  23.600  0.00  0.00    +0.000 A 
ATOM     27  F   UNL     1       8.806  16.826  24.751  0.00  0.00    +0.000 F 
ATOM     28  C   UNL     1       7.903  15.716  22.879  0.00  0.00    +0.000 A 
ATOM     29  C   UNL     1       8.102  15.021  21.685  0.00  0.00    +0.000 A 
ENDBRANCH  22  23
BRANCH  22  30
ATOM     30  C   UNL     1       9.766  15.030  18.615  0.00  0.00    +0.000 C 
ATOM     31  C   UNL     1       8.470  15.385  17.864  0.00  0.00    +0.000 C 
ATOM     32  C   UNL     1       7.642  16.478  18.522  0.00  0.00    +0.000 C 
ATOM     33  C   UNL     1       8.429  17.742  18.826  0.00  0.00    +0.000 C 
ATOM     34  C   UNL     1       9.888  17.568  19.242  0.00  0.00    +0.000 C 
ATOM     35  C   UNL     1      10.611  16.300  18.791  0.00  0.00    +0.000 C 
ENDBRANCH  22  30
ENDBRANCH   4  22
TORSDOF 10
ENDMDL
MODEL 4
REMARK VINA RESULT:      -7.8      7.902     11.793
REMARK  Name = 
REMARK  12 active torsions:
REMARK  status: ('A' for Active; 'I' for Inactive)
REMARK    1  A    between atoms: C_1  and  O_2
REMARK    2  A    between atoms: O_2  and  C_3
REMARK    3  A    between atoms: C_5  and  C_6
REMARK    4  A    between atoms: C_6  and  C_7
REMARK    5  A    between atoms: C_11  and  O_12
REMARK    6  A    between atoms: O_12  and  C_13
REMARK    7  A    between atoms: C_13  and  C_14
REMARK    8  A    between atoms: C_14  and  C_15
REMARK    9  A    between atoms: C_15  and  N_16
REMARK   10  A    between atoms: C_19  and  C_20
REMARK   11  A    between atoms: C_20  and  C_21
REMARK   12  A    between atoms: C_20  and  C_28
REMARK                            x       y       z     vdW  Elec       q    Type
REMARK                         _______ _______ _______ _____ _____    ______ ____
ROOT
ATOM      1  N   UNL     1       2.117   4.354  19.473  0.00  0.00    +0.000 NA
ATOM      2  C   UNL     1       2.266   4.927  18.125  0.00  0.00    +0.000 C 
ATOM      3  C   UNL     1       2.616   3.864  17.080  0.00  0.00    +0.000 C 
ATOM      4  C   UNL     1       3.926   3.123  17.402  0.00  0.00    +0.000 C 
ATOM      5  C   UNL     1       3.712   2.491  18.782  0.00  0.00    +0.000 C 
ATOM      6  C   UNL     1       3.253   3.500  19.826  0.00  0.00    +0.000 C 
ENDROOT
BRANCH   1   7
ATOM      7  C   UNL     1       1.854   5.444  20.451  0.00  0.00    +0.000 C 
BRANCH   7   8
ATOM      8  C   UNL     1       2.228   6.898  20.074  0.00  0.00    +0.000 C 
BRANCH   8   9
ATOM      9  C   UNL     1       1.612   7.905  21.040  0.00  0.00    +0.000 C 
BRANCH   9  10
ATOM     10  O   UNL     1       0.221   8.108  20.878  0.00  0.00    +0.000 OA
BRANCH  10  16
ATOM     11  C   UNL     1      -0.372  10.551  20.612  0.00  0.00    +0.000 A 
ATOM     12  C   UNL     1      -1.015  11.638  21.232  0.00  0.00    +0.000 A 
ATOM     13  C   UNL     1      -1.351  11.575  22.584  0.00  0.00    +0.000 A 
ATOM     14  C   UNL     1      -1.066  10.423  23.318  0.00  0.00    +0.000 A 
ATOM     15  C   UNL     1      -0.520   9.311  22.687  0.00  0.00    +0.000 A 
ATOM     16  C   UNL     1      -0.214   9.341  21.326  0.00  0.00    +0.000 A 
BRANCH  13  17
ATOM     17  C   UNL     1      -1.954  12.732  23.288  0.00  0.00    +0.000 C 
ATOM     18  C   UNL     1      -3.364  12.644  23.824  0.00  0.00    +0.000 C 
ATOM     19  O   UNL     1      -1.294  13.761  23.415  0.00  0.00    +0.000 OA
ENDBRANCH  13  17
BRANCH  11  21
ATOM     20  C   UNL     1      -0.021  11.970  18.728  0.00  0.00    +0.000 C 
ATOM     21  O   UNL     1       0.081  10.673  19.320  0.00  0.00    +0.000 OA
ENDBRANCH  11  21
ENDBRANCH  10  16
ENDBRANCH   9  10
ENDBRANCH   8   9
ENDBRANCH   7   8
ENDBRANCH   1   7
BRANCH   4  22
ATOM     22  C   UNL     1       5.232   4.001  17.328  0.00  0.00    +0.000 C 
BRANCH  22  23
ATOM     23  C   UNL     1       5.740   4.109  15.892  0.00  0.00    +0.000 A 
ATOM     24  C   UNL     1       4.908   3.869  14.787  0.00  0.00    +0.000 A 
ATOM     25  C   UNL     1       5.391   4.006  13.485  0.00  0.00    +0.000 A 
ATOM     26  C   UNL     1       6.712   4.377  13.278  0.00  0.00    +0.000 A 
ATOM     27  F   UNL     1       7.175   4.508  12.029  0.00  0.00    +0.000 F 
ATOM     28  C   UNL     1       7.561   4.610  14.350  0.00  0.00    +0.000 A 
ATOM     29  C   UNL     1       7.083   4.463  15.654  0.00  0.00    +0.000 A 
ENDBRANCH  22  23
BRANCH  22  30
ATOM     30  C   UNL     1       5.144   5.374  18.096  0.00  0.00    +0.000 C 
ATOM     31  C   UNL     1       6.062   5.503  19.325  0.00  0.00    +0.000 C 
ATOM     32  C   UNL     1       7.509   5.837  18.995  0.00  0.00    +0.000 C 
ATOM     33  C   UNL     1       7.666   7.054  18.098  0.00  0.00    +0.000 C 
ATOM     34  C   UNL     1       6.595   7.273  17.031  0.00  0.00    +0.000 C 
ATOM     35  C   UNL     1       5.214   6.669  17.275  0.00  0.00    +0.000 C 
ENDBRANCH  22  30
ENDBRANCH   4  22
TORSDOF 10
ENDMDL
MODEL 5
REMARK VINA RESULT:      -7.6      1.452      2.010
REMARK  Name = 
REMARK  12 active torsions:
REMARK  status: ('A' for Active; 'I' for Inactive)
REMARK    1  A    between atoms: C_1  and  O_2
REMARK    2  A    between atoms: O_2  and  C_3
REMARK    3  A    between atoms: C_5  and  C_6
REMARK    4  A    between atoms: C_6  and  C_7
REMARK    5  A    between atoms: C_11  and  O_12
REMARK    6  A    between atoms: O_12  and  C_13
REMARK    7  A    between atoms: C_13  and  C_14
REMARK    8  A    between atoms: C_14  and  C_15
REMARK    9  A    between atoms: C_15  and  N_16
REMARK   10  A    between atoms: C_19  and  C_20
REMARK   11  A    between atoms: C_20  and  C_21
REMARK   12  A    between atoms: C_20  and  C_28
REMARK                            x       y       z     vdW  Elec       q    Type
REMARK                         _______ _______ _______ _____ _____    ______ ____
ROOT
ATOM      1  N   UNL     1       9.352  10.383  18.760  0.00  0.00    +0.000 NA
ATOM      2  C   UNL     1       9.543  11.513  17.837  0.00  0.00    +0.000 C 
ATOM      3  C   UNL     1      10.678  12.439  18.283  0.00  0.00    +0.000 C 
ATOM      4  C   UNL     1      10.444  13.035  19.682  0.00  0.00    +0.000 C 
ATOM      5  C   UNL     1      10.311  11.832  20.623  0.00  0.00    +0.000 C 
ATOM      6  C   UNL     1       9.265  10.829  20.152  0.00  0.00    +0.000 C 
ENDROOT
BRANCH   1   7
ATOM      7  C   UNL     1       8.190   9.567  18.314  0.00  0.00    +0.000 C 
BRANCH   7   8
ATOM      8  C   UNL     1       8.447   8.245  17.553  0.00  0.00    +0.000 C 
BRANCH   8   9
ATOM      9  C   UNL     1       7.322   7.240  17.776  0.00  0.00    +0.000 C 
BRANCH   9  10
ATOM     10  O   UNL     1       6.288   7.283  16.812  0.00  0.00    +0.000 OA
BRANCH  10  16
ATOM     11  C   UNL     1       5.617   4.875  16.433  0.00  0.00    +0.000 A 
ATOM     12  C   UNL     1       4.671   3.892  16.776  0.00  0.00    +0.000 A 
ATOM     13  C   UNL     1       3.483   4.253  17.408  0.00  0.00    +0.000 A 
ATOM     14  C   UNL     1       3.242   5.592  17.721  0.00  0.00    +0.000 A 
ATOM     15  C   UNL     1       4.214   6.553  17.472  0.00  0.00    +0.000 A 
ATOM     16  C   UNL     1       5.426   6.204  16.876  0.00  0.00    +0.000 A 
BRANCH  13  17
ATOM     17  C   UNL     1       2.430   3.254  17.709  0.00  0.00    +0.000 C 
ATOM     18  C   UNL     1       2.810   1.860  18.151  0.00  0.00    +0.000 C 
ATOM     19  O   UNL     1       1.251   3.576  17.581  0.00  0.00    +0.000 OA
ENDBRANCH  13  17
BRANCH  11  21
ATOM     20  C   UNL     1       6.523   4.420  14.275  0.00  0.00    +0.000 C 
ATOM     21  O   UNL     1       6.719   4.531  15.686  0.00  0.00    +0.000 OA
ENDBRANCH  11  21
ENDBRANCH  10  16
ENDBRANCH   9  10
ENDBRANCH   8   9
ENDBRANCH   7   8
ENDBRANCH   1   7
BRANCH   4  22
ATOM     22  C   UNL     1       9.233  14.035  19.794  0.00  0.00    +0.000 C 
BRANCH  22  23
ATOM     23  C   UNL     1       9.300  14.835  21.093  0.00  0.00    +0.000 A 
ATOM     24  C   UNL     1       8.171  15.037  21.903  0.00  0.00    +0.000 A 
ATOM     25  C   UNL     1       8.267  15.746  23.102  0.00  0.00    +0.000 A 
ATOM     26  C   UNL     1       9.493  16.264  23.496  0.00  0.00    +0.000 A 
ATOM     27  F   UNL     1       9.585  16.944  24.645  0.00  0.00    +0.000 F 
ATOM     28  C   UNL     1      10.624  16.090  22.711  0.00  0.00    +0.000 A 
ATOM     29  C   UNL     1      10.527  15.392  21.506  0.00  0.00    +0.000 A 
ENDBRANCH  22  23
BRANCH  22  30
ATOM     30  C   UNL     1       8.976  14.903  18.504  0.00  0.00    +0.000 C 
ATOM     31  C   UNL     1       7.568  14.780  17.895  0.00  0.00    +0.000 C 
ATOM     32  C   UNL     1       6.504  15.606  18.602  0.00  0.00    +0.000 C 
ATOM     33  C   UNL     1       6.875  17.072  18.763  0.00  0.00    +0.000 C 
ATOM     34  C   UNL     1       8.347  17.391  19.015  0.00  0.00    +0.000 C 
ATOM     35  C   UNL     1       9.387  16.382  18.533  0.00  0.00    +0.000 C 
ENDBRANCH  22  30
ENDBRANCH   4  22
TORSDOF 10
ENDMDL
MODEL 6
REMARK VINA RESULT:      -7.6      0.975      1.570
REMARK  Name = 
REMARK  12 active torsions:
REMARK  status: ('A' for Active; 'I' for Inactive)
REMARK    1  A    between atoms: C_1  and  O_2
REMARK    2  A    between atoms: O_2  and  C_3
REMARK    3  A    between atoms: C_5  and  C_6
REMARK    4  A    between atoms: C_6  and  C_7
REMARK    5  A    between atoms: C_11  and  O_12
REMARK    6  A    between atoms: O_12  and  C_13
REMARK    7  A    between atoms: C_13  and  C_14
REMARK    8  A    between atoms: C_14  and  C_15
REMARK    9  A    between atoms: C_15  and  N_16
REMARK   10  A    between atoms: C_19  and  C_20
REMARK   11  A    between atoms: C_20  and  C_21
REMARK   12  A    between atoms: C_20  and  C_28
REMARK                            x       y       z     vdW  Elec       q    Type
REMARK                         _______ _______ _______ _____ _____    ______ ____
ROOT
ATOM      1  N   UNL     1      10.006  10.613  19.038  0.00  0.00    +0.000 NA
ATOM      2  C   UNL     1       9.799  11.564  17.935  0.00  0.00    +0.000 C 
ATOM      3  C   UNL     1      10.877  12.651  17.898  0.00  0.00    +0.000 C 
ATOM      4  C   UNL     1      10.937  13.474  19.197  0.00  0.00    +0.000 C 
ATOM      5  C   UNL     1      11.213  12.459  20.312  0.00  0.00    +0.000 C 
ATOM      6  C   UNL     1      10.225  11.300  20.313  0.00  0.00    +0.000 C 
ENDROOT
BRANCH   1   7
ATOM      7  C   UNL     1       8.887   9.632  19.066  0.00  0.00    +0.000 C 
BRANCH   7   8
ATOM      8  C   UNL     1       8.096   9.357  17.765  0.00  0.00    +0.000 C 
BRANCH   8   9
ATOM      9  C   UNL     1       7.723   7.884  17.635  0.00  0.00    +0.000 C 
BRANCH   9  10
ATOM     10  O   UNL     1       6.688   7.614  16.709  0.00  0.00    +0.000 OA
BRANCH  10  16
ATOM     11  C   UNL     1       6.337   5.128  16.414  0.00  0.00    +0.000 A 
ATOM     12  C   UNL     1       5.662   4.007  16.931  0.00  0.00    +0.000 A 
ATOM     13  C   UNL     1       4.610   4.175  17.829  0.00  0.00    +0.000 A 
ATOM     14  C   UNL     1       4.238   5.459  18.232  0.00  0.00    +0.000 A 
ATOM     15  C   UNL     1       4.964   6.563  17.800  0.00  0.00    +0.000 A 
ATOM     16  C   UNL     1       6.045   6.411  16.932  0.00  0.00    +0.000 A 
BRANCH  13  17
ATOM     17  C   UNL     1       3.825   3.021  18.329  0.00  0.00    +0.000 C 
ATOM     18  C   UNL     1       3.254   3.040  19.729  0.00  0.00    +0.000 C 
ATOM     19  O   UNL     1       3.658   2.051  17.593  0.00  0.00    +0.000 OA
ENDBRANCH  13  17
BRANCH  11  21
ATOM     20  C   UNL     1       6.802   4.472  14.170  0.00  0.00    +0.000 C 
ATOM     21  O   UNL     1       7.277   4.963  15.425  0.00  0.00    +0.000 OA
ENDBRANCH  11  21
ENDBRANCH  10  16
ENDBRANCH   9  10
ENDBRANCH   8   9
ENDBRANCH   7   8
ENDBRANCH   1   7
BRANCH   4  22
ATOM     22  C   UNL     1       9.674  14.370  19.485  0.00  0.00    +0.000 C 
BRANCH  22  23
ATOM     23  C   UNL     1       9.885  15.233  20.727  0.00  0.00    +0.000 A 
ATOM     24  C   UNL     1       8.898  15.370  21.716  0.00  0.00    +0.000 A 
ATOM     25  C   UNL     1       9.130  16.140  22.856  0.00  0.00    +0.000 A 
ATOM     26  C   UNL     1      10.348  16.786  23.012  0.00  0.00    +0.000 A 
ATOM     27  F   UNL     1      10.570  17.526  24.106  0.00  0.00    +0.000 F 
ATOM     28  C   UNL     1      11.338  16.678  22.046  0.00  0.00    +0.000 A 
ATOM     29  C   UNL     1      11.105  15.917  20.900  0.00  0.00    +0.000 A 
ENDBRANCH  22  23
BRANCH  22  30
ATOM     30  C   UNL     1       9.122  15.149  18.232  0.00  0.00    +0.000 C 
ATOM     31  C   UNL     1       7.645  14.887  17.889  0.00  0.00    +0.000 C 
ATOM     32  C   UNL     1       6.654  15.662  18.745  0.00  0.00    +0.000 C 
ATOM     33  C   UNL     1       6.921  17.158  18.786  0.00  0.00    +0.000 C 
ATOM     34  C   UNL     1       8.382  17.603  18.759  0.00  0.00    +0.000 C 
ATOM     35  C   UNL     1       9.403  16.655  18.135  0.00  0.00    +0.000 C 
ENDBRANCH  22  30
ENDBRANCH   4  22
TORSDOF 10
ENDMDL
MODEL 7
REMARK VINA RESULT:      -7.5      1.419      2.196
REMARK  Name = 
REMARK  12 active torsions:
REMARK  status: ('A' for Active; 'I' for Inactive)
REMARK    1  A    between atoms: C_1  and  O_2
REMARK    2  A    between atoms: O_2  and  C_3
REMARK    3  A    between atoms: C_5  and  C_6
REMARK    4  A    between atoms: C_6  and  C_7
REMARK    5  A    between atoms: C_11  and  O_12
REMARK    6  A    between atoms: O_12  and  C_13
REMARK    7  A    between atoms: C_13  and  C_14
REMARK    8  A    between atoms: C_14  and  C_15
REMARK    9  A    between atoms: C_15  and  N_16
REMARK   10  A    between atoms: C_19  and  C_20
REMARK   11  A    between atoms: C_20  and  C_21
REMARK   12  A    between atoms: C_20  and  C_28
REMARK                            x       y       z     vdW  Elec       q    Type
REMARK                         _______ _______ _______ _____ _____    ______ ____
ROOT
ATOM      1  N   UNL     1      10.121  10.944  18.808  0.00  0.00    +0.000 NA
ATOM      2  C   UNL     1       9.736  11.926  17.782  0.00  0.00    +0.000 C 
ATOM      3  C   UNL     1      10.810  12.997  17.574  0.00  0.00    +0.000 C 
ATOM      4  C   UNL     1      11.119  13.786  18.859  0.00  0.00    +0.000 C 
ATOM      5  C   UNL     1      11.573  12.740  19.883  0.00  0.00    +0.000 C 
ATOM      6  C   UNL     1      10.579  11.596  20.037  0.00  0.00    +0.000 C 
ENDROOT
BRANCH   1   7
ATOM      7  C   UNL     1       9.007   9.979  19.016  0.00  0.00    +0.000 C 
BRANCH   7   8
ATOM      8  C   UNL     1       8.103   9.606  17.817  0.00  0.00    +0.000 C 
BRANCH   8   9
ATOM      9  C   UNL     1       7.882   8.100  17.727  0.00  0.00    +0.000 C 
BRANCH   9  10
ATOM     10  O   UNL     1       6.777   7.708  16.936  0.00  0.00    +0.000 OA
BRANCH  10  16
ATOM     11  C   UNL     1       4.645   6.539  17.629  0.00  0.00    +0.000 A 
ATOM     12  C   UNL     1       4.107   5.306  18.041  0.00  0.00    +0.000 A 
ATOM     13  C   UNL     1       4.952   4.274  18.448  0.00  0.00    +0.000 A 
ATOM     14  C   UNL     1       6.335   4.460  18.428  0.00  0.00    +0.000 A 
ATOM     15  C   UNL     1       6.874   5.642  17.931  0.00  0.00    +0.000 A 
ATOM     16  C   UNL     1       6.045   6.670  17.482  0.00  0.00    +0.000 A 
BRANCH  13  17
ATOM     17  C   UNL     1       4.417   2.992  18.965  0.00  0.00    +0.000 C 
ATOM     18  C   UNL     1       3.306   2.281  18.227  0.00  0.00    +0.000 C 
ATOM     19  O   UNL     1       4.882   2.529  20.003  0.00  0.00    +0.000 OA
ENDBRANCH  13  17
BRANCH  11  21
ATOM     20  C   UNL     1       2.560   7.611  18.064  0.00  0.00    +0.000 C 
ATOM     21  O   UNL     1       3.806   7.595  17.364  0.00  0.00    +0.000 OA
ENDBRANCH  11  21
ENDBRANCH  10  16
ENDBRANCH   9  10
ENDBRANCH   8   9
ENDBRANCH   7   8
ENDBRANCH   1   7
BRANCH   4  22
ATOM     22  C   UNL     1       9.946  14.693  19.391  0.00  0.00    +0.000 C 
BRANCH  22  23
ATOM     23  C   UNL     1      10.367  15.456  20.645  0.00  0.00    +0.000 A 
ATOM     24  C   UNL     1       9.624  15.401  21.835  0.00  0.00    +0.000 A 
ATOM     25  C   UNL     1      10.049  16.084  22.976  0.00  0.00    +0.000 A 
ATOM     26  C   UNL     1      11.217  16.832  22.933  0.00  0.00    +0.000 A 
ATOM     27  F   UNL     1      11.625  17.487  24.027  0.00  0.00    +0.000 F 
ATOM     28  C   UNL     1      11.966  16.914  21.768  0.00  0.00    +0.000 A 
ATOM     29  C   UNL     1      11.537  16.241  20.622  0.00  0.00    +0.000 A 
ENDBRANCH  22  23
BRANCH  22  30
ATOM     30  C   UNL     1       9.249  15.578  18.290  0.00  0.00    +0.000 C 
ATOM     31  C   UNL     1       7.816  15.159  17.915  0.00  0.00    +0.000 C 
ATOM     32  C   UNL     1       6.749  15.626  18.894  0.00  0.00    +0.000 C 
ATOM     33  C   UNL     1       6.796  17.117  19.184  0.00  0.00    +0.000 C 
ATOM     34  C   UNL     1       8.175  17.773  19.225  0.00  0.00    +0.000 C 
ATOM     35  C   UNL     1       9.305  17.104  18.445  0.00  0.00    +0.000 C 
ENDBRANCH  22  30
ENDBRANCH   4  22
TORSDOF 10
ENDMDL
MODEL 8
REMARK VINA RESULT:      -7.4      1.374      1.748
REMARK  Name = 
REMARK  12 active torsions:
REMARK  status: ('A' for Active; 'I' for Inactive)
REMARK    1  A    between atoms: C_1  and  O_2
REMARK    2  A    between atoms: O_2  and  C_3
REMARK    3  A    between atoms: C_5  and  C_6
REMARK    4  A    between atoms: C_6  and  C_7
REMARK    5  A    between atoms: C_11  and  O_12
REMARK    6  A    between atoms: O_12  and  C_13
REMARK    7  A    between atoms: C_13  and  C_14
REMARK    8  A    between atoms: C_14  and  C_15
REMARK    9  A    between atoms: C_15  and  N_16
REMARK   10  A    between atoms: C_19  and  C_20
REMARK   11  A    between atoms: C_20  and  C_21
REMARK   12  A    between atoms: C_20  and  C_28
REMARK                            x       y       z     vdW  Elec       q    Type
REMARK                         _______ _______ _______ _____ _____    ______ ____
ROOT
ATOM      1  N   UNL     1       9.555  10.543  18.693  0.00  0.00    +0.000 NA
ATOM      2  C   UNL     1       9.801  11.738  17.871  0.00  0.00    +0.000 C 
ATOM      3  C   UNL     1      10.894  12.633  18.463  0.00  0.00    +0.000 C 
ATOM      4  C   UNL     1      10.555  13.125  19.881  0.00  0.00    +0.000 C 
ATOM      5  C   UNL     1      10.366  11.856  20.720  0.00  0.00    +0.000 C 
ATOM      6  C   UNL     1       9.366  10.887  20.104  0.00  0.00    +0.000 C 
ENDROOT
BRANCH   1   7
ATOM      7  C   UNL     1       8.435   9.758  18.108  0.00  0.00    +0.000 C 
BRANCH   7   8
ATOM      8  C   UNL     1       8.287   8.264  18.483  0.00  0.00    +0.000 C 
BRANCH   8   9
ATOM      9  C   UNL     1       7.788   7.435  17.305  0.00  0.00    +0.000 C 
BRANCH   9  10
ATOM     10  O   UNL     1       6.403   7.550  17.043  0.00  0.00    +0.000 OA
BRANCH  10  16
ATOM     11  C   UNL     1       5.593   5.298  16.228  0.00  0.00    +0.000 A 
ATOM     12  C   UNL     1       4.999   4.090  16.634  0.00  0.00    +0.000 A 
ATOM     13  C   UNL     1       4.399   3.990  17.889  0.00  0.00    +0.000 A 
ATOM     14  C   UNL     1       4.406   5.088  18.751  0.00  0.00    +0.000 A 
ATOM     15  C   UNL     1       5.075   6.253  18.393  0.00  0.00    +0.000 A 
ATOM     16  C   UNL     1       5.715   6.357  17.158  0.00  0.00    +0.000 A 
BRANCH  13  17
ATOM     17  C   UNL     1       3.693   2.759  18.315  0.00  0.00    +0.000 C 
ATOM     18  C   UNL     1       2.443   2.311  17.593  0.00  0.00    +0.000 C 
ATOM     19  O   UNL     1       4.135   2.120  19.268  0.00  0.00    +0.000 OA
ENDBRANCH  13  17
BRANCH  11  21
ATOM     20  C   UNL     1       6.154   4.233  14.170  0.00  0.00    +0.000 C 
ATOM     21  O   UNL     1       6.057   5.432  14.941  0.00  0.00    +0.000 OA
ENDBRANCH  11  21
ENDBRANCH  10  16
ENDBRANCH   9  10
ENDBRANCH   8   9
ENDBRANCH   7   8
ENDBRANCH   1   7
BRANCH   4  22
ATOM     22  C   UNL     1       9.330  14.110  19.978  0.00  0.00    +0.000 C 
BRANCH  22  23
ATOM     23  C   UNL     1       9.319  14.842  21.318  0.00  0.00    +0.000 A 
ATOM     24  C   UNL     1      10.478  15.419  21.861  0.00  0.00    +0.000 A 
ATOM     25  C   UNL     1      10.432  16.110  23.073  0.00  0.00    +0.000 A 
ATOM     26  C   UNL     1       9.228  16.222  23.754  0.00  0.00    +0.000 A 
ATOM     27  F   UNL     1       9.185  16.885  24.917  0.00  0.00    +0.000 F 
ATOM     28  C   UNL     1       8.069  15.653  23.248  0.00  0.00    +0.000 A 
ATOM     29  C   UNL     1       8.114  14.952  22.041  0.00  0.00    +0.000 A 
ENDBRANCH  22  23
BRANCH  22  30
ATOM     30  C   UNL     1       9.135  15.041  18.722  0.00  0.00    +0.000 C 
ATOM     31  C   UNL     1       7.784  14.900  17.998  0.00  0.00    +0.000 C 
ATOM     32  C   UNL     1       6.635  15.641  18.663  0.00  0.00    +0.000 C 
ATOM     33  C   UNL     1       6.929  17.108  18.935  0.00  0.00    +0.000 C 
ATOM     34  C   UNL     1       8.362  17.469  19.319  0.00  0.00    +0.000 C 
ATOM     35  C   UNL     1       9.478  16.531  18.865  0.00  0.00    +0.000 C 
ENDBRANCH  22  30
ENDBRANCH   4  22
TORSDOF 10
ENDMDL
MODEL 9
REMARK VINA RESULT:      -7.4      3.887     11.676
REMARK  Name = 
REMARK  12 active torsions:
REMARK  status: ('A' for Active; 'I' for Inactive)
REMARK    1  A    between atoms: C_1  and  O_2
REMARK    2  A    between atoms: O_2  and  C_3
REMARK    3  A    between atoms: C_5  and  C_6
REMARK    4  A    between atoms: C_6  and  C_7
REMARK    5  A    between atoms: C_11  and  O_12
REMARK    6  A    between atoms: O_12  and  C_13
REMARK    7  A    between atoms: C_13  and  C_14
REMARK    8  A    between atoms: C_14  and  C_15
REMARK    9  A    between atoms: C_15  and  N_16
REMARK   10  A    between atoms: C_19  and  C_20
REMARK   11  A    between atoms: C_20  and  C_21
REMARK   12  A    between atoms: C_20  and  C_28
REMARK                            x       y       z     vdW  Elec       q    Type
REMARK                         _______ _______ _______ _____ _____    ______ ____
ROOT
ATOM      1  N   UNL     1       7.308   6.706  17.192  0.00  0.00    +0.000 NA
ATOM      2  C   UNL     1       7.449   5.280  17.524  0.00  0.00    +0.000 C 
ATOM      3  C   UNL     1       6.623   4.385  16.596  0.00  0.00    +0.000 C 
ATOM      4  C   UNL     1       5.119   4.711  16.639  0.00  0.00    +0.000 C 
ATOM      5  C   UNL     1       5.007   6.183  16.230  0.00  0.00    +0.000 C 
ATOM      6  C   UNL     1       5.902   7.095  17.060  0.00  0.00    +0.000 C 
ENDROOT
BRANCH   1   7
ATOM      7  C   UNL     1       8.070   7.524  18.174  0.00  0.00    +0.000 C 
BRANCH   7   8
ATOM      8  C   UNL     1       8.306   9.025  17.881  0.00  0.00    +0.000 C 
BRANCH   8   9
ATOM      9  C   UNL     1       8.865   9.754  19.097  0.00  0.00    +0.000 C 
BRANCH   9  10
ATOM     10  O   UNL     1      10.124  10.366  18.896  0.00  0.00    +0.000 OA
BRANCH  10  16
ATOM     11  C   UNL     1      11.005  12.709  19.248  0.00  0.00    +0.000 A 
ATOM     12  C   UNL     1      10.876  13.864  20.041  0.00  0.00    +0.000 A 
ATOM     13  C   UNL     1      10.174  13.814  21.244  0.00  0.00    +0.000 A 
ATOM     14  C   UNL     1       9.581  12.618  21.653  0.00  0.00    +0.000 A 
ATOM     15  C   UNL     1       9.624  11.500  20.828  0.00  0.00    +0.000 A 
ATOM     16  C   UNL     1      10.288  11.543  19.602  0.00  0.00    +0.000 A 
BRANCH  13  17
ATOM     17  C   UNL     1      10.088  14.990  22.141  0.00  0.00    +0.000 C 
ATOM     18  C   UNL     1      10.871  16.244  21.826  0.00  0.00    +0.000 C 
ATOM     19  O   UNL     1       9.383  14.922  23.146  0.00  0.00    +0.000 OA
ENDBRANCH  13  17
BRANCH  11  21
ATOM     20  C   UNL     1      11.235  13.245  16.937  0.00  0.00    +0.000 C 
ATOM     21  O   UNL     1      11.814  12.730  18.137  0.00  0.00    +0.000 OA
ENDBRANCH  11  21
ENDBRANCH  10  16
ENDBRANCH   9  10
ENDBRANCH   8   9
ENDBRANCH   7   8
ENDBRANCH   1   7
BRANCH   4  22
ATOM     22  C   UNL     1       4.402   4.400  18.006  0.00  0.00    +0.000 C 
BRANCH  22  23
ATOM     23  C   UNL     1       3.536   5.576  18.451  0.00  0.00    +0.000 A 
ATOM     24  C   UNL     1       2.813   6.357  17.536  0.00  0.00    +0.000 A 
ATOM     25  C   UNL     1       2.004   7.407  17.973  0.00  0.00    +0.000 A 
ATOM     26  C   UNL     1       1.917   7.687  19.330  0.00  0.00    +0.000 A 
ATOM     27  F   UNL     1       1.141   8.695  19.749  0.00  0.00    +0.000 F 
ATOM     28  C   UNL     1       2.629   6.940  20.257  0.00  0.00    +0.000 A 
ATOM     29  C   UNL     1       3.447   5.896  19.821  0.00  0.00    +0.000 A 
ENDBRANCH  22  23
BRANCH  22  30
ATOM     30  C   UNL     1       3.685   2.999  18.068  0.00  0.00    +0.000 C 
ATOM     31  C   UNL     1       3.943   2.180  19.346  0.00  0.00    +0.000 C 
ATOM     32  C   UNL     1       3.107   2.605  20.544  0.00  0.00    +0.000 C 
ATOM     33  C   UNL     1       1.615   2.666  20.257  0.00  0.00    +0.000 C 
ATOM     34  C   UNL     1       1.195   3.123  18.862  0.00  0.00    +0.000 C 
ATOM     35  C   UNL     1       2.191   2.933  17.720  0.00  0.00    +0.000 C 
ENDBRANCH  22  30
ENDBRANCH   4  22
TORSDOF 10
ENDMDL
