MODEL 1
REMARK VINA RESULT:      -7.8      0.000      0.000
REMARK  Name = 
REMARK  6 active torsions:
REMARK  status: ('A' for Active; 'I' for Inactive)
REMARK    1  A    between atoms: C_1  and  O_2
REMARK    2  A    between atoms: O_2  and  C_3
REMARK    3  A    between atoms: C_3  and  C_5
REMARK    4  A    between atoms: C_5  and  N_13
REMARK    5  A    between atoms: C_6  and  C_7
REMARK    6  A    between atoms: C_14  and  C_16
REMARK                            x       y       z     vdW  Elec       q    Type
REMARK                         _______ _______ _______ _____ _____    ______ ____
ROOT
ATOM      1  C   UNL     1       6.209   6.278  17.522  0.00  0.00    +0.000 C 
ATOM      2  C   UNL     1       5.306   5.862  18.427  0.00  0.00    +0.000 C 
ENDROOT
BRANCH   2   3
ATOM      3  C   UNL     1       4.188   4.951  18.181  0.00  0.00    +0.000 A 
ATOM      4  C   UNL     1       2.901   5.430  17.945  0.00  0.00    +0.000 A 
ATOM      5  C   UNL     1       1.845   4.528  17.833  0.00  0.00    +0.000 A 
ATOM      6  C   UNL     1       2.116   3.173  17.950  0.00  0.00    +0.000 A 
ATOM      7  N   UNL     1       3.352   2.670  18.154  0.00  0.00    +0.000 NA
ATOM      8  C   UNL     1       4.357   3.570  18.267  0.00  0.00    +0.000 A 
ENDBRANCH   2   3
BRANCH   1   9
ATOM      9  N   UNL     1       6.159   5.922  16.181  0.00  0.00    +0.000 N 
ATOM     10  C   UNL     1       7.034   4.955  15.691  0.00  0.00    +0.000 C 
ATOM     11  O   UNL     1       7.901   4.393  16.350  0.00  0.00    +0.000 OA
ATOM     12  H   UNL     1       5.214   5.690  15.876  0.00  0.00    +0.000 HD
BRANCH  10  13
ATOM     13  C   UNL     1       6.813   4.580  14.262  0.00  0.00    +0.000 A 
ATOM     14  C   UNL     1       7.693   5.047  13.274  0.00  0.00    +0.000 A 
ATOM     15  C   UNL     1       7.517   4.664  11.944  0.00  0.00    +0.000 A 
ATOM     16  C   UNL     1       6.463   3.820  11.596  0.00  0.00    +0.000 A 
ATOM     17  C   UNL     1       5.584   3.355  12.575  0.00  0.00    +0.000 A 
ATOM     18  C   UNL     1       5.760   3.731  13.911  0.00  0.00    +0.000 A 
ENDBRANCH  10  13
ENDBRANCH   1   9
BRANCH   1  19
ATOM     19  C   UNL     1       7.414   7.059  17.947  0.00  0.00    +0.000 C 
ATOM     20  O   UNL     1       8.157   6.677  18.843  0.00  0.00    +0.000 OA
BRANCH  19  22
ATOM     21  C   UNL     1       8.196   9.265  17.939  0.00  0.00    +0.000 C 
ATOM     22  O   UNL     1       7.555   8.205  17.234  0.00  0.00    +0.000 OA
ENDBRANCH  19  22
ENDBRANCH   1  19
TORSDOF 5
ENDMDL
MODEL 2
REMARK VINA RESULT:      -7.8      0.075      1.059
REMARK  Name = 
REMARK  6 active torsions:
REMARK  status: ('A' for Active; 'I' for Inactive)
REMARK    1  A    between atoms: C_1  and  O_2
REMARK    2  A    between atoms: O_2  and  C_3
REMARK    3  A    between atoms: C_3  and  C_5
REMARK    4  A    between atoms: C_5  and  N_13
REMARK    5  A    between atoms: C_6  and  C_7
REMARK    6  A    between atoms: C_14  and  C_16
REMARK                            x       y       z     vdW  Elec       q    Type
REMARK                         _______ _______ _______ _____ _____    ______ ____
ROOT
ATOM      1  C   UNL     1       6.224   6.327  17.488  0.00  0.00    +0.000 C 
ATOM      2  C   UNL     1       5.300   5.923  18.377  0.00  0.00    +0.000 C 
ENDROOT
BRANCH   2   3
ATOM      3  C   UNL     1       4.193   5.001  18.120  0.00  0.00    +0.000 A 
ATOM      4  C   UNL     1       2.896   5.465  17.919  0.00  0.00    +0.000 A 
ATOM      5  C   UNL     1       1.853   4.549  17.794  0.00  0.00    +0.000 A 
ATOM      6  C   UNL     1       2.148   3.196  17.864  0.00  0.00    +0.000 A 
ATOM      7  N   UNL     1       3.396   2.708  18.033  0.00  0.00    +0.000 NA
ATOM      8  C   UNL     1       4.388   3.621  18.158  0.00  0.00    +0.000 A 
ENDBRANCH   2   3
BRANCH   1   9
ATOM      9  N   UNL     1       6.210   5.947  16.153  0.00  0.00    +0.000 N 
ATOM     10  C   UNL     1       7.070   4.941  15.714  0.00  0.00    +0.000 C 
ATOM     11  O   UNL     1       7.893   4.365  16.414  0.00  0.00    +0.000 OA
ATOM     12  H   UNL     1       5.270   5.740  15.818  0.00  0.00    +0.000 HD
BRANCH  10  13
ATOM     13  C   UNL     1       6.888   4.545  14.285  0.00  0.00    +0.000 A 
ATOM     14  C   UNL     1       5.838   3.687  13.926  0.00  0.00    +0.000 A 
ATOM     15  C   UNL     1       5.638   3.349  12.587  0.00  0.00    +0.000 A 
ATOM     16  C   UNL     1       6.485   3.862  11.605  0.00  0.00    +0.000 A 
ATOM     17  C   UNL     1       7.532   4.714  11.958  0.00  0.00    +0.000 A 
ATOM     18  C   UNL     1       7.734   5.061  13.298  0.00  0.00    +0.000 A 
ENDBRANCH  10  13
ENDBRANCH   1   9
BRANCH   1  19
ATOM     19  C   UNL     1       7.413   7.123  17.929  0.00  0.00    +0.000 C 
ATOM     20  O   UNL     1       8.161   6.740  18.821  0.00  0.00    +0.000 OA
BRANCH  19  22
ATOM     21  C   UNL     1       8.201   9.327  17.941  0.00  0.00    +0.000 C 
ATOM     22  O   UNL     1       7.535   8.283  17.236  0.00  0.00    +0.000 OA
ENDBRANCH  19  22
ENDBRANCH   1  19
TORSDOF 5
ENDMDL
MODEL 3
REMARK VINA RESULT:      -7.7      0.660      1.061
REMARK  Name = 
REMARK  6 active torsions:
REMARK  status: ('A' for Active; 'I' for Inactive)
REMARK    1  A    between atoms: C_1  and  O_2
REMARK    2  A    between atoms: O_2  and  C_3
REMARK    3  A    between atoms: C_3  and  C_5
REMARK    4  A    between atoms: C_5  and  N_13
REMARK    5  A    between atoms: C_6  and  C_7
REMARK    6  A    between atoms: C_14  and  C_16
REMARK                            x       y       z     vdW  Elec       q    Type
REMARK                         _______ _______ _______ _____ _____    ______ ____
ROOT
ATOM      1  C   UNL     1       6.289   6.387  17.552  0.00  0.00    +0.000 C 
ATOM      2  C   UNL     1       5.382   5.983  18.458  0.00  0.00    +0.000 C 
ENDROOT
BRANCH   2   3
ATOM      3  C   UNL     1       4.261   5.073  18.217  0.00  0.00    +0.000 A 
ATOM      4  C   UNL     1       4.464   3.709  18.023  0.00  0.00    +0.000 A 
ATOM      5  C   UNL     1       3.383   2.898  17.681  0.00  0.00    +0.000 A 
ATOM      6  C   UNL     1       2.132   3.481  17.555  0.00  0.00    +0.000 A 
ATOM      7  N   UNL     1       1.891   4.794  17.760  0.00  0.00    +0.000 NA
ATOM      8  C   UNL     1       2.961   5.558  18.085  0.00  0.00    +0.000 A 
ENDBRANCH   2   3
BRANCH   1   9
ATOM      9  N   UNL     1       6.241   6.020  16.214  0.00  0.00    +0.000 N 
ATOM     10  C   UNL     1       7.051   4.983  15.755  0.00  0.00    +0.000 C 
ATOM     11  O   UNL     1       7.858   4.366  16.440  0.00  0.00    +0.000 OA
ATOM     12  H   UNL     1       5.289   5.856  15.890  0.00  0.00    +0.000 HD
BRANCH  10  13
ATOM     13  C   UNL     1       6.834   4.608  14.326  0.00  0.00    +0.000 A 
ATOM     14  C   UNL     1       7.697   5.103  13.335  0.00  0.00    +0.000 A 
ATOM     15  C   UNL     1       7.526   4.720  12.005  0.00  0.00    +0.000 A 
ATOM     16  C   UNL     1       6.493   3.850  11.657  0.00  0.00    +0.000 A 
ATOM     17  C   UNL     1       5.631   3.358  12.639  0.00  0.00    +0.000 A 
ATOM     18  C   UNL     1       5.802   3.733  13.975  0.00  0.00    +0.000 A 
ENDBRANCH  10  13
ENDBRANCH   1   9
BRANCH   1  19
ATOM     19  C   UNL     1       7.495   7.168  17.974  0.00  0.00    +0.000 C 
ATOM     20  O   UNL     1       8.250   6.777  18.855  0.00  0.00    +0.000 OA
BRANCH  19  22
ATOM     21  C   UNL     1       8.265   9.379  17.989  0.00  0.00    +0.000 C 
ATOM     22  O   UNL     1       7.621   8.325  17.277  0.00  0.00    +0.000 OA
ENDBRANCH  19  22
ENDBRANCH   1  19
TORSDOF 5
ENDMDL
MODEL 4
REMARK VINA RESULT:      -7.6      1.176      1.673
REMARK  Name = 
REMARK  6 active torsions:
REMARK  status: ('A' for Active; 'I' for Inactive)
REMARK    1  A    between atoms: C_1  and  O_2
REMARK    2  A    between atoms: O_2  and  C_3
REMARK    3  A    between atoms: C_3  and  C_5
REMARK    4  A    between atoms: C_5  and  N_13
REMARK    5  A    between atoms: C_6  and  C_7
REMARK    6  A    between atoms: C_14  and  C_16
REMARK                            x       y       z     vdW  Elec       q    Type
REMARK                         _______ _______ _______ _____ _____    ______ ____
ROOT
ATOM      1  C   UNL     1       6.219   5.028  18.221  0.00  0.00    +0.000 C 
ATOM      2  C   UNL     1       5.116   4.820  18.961  0.00  0.00    +0.000 C 
ENDROOT
BRANCH   2   3
ATOM      3  C   UNL     1       3.940   4.043  18.566  0.00  0.00    +0.000 A 
ATOM      4  C   UNL     1       2.852   4.645  17.938  0.00  0.00    +0.000 A 
ATOM      5  C   UNL     1       1.707   3.893  17.685  0.00  0.00    +0.000 A 
ATOM      6  C   UNL     1       1.694   2.558  18.060  0.00  0.00    +0.000 A 
ATOM      7  N   UNL     1       2.737   1.934  18.647  0.00  0.00    +0.000 NA
ATOM      8  C   UNL     1       3.834   2.691  18.887  0.00  0.00    +0.000 A 
ENDBRANCH   2   3
BRANCH   1   9
ATOM      9  N   UNL     1       6.362   4.558  16.923  0.00  0.00    +0.000 N 
ATOM     10  C   UNL     1       5.988   5.368  15.852  0.00  0.00    +0.000 C 
ATOM     11  O   UNL     1       5.494   6.484  15.954  0.00  0.00    +0.000 OA
ATOM     12  H   UNL     1       7.296   4.192  16.743  0.00  0.00    +0.000 HD
BRANCH  10  13
ATOM     13  C   UNL     1       6.288   4.798  14.504  0.00  0.00    +0.000 A 
ATOM     14  C   UNL     1       5.408   3.870  13.927  0.00  0.00    +0.000 A 
ATOM     15  C   UNL     1       5.660   3.368  12.650  0.00  0.00    +0.000 A 
ATOM     16  C   UNL     1       6.792   3.785  11.949  0.00  0.00    +0.000 A 
ATOM     17  C   UNL     1       7.672   4.705  12.521  0.00  0.00    +0.000 A 
ATOM     18  C   UNL     1       7.419   5.216  13.798  0.00  0.00    +0.000 A 
ENDBRANCH  10  13
ENDBRANCH   1   9
BRANCH   1  19
ATOM     19  C   UNL     1       7.427   5.681  18.818  0.00  0.00    +0.000 C 
ATOM     20  O   UNL     1       7.722   5.555  20.000  0.00  0.00    +0.000 OA
BRANCH  19  22
ATOM     21  C   UNL     1       7.941   7.820  18.016  0.00  0.00    +0.000 C 
ATOM     22  O   UNL     1       8.116   6.410  17.903  0.00  0.00    +0.000 OA
ENDBRANCH  19  22
ENDBRANCH   1  19
TORSDOF 5
ENDMDL
MODEL 5
REMARK VINA RESULT:      -7.6      1.162      1.257
REMARK  Name = 
REMARK  6 active torsions:
REMARK  status: ('A' for Active; 'I' for Inactive)
REMARK    1  A    between atoms: C_1  and  O_2
REMARK    2  A    between atoms: O_2  and  C_3
REMARK    3  A    between atoms: C_3  and  C_5
REMARK    4  A    between atoms: C_5  and  N_13
REMARK    5  A    between atoms: C_6  and  C_7
REMARK    6  A    between atoms: C_14  and  C_16
REMARK                            x       y       z     vdW  Elec       q    Type
REMARK                         _______ _______ _______ _____ _____    ______ ____
ROOT
ATOM      1  C   UNL     1       6.288   5.076  18.103  0.00  0.00    +0.000 C 
ATOM      2  C   UNL     1       5.216   4.851  18.882  0.00  0.00    +0.000 C 
ENDROOT
BRANCH   2   3
ATOM      3  C   UNL     1       4.043   4.048  18.533  0.00  0.00    +0.000 A 
ATOM      4  C   UNL     1       2.923   4.622  17.936  0.00  0.00    +0.000 A 
ATOM      5  C   UNL     1       1.785   3.845  17.728  0.00  0.00    +0.000 A 
ATOM      6  C   UNL     1       1.812   2.514  18.116  0.00  0.00    +0.000 A 
ATOM      7  N   UNL     1       2.886   1.916  18.674  0.00  0.00    +0.000 NA
ATOM      8  C   UNL     1       3.975   2.698  18.871  0.00  0.00    +0.000 A 
ENDBRANCH   2   3
BRANCH   1   9
ATOM      9  N   UNL     1       6.396   4.600  16.804  0.00  0.00    +0.000 N 
ATOM     10  C   UNL     1       5.950   5.385  15.743  0.00  0.00    +0.000 C 
ATOM     11  O   UNL     1       5.419   6.483  15.855  0.00  0.00    +0.000 OA
ATOM     12  H   UNL     1       7.335   4.266  16.589  0.00  0.00    +0.000 HD
BRANCH  10  13
ATOM     13  C   UNL     1       6.216   4.813  14.389  0.00  0.00    +0.000 A 
ATOM     14  C   UNL     1       7.373   5.187  13.687  0.00  0.00    +0.000 A 
ATOM     15  C   UNL     1       7.648   4.622  12.442  0.00  0.00    +0.000 A 
ATOM     16  C   UNL     1       6.771   3.688  11.891  0.00  0.00    +0.000 A 
ATOM     17  C   UNL     1       5.618   3.316  12.584  0.00  0.00    +0.000 A 
ATOM     18  C   UNL     1       5.341   3.875  13.836  0.00  0.00    +0.000 A 
ENDBRANCH  10  13
ENDBRANCH   1   9
BRANCH   1  19
ATOM     19  C   UNL     1       7.502   5.759  18.653  0.00  0.00    +0.000 C 
ATOM     20  O   UNL     1       7.882   5.588  19.805  0.00  0.00    +0.000 OA
BRANCH  19  22
ATOM     21  C   UNL     1       7.850   7.957  17.929  0.00  0.00    +0.000 C 
ATOM     22  O   UNL     1       8.092   6.566  17.736  0.00  0.00    +0.000 OA
ENDBRANCH  19  22
ENDBRANCH   1  19
TORSDOF 5
ENDMDL
MODEL 6
REMARK VINA RESULT:      -7.6      3.323      6.926
REMARK  Name = 
REMARK  6 active torsions:
REMARK  status: ('A' for Active; 'I' for Inactive)
REMARK    1  A    between atoms: C_1  and  O_2
REMARK    2  A    between atoms: O_2  and  C_3
REMARK    3  A    between atoms: C_3  and  C_5
REMARK    4  A    between atoms: C_5  and  N_13
REMARK    5  A    between atoms: C_6  and  C_7
REMARK    6  A    between atoms: C_14  and  C_16
REMARK                            x       y       z     vdW  Elec       q    Type
REMARK                         _______ _______ _______ _____ _____    ______ ____
ROOT
ATOM      1  C   UNL     1       3.725   4.057  17.603  0.00  0.00    +0.000 C 
ATOM      2  C   UNL     1       5.060   3.967  17.468  0.00  0.00    +0.000 C 
ENDROOT
BRANCH   2   3
ATOM      3  C   UNL     1       6.015   5.074  17.530  0.00  0.00    +0.000 A 
ATOM      4  C   UNL     1       6.913   5.199  18.587  0.00  0.00    +0.000 A 
ATOM      5  C   UNL     1       7.724   6.329  18.667  0.00  0.00    +0.000 A 
ATOM      6  C   UNL     1       7.615   7.293  17.676  0.00  0.00    +0.000 A 
ATOM      7  N   UNL     1       6.775   7.196  16.623  0.00  0.00    +0.000 NA
ATOM      8  C   UNL     1       5.995   6.090  16.576  0.00  0.00    +0.000 A 
ENDBRANCH   2   3
BRANCH   1   9
ATOM      9  N   UNL     1       3.059   5.264  17.771  0.00  0.00    +0.000 N 
ATOM     10  C   UNL     1       2.990   5.842  19.037  0.00  0.00    +0.000 C 
ATOM     11  O   UNL     1       3.448   5.350  20.061  0.00  0.00    +0.000 OA
ATOM     12  H   UNL     1       3.366   5.973  17.106  0.00  0.00    +0.000 HD
BRANCH  10  13
ATOM     13  C   UNL     1       2.343   7.188  19.073  0.00  0.00    +0.000 A 
ATOM     14  C   UNL     1       1.746   7.645  20.258  0.00  0.00    +0.000 A 
ATOM     15  C   UNL     1       1.179   8.919  20.309  0.00  0.00    +0.000 A 
ATOM     16  C   UNL     1       1.202   9.737  19.180  0.00  0.00    +0.000 A 
ATOM     17  C   UNL     1       1.792   9.286  17.999  0.00  0.00    +0.000 A 
ATOM     18  C   UNL     1       2.367   8.012  17.944  0.00  0.00    +0.000 A 
ENDBRANCH  10  13
ENDBRANCH   1   9
BRANCH   1  19
ATOM     19  C   UNL     1       2.882   2.824  17.710  0.00  0.00    +0.000 C 
ATOM     20  O   UNL     1       3.371   1.705  17.802  0.00  0.00    +0.000 OA
BRANCH  19  22
ATOM     21  C   UNL     1       0.812   2.573  18.773  0.00  0.00    +0.000 C 
ATOM     22  O   UNL     1       1.556   3.110  17.683  0.00  0.00    +0.000 OA
ENDBRANCH  19  22
ENDBRANCH   1  19
TORSDOF 5
ENDMDL
MODEL 7
REMARK VINA RESULT:      -7.5      3.331      6.907
REMARK  Name = 
REMARK  6 active torsions:
REMARK  status: ('A' for Active; 'I' for Inactive)
REMARK    1  A    between atoms: C_1  and  O_2
REMARK    2  A    between atoms: O_2  and  C_3
REMARK    3  A    between atoms: C_3  and  C_5
REMARK    4  A    between atoms: C_5  and  N_13
REMARK    5  A    between atoms: C_6  and  C_7
REMARK    6  A    between atoms: C_14  and  C_16
REMARK                            x       y       z     vdW  Elec       q    Type
REMARK                         _______ _______ _______ _____ _____    ______ ____
ROOT
ATOM      1  C   UNL     1       3.556   4.094  17.578  0.00  0.00    +0.000 C 
ATOM      2  C   UNL     1       4.884   3.954  17.421  0.00  0.00    +0.000 C 
ENDROOT
BRANCH   2   3
ATOM      3  C   UNL     1       5.882   5.023  17.475  0.00  0.00    +0.000 A 
ATOM      4  C   UNL     1       6.803   5.103  18.517  0.00  0.00    +0.000 A 
ATOM      5  C   UNL     1       7.657   6.201  18.591  0.00  0.00    +0.000 A 
ATOM      6  C   UNL     1       7.568   7.178  17.612  0.00  0.00    +0.000 A 
ATOM      7  N   UNL     1       6.706   7.123  16.573  0.00  0.00    +0.000 NA
ATOM      8  C   UNL     1       5.883   6.048  16.531  0.00  0.00    +0.000 A 
ENDBRANCH   2   3
BRANCH   1   9
ATOM      9  N   UNL     1       2.940   5.324  17.764  0.00  0.00    +0.000 N 
ATOM     10  C   UNL     1       2.913   5.895  19.035  0.00  0.00    +0.000 C 
ATOM     11  O   UNL     1       3.367   5.378  20.048  0.00  0.00    +0.000 OA
ATOM     12  H   UNL     1       3.263   6.025  17.099  0.00  0.00    +0.000 HD
BRANCH  10  13
ATOM     13  C   UNL     1       2.318   7.264  19.091  0.00  0.00    +0.000 A 
ATOM     14  C   UNL     1       2.364   8.092  17.959  0.00  0.00    +0.000 A 
ATOM     15  C   UNL     1       1.771   9.355  17.991  0.00  0.00    +0.000 A 
ATOM     16  C   UNL     1       1.137   9.797  19.152  0.00  0.00    +0.000 A 
ATOM     17  C   UNL     1       1.092   8.978  20.282  0.00  0.00    +0.000 A 
ATOM     18  C   UNL     1       1.679   7.708  20.252  0.00  0.00    +0.000 A 
ENDBRANCH  10  13
ENDBRANCH   1   9
BRANCH   1  19
ATOM     19  C   UNL     1       2.668   2.893  17.689  0.00  0.00    +0.000 C 
ATOM     20  O   UNL     1       3.111   1.751  17.685  0.00  0.00    +0.000 OA
BRANCH  19  22
ATOM     21  C   UNL     1       0.709   2.774  18.965  0.00  0.00    +0.000 C 
ATOM     22  O   UNL     1       1.359   3.235  17.783  0.00  0.00    +0.000 OA
ENDBRANCH  19  22
ENDBRANCH   1  19
TORSDOF 5
ENDMDL
MODEL 8
REMARK VINA RESULT:      -7.4      3.183      5.617
REMARK  Name = 
REMARK  6 active torsions:
REMARK  status: ('A' for Active; 'I' for Inactive)
REMARK    1  A    between atoms: C_1  and  O_2
REMARK    2  A    between atoms: O_2  and  C_3
REMARK    3  A    between atoms: C_3  and  C_5
REMARK    4  A    between atoms: C_5  and  N_13
REMARK    5  A    between atoms: C_6  and  C_7
REMARK    6  A    between atoms: C_14  and  C_16
REMARK                            x       y       z     vdW  Elec       q    Type
REMARK                         _______ _______ _______ _____ _____    ______ ____
ROOT
ATOM      1  C   UNL     1       5.102   4.790  19.390  0.00  0.00    +0.000 C 
ATOM      2  C   UNL     1       4.666   3.519  19.391  0.00  0.00    +0.000 C 
ENDROOT
BRANCH   2   3
ATOM      3  C   UNL     1       3.273   3.080  19.486  0.00  0.00    +0.000 A 
ATOM      4  C   UNL     1       2.520   2.807  18.346  0.00  0.00    +0.000 A 
ATOM      5  C   UNL     1       1.166   2.506  18.477  0.00  0.00    +0.000 A 
ATOM      6  C   UNL     1       0.613   2.478  19.748  0.00  0.00    +0.000 A 
ATOM      7  N   UNL     1       1.315   2.712  20.877  0.00  0.00    +0.000 NA
ATOM      8  C   UNL     1       2.627   3.009  20.719  0.00  0.00    +0.000 A 
ENDBRANCH   2   3
BRANCH   1   9
ATOM      9  N   UNL     1       4.258   5.883  19.537  0.00  0.00    +0.000 N 
ATOM     10  C   UNL     1       3.581   6.384  18.428  0.00  0.00    +0.000 C 
ATOM     11  O   UNL     1       3.691   5.958  17.284  0.00  0.00    +0.000 OA
ATOM     12  H   UNL     1       3.591   5.758  20.297  0.00  0.00    +0.000 HD
BRANCH  10  13
ATOM     13  C   UNL     1       2.622   7.490  18.729  0.00  0.00    +0.000 A 
ATOM     14  C   UNL     1       2.033   7.576  20.000  0.00  0.00    +0.000 A 
ATOM     15  C   UNL     1       1.172   8.631  20.300  0.00  0.00    +0.000 A 
ATOM     16  C   UNL     1       0.892   9.599  19.336  0.00  0.00    +0.000 A 
ATOM     17  C   UNL     1       1.474   9.516  18.070  0.00  0.00    +0.000 A 
ATOM     18  C   UNL     1       2.344   8.463  17.766  0.00  0.00    +0.000 A 
ENDBRANCH  10  13
ENDBRANCH   1   9
BRANCH   1  19
ATOM     19  C   UNL     1       6.536   5.106  19.096  0.00  0.00    +0.000 C 
ATOM     20  O   UNL     1       7.311   5.493  19.963  0.00  0.00    +0.000 OA
BRANCH  19  22
ATOM     21  C   UNL     1       7.148   6.112  17.073  0.00  0.00    +0.000 C 
ATOM     22  O   UNL     1       6.841   4.918  17.787  0.00  0.00    +0.000 OA
ENDBRANCH  19  22
ENDBRANCH   1  19
TORSDOF 5
ENDMDL
MODEL 9
REMARK VINA RESULT:      -7.4      3.050      5.644
REMARK  Name = 
REMARK  6 active torsions:
REMARK  status: ('A' for Active; 'I' for Inactive)
REMARK    1  A    between atoms: C_1  and  O_2
REMARK    2  A    between atoms: O_2  and  C_3
REMARK    3  A    between atoms: C_3  and  C_5
REMARK    4  A    between atoms: C_5  and  N_13
REMARK    5  A    between atoms: C_6  and  C_7
REMARK    6  A    between atoms: C_14  and  C_16
REMARK                            x       y       z     vdW  Elec       q    Type
REMARK                         _______ _______ _______ _____ _____    ______ ____
ROOT
ATOM      1  C   UNL     1       5.132   5.011  19.332  0.00  0.00    +0.000 C 
ATOM      2  C   UNL     1       4.727   3.733  19.228  0.00  0.00    +0.000 C 
ENDROOT
BRANCH   2   3
ATOM      3  C   UNL     1       3.342   3.261  19.207  0.00  0.00    +0.000 A 
ATOM      4  C   UNL     1       2.601   3.135  20.380  0.00  0.00    +0.000 A 
ATOM      5  C   UNL     1       1.327   2.572  20.327  0.00  0.00    +0.000 A 
ATOM      6  C   UNL     1       0.834   2.163  19.098  0.00  0.00    +0.000 A 
ATOM      7  N   UNL     1       1.511   2.292  17.937  0.00  0.00    +0.000 NA
ATOM      8  C   UNL     1       2.749   2.836  18.019  0.00  0.00    +0.000 A 
ENDBRANCH   2   3
BRANCH   1   9
ATOM      9  N   UNL     1       4.254   6.075  19.490  0.00  0.00    +0.000 N 
ATOM     10  C   UNL     1       3.563   6.568  18.385  0.00  0.00    +0.000 C 
ATOM     11  O   UNL     1       3.688   6.159  17.237  0.00  0.00    +0.000 OA
ATOM     12  H   UNL     1       3.590   5.921  20.247  0.00  0.00    +0.000 HD
BRANCH  10  13
ATOM     13  C   UNL     1       2.571   7.640  18.698  0.00  0.00    +0.000 A 
ATOM     14  C   UNL     1       2.006   7.716  19.980  0.00  0.00    +0.000 A 
ATOM     15  C   UNL     1       1.112   8.742  20.290  0.00  0.00    +0.000 A 
ATOM     16  C   UNL     1       0.776   9.689  19.323  0.00  0.00    +0.000 A 
ATOM     17  C   UNL     1       1.333   9.615  18.046  0.00  0.00    +0.000 A 
ATOM     18  C   UNL     1       2.235   8.592  17.732  0.00  0.00    +0.000 A 
ENDBRANCH  10  13
ENDBRANCH   1   9
BRANCH   1  19
ATOM     19  C   UNL     1       6.574   5.373  19.150  0.00  0.00    +0.000 C 
ATOM     20  O   UNL     1       7.367   5.381  20.083  0.00  0.00    +0.000 OA
BRANCH  19  22
ATOM     21  C   UNL     1       7.386   4.604  17.093  0.00  0.00    +0.000 C 
ATOM     22  O   UNL     1       6.861   5.685  17.861  0.00  0.00    +0.000 OA
ENDBRANCH  19  22
ENDBRANCH   1  19
TORSDOF 5
ENDMDL
