MODEL 1
REMARK VINA RESULT:      -7.5      0.000      0.000
REMARK  Name = 
REMARK  3 active torsions:
REMARK  status: ('A' for Active; 'I' for Inactive)
REMARK    1  A    between atoms: C_1  and  N_2
REMARK    2  A    between atoms: C_11  and  C_12
REMARK    3  A    between atoms: C_21  and  C_22
REMARK                            x       y       z     vdW  Elec       q    Type
REMARK                         _______ _______ _______ _____ _____    ______ ____
ROOT
ATOM      1  C   UNL     1       5.938  16.108  25.365  0.00  0.00    +0.000 C 
ATOM      2  N   UNL     1       5.673  15.808  23.960  0.00  0.00    +0.000 NA
ATOM      3  C   UNL     1       4.678  16.752  23.409  0.00  0.00    +0.000 C 
ATOM      4  C   UNL     1       4.341  16.453  21.934  0.00  0.00    +0.000 C 
ATOM      5  N   UNL     1       3.875  15.069  21.784  0.00  0.00    +0.000 N 
ATOM      6  C   UNL     1       2.934  14.680  20.843  0.00  0.00    +0.000 A 
ATOM      7  C   UNL     1       2.764  15.500  19.598  0.00  0.00    +0.000 A 
ATOM      8  C   UNL     1       1.830  15.146  18.717  0.00  0.00    +0.000 A 
ATOM      9  C   UNL     1       1.014  14.039  18.976  0.00  0.00    +0.000 A 
ATOM     10  N   UNL     1       0.021  13.533  18.282  0.00  0.00    +0.000 NA
ATOM     11  C   UNL     1      -0.414  12.448  19.005  0.00  0.00    +0.000 A 
ATOM     12  C   UNL     1       0.327  12.284  20.183  0.00  0.00    +0.000 A 
ATOM     13  N   UNL     1       1.254  13.324  20.139  0.00  0.00    +0.000 N 
ATOM     14  N   UNL     1       2.217  13.607  21.078  0.00  0.00    +0.000 NA
ATOM     15  C   UNL     1       4.814  14.079  22.344  0.00  0.00    +0.000 C 
ATOM     16  C   UNL     1       5.162  14.424  23.808  0.00  0.00    +0.000 C 
ENDROOT
BRANCH  11  17
ATOM     17  C   UNL     1      -1.521  11.627  18.521  0.00  0.00    +0.000 A 
ATOM     18  C   UNL     1      -1.325  10.578  17.604  0.00  0.00    +0.000 A 
ATOM     19  C   UNL     1      -2.409   9.890  17.029  0.00  0.00    +0.000 A 
ATOM     20  C   UNL     1      -3.711  10.174  17.427  0.00  0.00    +0.000 A 
ATOM     21  C   UNL     1      -3.887  11.148  18.388  0.00  0.00    +0.000 A 
ATOM     22  C   UNL     1      -2.831  11.863  18.917  0.00  0.00    +0.000 A 
ATOM     23  O   UNL     1      -3.270  12.803  19.805  0.00  0.00    +0.000 OA
ATOM     24  C   UNL     1      -4.687  12.564  19.805  0.00  0.00    +0.000 C 
ATOM     25  O   UNL     1      -5.092  11.525  18.894  0.00  0.00    +0.000 OA
ENDBRANCH  11  17
BRANCH  12  26
ATOM     26  C   UNL     1       0.214  11.303  21.283  0.00  0.00    +0.000 A 
ATOM     27  C   UNL     1       0.984  10.127  21.268  0.00  0.00    +0.000 A 
ATOM     28  C   UNL     1       0.726   9.078  22.153  0.00  0.00    +0.000 A 
ATOM     29  C   UNL     1      -0.253   9.220  23.131  0.00  0.00    +0.000 A 
ATOM     30  C   UNL     1      -0.967  10.413  23.220  0.00  0.00    +0.000 A 
ATOM     31  C   UNL     1      -0.746  11.441  22.294  0.00  0.00    +0.000 A 
ENDBRANCH  12  26
TORSDOF 2
ENDMDL
MODEL 2
REMARK VINA RESULT:      -6.8      4.365      6.716
REMARK  Name = 
REMARK  3 active torsions:
REMARK  status: ('A' for Active; 'I' for Inactive)
REMARK    1  A    between atoms: C_1  and  N_2
REMARK    2  A    between atoms: C_11  and  C_12
REMARK    3  A    between atoms: C_21  and  C_22
REMARK                            x       y       z     vdW  Elec       q    Type
REMARK                         _______ _______ _______ _____ _____    ______ ____
ROOT
ATOM      1  C   UNL     1       2.622   5.404  18.087  0.00  0.00    +0.000 C 
ATOM      2  N   UNL     1       2.553   6.662  18.828  0.00  0.00    +0.000 NA
ATOM      3  C   UNL     1       1.832   6.471  20.104  0.00  0.00    +0.000 C 
ATOM      4  C   UNL     1       1.705   7.782  20.906  0.00  0.00    +0.000 C 
ATOM      5  N   UNL     1       1.051   8.818  20.097  0.00  0.00    +0.000 N 
ATOM      6  C   UNL     1       0.231   9.799  20.634  0.00  0.00    +0.000 A 
ATOM      7  C   UNL     1       0.410  10.195  22.070  0.00  0.00    +0.000 A 
ATOM      8  C   UNL     1      -0.406  11.108  22.593  0.00  0.00    +0.000 A 
ATOM      9  C   UNL     1      -1.424  11.660  21.806  0.00  0.00    +0.000 A 
ATOM     10  N   UNL     1      -2.355  12.535  22.112  0.00  0.00    +0.000 NA
ATOM     11  C   UNL     1      -3.077  12.717  20.957  0.00  0.00    +0.000 A 
ATOM     12  C   UNL     1      -2.583  11.927  19.910  0.00  0.00    +0.000 A 
ATOM     13  N   UNL     1      -1.504  11.256  20.483  0.00  0.00    +0.000 N 
ATOM     14  N   UNL     1      -0.680  10.345  19.866  0.00  0.00    +0.000 NA
ATOM     15  C   UNL     1       1.708   9.033  18.794  0.00  0.00    +0.000 C 
ATOM     16  C   UNL     1       1.856   7.700  18.030  0.00  0.00    +0.000 C 
ENDROOT
BRANCH  11  17
ATOM     17  C   UNL     1      -4.206  13.644  20.924  0.00  0.00    +0.000 A 
ATOM     18  C   UNL     1      -4.034  15.018  20.673  0.00  0.00    +0.000 A 
ATOM     19  C   UNL     1      -5.102  15.927  20.790  0.00  0.00    +0.000 A 
ATOM     20  C   UNL     1      -6.386  15.470  21.070  0.00  0.00    +0.000 A 
ATOM     21  C   UNL     1      -6.558  14.111  21.232  0.00  0.00    +0.000 A 
ATOM     22  C   UNL     1      -5.505  13.220  21.172  0.00  0.00    +0.000 A 
ATOM     23  O   UNL     1      -5.925  11.945  21.419  0.00  0.00    +0.000 OA
ATOM     24  C   UNL     1      -7.340  12.132  21.590  0.00  0.00    +0.000 C 
ATOM     25  O   UNL     1      -7.750  13.509  21.490  0.00  0.00    +0.000 OA
ENDBRANCH  11  17
BRANCH  12  26
ATOM     26  C   UNL     1      -3.038  11.752  18.515  0.00  0.00    +0.000 A 
ATOM     27  C   UNL     1      -4.408  11.625  18.226  0.00  0.00    +0.000 A 
ATOM     28  C   UNL     1      -4.849  11.218  16.965  0.00  0.00    +0.000 A 
ATOM     29  C   UNL     1      -3.931  11.013  15.940  0.00  0.00    +0.000 A 
ATOM     30  C   UNL     1      -2.574  11.220  16.182  0.00  0.00    +0.000 A 
ATOM     31  C   UNL     1      -2.129  11.572  17.463  0.00  0.00    +0.000 A 
ENDBRANCH  12  26
TORSDOF 2
ENDMDL
MODEL 3
REMARK VINA RESULT:      -6.7      2.112      2.740
REMARK  Name = 
REMARK  3 active torsions:
REMARK  status: ('A' for Active; 'I' for Inactive)
REMARK    1  A    between atoms: C_1  and  N_2
REMARK    2  A    between atoms: C_11  and  C_12
REMARK    3  A    between atoms: C_21  and  C_22
REMARK                            x       y       z     vdW  Elec       q    Type
REMARK                         _______ _______ _______ _____ _____    ______ ____
ROOT
ATOM      1  C   UNL     1       6.780  14.526  24.067  0.00  0.00    +0.000 C 
ATOM      2  N   UNL     1       5.785  14.962  23.090  0.00  0.00    +0.000 NA
ATOM      3  C   UNL     1       4.780  15.836  23.731  0.00  0.00    +0.000 C 
ATOM      4  C   UNL     1       3.688  16.295  22.743  0.00  0.00    +0.000 C 
ATOM      5  N   UNL     1       3.038  15.135  22.122  0.00  0.00    +0.000 N 
ATOM      6  C   UNL     1       1.703  15.120  21.747  0.00  0.00    +0.000 A 
ATOM      7  C   UNL     1       1.016  16.419  21.440  0.00  0.00    +0.000 A 
ATOM      8  C   UNL     1      -0.277  16.404  21.121  0.00  0.00    +0.000 A 
ATOM      9  C   UNL     1      -0.973  15.189  21.101  0.00  0.00    +0.000 A 
ATOM     10  N   UNL     1      -2.238  14.938  20.854  0.00  0.00    +0.000 NA
ATOM     11  C   UNL     1      -2.368  13.575  20.968  0.00  0.00    +0.000 A 
ATOM     12  C   UNL     1      -1.150  12.967  21.301  0.00  0.00    +0.000 A 
ATOM     13  N   UNL     1      -0.257  14.035  21.374  0.00  0.00    +0.000 N 
ATOM     14  N   UNL     1       1.082  13.968  21.679  0.00  0.00    +0.000 NA
ATOM     15  C   UNL     1       3.993  14.207  21.490  0.00  0.00    +0.000 C 
ATOM     16  C   UNL     1       5.095  13.794  22.489  0.00  0.00    +0.000 C 
ENDROOT
BRANCH  11  17
ATOM     17  C   UNL     1      -3.660  12.930  20.748  0.00  0.00    +0.000 A 
ATOM     18  C   UNL     1      -4.008  12.360  19.510  0.00  0.00    +0.000 A 
ATOM     19  C   UNL     1      -5.305  11.875  19.260  0.00  0.00    +0.000 A 
ATOM     20  C   UNL     1      -6.258  11.866  20.273  0.00  0.00    +0.000 A 
ATOM     21  C   UNL     1      -5.881  12.351  21.508  0.00  0.00    +0.000 A 
ATOM     22  C   UNL     1      -4.627  12.876  21.745  0.00  0.00    +0.000 A 
ATOM     23  O   UNL     1      -4.521  13.338  23.025  0.00  0.00    +0.000 OA
ATOM     24  C   UNL     1      -5.810  13.003  23.563  0.00  0.00    +0.000 C 
ATOM     25  O   UNL     1      -6.690  12.390  22.602  0.00  0.00    +0.000 OA
ENDBRANCH  11  17
BRANCH  12  26
ATOM     26  C   UNL     1      -0.798  11.556  21.564  0.00  0.00    +0.000 A 
ATOM     27  C   UNL     1      -0.934  11.019  22.855  0.00  0.00    +0.000 A 
ATOM     28  C   UNL     1      -0.386   9.778  23.187  0.00  0.00    +0.000 A 
ATOM     29  C   UNL     1       0.234   9.008  22.209  0.00  0.00    +0.000 A 
ATOM     30  C   UNL     1       0.300   9.484  20.900  0.00  0.00    +0.000 A 
ATOM     31  C   UNL     1      -0.198  10.754  20.583  0.00  0.00    +0.000 A 
ENDBRANCH  12  26
TORSDOF 2
ENDMDL
MODEL 4
REMARK VINA RESULT:      -6.6      0.694      1.106
REMARK  Name = 
REMARK  3 active torsions:
REMARK  status: ('A' for Active; 'I' for Inactive)
REMARK    1  A    between atoms: C_1  and  N_2
REMARK    2  A    between atoms: C_11  and  C_12
REMARK    3  A    between atoms: C_21  and  C_22
REMARK                            x       y       z     vdW  Elec       q    Type
REMARK                         _______ _______ _______ _____ _____    ______ ____
ROOT
ATOM      1  C   UNL     1       6.643  14.841  24.918  0.00  0.00    +0.000 C 
ATOM      2  N   UNL     1       6.158  14.818  23.540  0.00  0.00    +0.000 NA
ATOM      3  C   UNL     1       5.148  15.876  23.330  0.00  0.00    +0.000 C 
ATOM      4  C   UNL     1       4.582  15.869  21.895  0.00  0.00    +0.000 C 
ATOM      5  N   UNL     1       4.022  14.551  21.571  0.00  0.00    +0.000 N 
ATOM      6  C   UNL     1       2.933  14.372  20.731  0.00  0.00    +0.000 A 
ATOM      7  C   UNL     1       2.628  15.416  19.697  0.00  0.00    +0.000 A 
ATOM      8  C   UNL     1       1.557  15.260  18.922  0.00  0.00    +0.000 A 
ATOM      9  C   UNL     1       0.727  14.146  19.099  0.00  0.00    +0.000 A 
ATOM     10  N   UNL     1      -0.383  13.807  18.486  0.00  0.00    +0.000 NA
ATOM     11  C   UNL     1      -0.768  12.619  19.059  0.00  0.00    +0.000 A 
ATOM     12  C   UNL     1       0.127  12.216  20.058  0.00  0.00    +0.000 A 
ATOM     13  N   UNL     1       1.095  13.219  20.061  0.00  0.00    +0.000 N 
ATOM     14  N   UNL     1       2.200  13.295  20.876  0.00  0.00    +0.000 NA
ATOM     15  C   UNL     1       4.976  13.448  21.789  0.00  0.00    +0.000 C 
ATOM     16  C   UNL     1       5.554  13.502  23.220  0.00  0.00    +0.000 C 
ENDROOT
BRANCH  11  17
ATOM     17  C   UNL     1      -1.978  11.934  18.610  0.00  0.00    +0.000 A 
ATOM     18  C   UNL     1      -1.952  10.969  17.587  0.00  0.00    +0.000 A 
ATOM     19  C   UNL     1      -3.137  10.424  17.058  0.00  0.00    +0.000 A 
ATOM     20  C   UNL     1      -4.370  10.764  17.605  0.00  0.00    +0.000 A 
ATOM     21  C   UNL     1      -4.378  11.648  18.663  0.00  0.00    +0.000 A 
ATOM     22  C   UNL     1      -3.224  12.227  19.151  0.00  0.00    +0.000 A 
ATOM     23  O   UNL     1      -3.502  13.104  20.159  0.00  0.00    +0.000 OA
ATOM     24  C   UNL     1      -4.928  12.973  20.275  0.00  0.00    +0.000 C 
ATOM     25  O   UNL     1      -5.498  12.062  19.316  0.00  0.00    +0.000 OA
ENDBRANCH  11  17
BRANCH  12  26
ATOM     26  C   UNL     1       0.123  11.049  20.966  0.00  0.00    +0.000 A 
ATOM     27  C   UNL     1      -0.604  11.088  22.168  0.00  0.00    +0.000 A 
ATOM     28  C   UNL     1      -0.434  10.111  23.152  0.00  0.00    +0.000 A 
ATOM     29  C   UNL     1       0.403   9.025  22.915  0.00  0.00    +0.000 A 
ATOM     30  C   UNL     1       1.064   8.922  21.692  0.00  0.00    +0.000 A 
ATOM     31  C   UNL     1       0.938   9.933  20.731  0.00  0.00    +0.000 A 
ENDBRANCH  12  26
TORSDOF 2
ENDMDL
MODEL 5
REMARK VINA RESULT:      -6.5      1.326      1.977
REMARK  Name = 
REMARK  3 active torsions:
REMARK  status: ('A' for Active; 'I' for Inactive)
REMARK    1  A    between atoms: C_1  and  N_2
REMARK    2  A    between atoms: C_11  and  C_12
REMARK    3  A    between atoms: C_21  and  C_22
REMARK                            x       y       z     vdW  Elec       q    Type
REMARK                         _______ _______ _______ _____ _____    ______ ____
ROOT
ATOM      1  C   UNL     1       6.821  14.806  25.214  0.00  0.00    +0.000 C 
ATOM      2  N   UNL     1       6.121  15.075  23.959  0.00  0.00    +0.000 NA
ATOM      3  C   UNL     1       5.072  16.096  24.163  0.00  0.00    +0.000 C 
ATOM      4  C   UNL     1       4.283  16.390  22.871  0.00  0.00    +0.000 C 
ATOM      5  N   UNL     1       3.701  15.154  22.333  0.00  0.00    +0.000 N 
ATOM      6  C   UNL     1       2.493  15.115  21.651  0.00  0.00    +0.000 A 
ATOM      7  C   UNL     1       2.008  16.351  20.952  0.00  0.00    +0.000 A 
ATOM      8  C   UNL     1       0.829  16.321  20.335  0.00  0.00    +0.000 A 
ATOM      9  C   UNL     1       0.058  15.153  20.367  0.00  0.00    +0.000 A 
ATOM     10  N   UNL     1      -1.131  14.905  19.869  0.00  0.00    +0.000 NA
ATOM     11  C   UNL     1      -1.398  13.597  20.196  0.00  0.00    +0.000 A 
ATOM     12  C   UNL     1      -0.347  13.023  20.923  0.00  0.00    +0.000 A 
ATOM     13  N   UNL     1       0.591  14.050  21.015  0.00  0.00    +0.000 N 
ATOM     14  N   UNL     1       1.811  13.995  21.646  0.00  0.00    +0.000 NA
ATOM     15  C   UNL     1       4.696  14.084  22.136  0.00  0.00    +0.000 C 
ATOM     16  C   UNL     1       5.496  13.838  23.433  0.00  0.00    +0.000 C 
ENDROOT
BRANCH  11  17
ATOM     17  C   UNL     1      -2.653  12.970  19.788  0.00  0.00    +0.000 A 
ATOM     18  C   UNL     1      -3.856  13.190  20.483  0.00  0.00    +0.000 A 
ATOM     19  C   UNL     1      -5.026  12.469  20.177  0.00  0.00    +0.000 A 
ATOM     20  C   UNL     1      -5.042  11.578  19.109  0.00  0.00    +0.000 A 
ATOM     21  C   UNL     1      -3.879  11.431  18.383  0.00  0.00    +0.000 A 
ATOM     22  C   UNL     1      -2.714  12.095  18.710  0.00  0.00    +0.000 A 
ATOM     23  O   UNL     1      -1.694  11.740  17.875  0.00  0.00    +0.000 OA
ATOM     24  C   UNL     1      -2.354  10.833  16.977  0.00  0.00    +0.000 C 
ATOM     25  O   UNL     1      -3.741  10.616  17.302  0.00  0.00    +0.000 OA
ENDBRANCH  11  17
BRANCH  12  26
ATOM     26  C   UNL     1      -0.185  11.680  21.518  0.00  0.00    +0.000 A 
ATOM     27  C   UNL     1       0.511  10.675  20.825  0.00  0.00    +0.000 A 
ATOM     28  C   UNL     1       0.471   9.343  21.243  0.00  0.00    +0.000 A 
ATOM     29  C   UNL     1      -0.196   9.003  22.416  0.00  0.00    +0.000 A 
ATOM     30  C   UNL     1      -0.817   9.999  23.166  0.00  0.00    +0.000 A 
ATOM     31  C   UNL     1      -0.826  11.325  22.713  0.00  0.00    +0.000 A 
ENDBRANCH  12  26
TORSDOF 2
ENDMDL
MODEL 6
REMARK VINA RESULT:      -6.5      4.230      7.117
REMARK  Name = 
REMARK  3 active torsions:
REMARK  status: ('A' for Active; 'I' for Inactive)
REMARK    1  A    between atoms: C_1  and  N_2
REMARK    2  A    between atoms: C_11  and  C_12
REMARK    3  A    between atoms: C_21  and  C_22
REMARK                            x       y       z     vdW  Elec       q    Type
REMARK                         _______ _______ _______ _____ _____    ______ ____
ROOT
ATOM      1  C   UNL     1       2.509   3.755  17.625  0.00  0.00    +0.000 C 
ATOM      2  N   UNL     1       2.770   4.935  18.446  0.00  0.00    +0.000 NA
ATOM      3  C   UNL     1       2.158   4.780  19.782  0.00  0.00    +0.000 C 
ATOM      4  C   UNL     1       2.381   6.018  20.675  0.00  0.00    +0.000 C 
ATOM      5  N   UNL     1       1.872   7.226  20.013  0.00  0.00    +0.000 N 
ATOM      6  C   UNL     1       1.327   8.299  20.702  0.00  0.00    +0.000 A 
ATOM      7  C   UNL     1       1.726   8.529  22.130  0.00  0.00    +0.000 A 
ATOM      8  C   UNL     1       1.168   9.536  22.800  0.00  0.00    +0.000 A 
ATOM      9  C   UNL     1       0.209  10.341  22.173  0.00  0.00    +0.000 A 
ATOM     10  N   UNL     1      -0.489  11.350  22.638  0.00  0.00    +0.000 NA
ATOM     11  C   UNL     1      -1.272  11.767  21.588  0.00  0.00    +0.000 A 
ATOM     12  C   UNL     1      -1.055  10.988  20.444  0.00  0.00    +0.000 A 
ATOM     13  N   UNL     1      -0.083  10.073  20.845  0.00  0.00    +0.000 N 
ATOM     14  N   UNL     1       0.473   9.075  20.080  0.00  0.00    +0.000 NA
ATOM     15  C   UNL     1       2.425   7.419  18.660  0.00  0.00    +0.000 C 
ATOM     16  C   UNL     1       2.222   6.152  17.802  0.00  0.00    +0.000 C 
ENDROOT
BRANCH  11  17
ATOM     17  C   UNL     1      -2.186  12.895  21.744  0.00  0.00    +0.000 A 
ATOM     18  C   UNL     1      -2.115  14.032  20.917  0.00  0.00    +0.000 A 
ATOM     19  C   UNL     1      -2.898  15.174  21.167  0.00  0.00    +0.000 A 
ATOM     20  C   UNL     1      -3.835  15.172  22.194  0.00  0.00    +0.000 A 
ATOM     21  C   UNL     1      -3.955  14.022  22.947  0.00  0.00    +0.000 A 
ATOM     22  C   UNL     1      -3.154  12.917  22.741  0.00  0.00    +0.000 A 
ATOM     23  O   UNL     1      -3.429  11.934  23.647  0.00  0.00    +0.000 OA
ATOM     24  C   UNL     1      -4.505  12.522  24.397  0.00  0.00    +0.000 C 
ATOM     25  O   UNL     1      -4.836  13.857  23.971  0.00  0.00    +0.000 OA
ENDBRANCH  11  17
BRANCH  12  26
ATOM     26  C   UNL     1      -1.675  11.023  19.102  0.00  0.00    +0.000 A 
ATOM     27  C   UNL     1      -2.534   9.991  18.690  0.00  0.00    +0.000 A 
ATOM     28  C   UNL     1      -2.936   9.869  17.357  0.00  0.00    +0.000 A 
ATOM     29  C   UNL     1      -2.556  10.830  16.426  0.00  0.00    +0.000 A 
ATOM     30  C   UNL     1      -1.777  11.911  16.835  0.00  0.00    +0.000 A 
ATOM     31  C   UNL     1      -1.327  11.999  18.159  0.00  0.00    +0.000 A 
ENDBRANCH  12  26
TORSDOF 2
ENDMDL
MODEL 7
REMARK VINA RESULT:      -6.4      6.331      8.342
REMARK  Name = 
REMARK  3 active torsions:
REMARK  status: ('A' for Active; 'I' for Inactive)
REMARK    1  A    between atoms: C_1  and  N_2
REMARK    2  A    between atoms: C_11  and  C_12
REMARK    3  A    between atoms: C_21  and  C_22
REMARK                            x       y       z     vdW  Elec       q    Type
REMARK                         _______ _______ _______ _____ _____    ______ ____
ROOT
ATOM      1  C   UNL     1      -2.720  11.516  23.482  0.00  0.00    +0.000 C 
ATOM      2  N   UNL     1      -1.442  11.491  22.772  0.00  0.00    +0.000 NA
ATOM      3  C   UNL     1      -1.659  11.607  21.315  0.00  0.00    +0.000 C 
ATOM      4  C   UNL     1      -0.338  11.552  20.521  0.00  0.00    +0.000 C 
ATOM      5  N   UNL     1       0.399  10.321  20.835  0.00  0.00    +0.000 N 
ATOM      6  C   UNL     1       1.198   9.657  19.916  0.00  0.00    +0.000 A 
ATOM      7  C   UNL     1       1.791  10.427  18.773  0.00  0.00    +0.000 A 
ATOM      8  C   UNL     1       2.523   9.777  17.870  0.00  0.00    +0.000 A 
ATOM      9  C   UNL     1       2.707   8.394  17.991  0.00  0.00    +0.000 A 
ATOM     10  N   UNL     1       3.349   7.551  17.215  0.00  0.00    +0.000 NA
ATOM     11  C   UNL     1       3.208   6.323  17.816  0.00  0.00    +0.000 A 
ATOM     12  C   UNL     1       2.451   6.409  18.993  0.00  0.00    +0.000 A 
ATOM     13  N   UNL     1       2.144   7.766  19.090  0.00  0.00    +0.000 N 
ATOM     14  N   UNL     1       1.404   8.373  20.077  0.00  0.00    +0.000 NA
ATOM     15  C   UNL     1       0.620  10.133  22.280  0.00  0.00    +0.000 C 
ATOM     16  C   UNL     1      -0.713  10.230  23.053  0.00  0.00    +0.000 C 
ENDROOT
BRANCH  11  17
ATOM     17  C   UNL     1       3.811   5.132  17.225  0.00  0.00    +0.000 A 
ATOM     18  C   UNL     1       3.160   3.884  17.234  0.00  0.00    +0.000 A 
ATOM     19  C   UNL     1       3.807   2.712  16.797  0.00  0.00    +0.000 A 
ATOM     20  C   UNL     1       5.087   2.778  16.256  0.00  0.00    +0.000 A 
ATOM     21  C   UNL     1       5.683   4.019  16.175  0.00  0.00    +0.000 A 
ATOM     22  C   UNL     1       5.076   5.163  16.650  0.00  0.00    +0.000 A 
ATOM     23  O   UNL     1       5.890   6.249  16.505  0.00  0.00    +0.000 OA
ATOM     24  C   UNL     1       7.033   5.671  15.854  0.00  0.00    +0.000 C 
ATOM     25  O   UNL     1       6.919   4.249  15.655  0.00  0.00    +0.000 OA
ENDBRANCH  11  17
BRANCH  12  26
ATOM     26  C   UNL     1       2.006   5.375  19.950  0.00  0.00    +0.000 A 
ATOM     27  C   UNL     1       2.745   5.124  21.119  0.00  0.00    +0.000 A 
ATOM     28  C   UNL     1       2.492   4.002  21.911  0.00  0.00    +0.000 A 
ATOM     29  C   UNL     1       1.435   3.153  21.597  0.00  0.00    +0.000 A 
ATOM     30  C   UNL     1       0.634   3.435  20.492  0.00  0.00    +0.000 A 
ATOM     31  C   UNL     1       0.926   4.528  19.666  0.00  0.00    +0.000 A 
ENDBRANCH  12  26
TORSDOF 2
ENDMDL
MODEL 8
REMARK VINA RESULT:      -6.4      2.798      4.225
REMARK  Name = 
REMARK  3 active torsions:
REMARK  status: ('A' for Active; 'I' for Inactive)
REMARK    1  A    between atoms: C_1  and  N_2
REMARK    2  A    between atoms: C_11  and  C_12
REMARK    3  A    between atoms: C_21  and  C_22
REMARK                            x       y       z     vdW  Elec       q    Type
REMARK                         _______ _______ _______ _____ _____    ______ ____
ROOT
ATOM      1  C   UNL     1       6.879  15.054  18.327  0.00  0.00    +0.000 C 
ATOM      2  N   UNL     1       5.586  15.732  18.397  0.00  0.00    +0.000 NA
ATOM      3  C   UNL     1       5.252  16.063  19.798  0.00  0.00    +0.000 C 
ATOM      4  C   UNL     1       3.877  16.752  19.925  0.00  0.00    +0.000 C 
ATOM      5  N   UNL     1       2.828  15.916  19.329  0.00  0.00    +0.000 N 
ATOM      6  C   UNL     1       1.525  15.875  19.804  0.00  0.00    +0.000 A 
ATOM      7  C   UNL     1       0.986  17.055  20.559  0.00  0.00    +0.000 A 
ATOM      8  C   UNL     1      -0.250  16.995  21.050  0.00  0.00    +0.000 A 
ATOM      9  C   UNL     1      -1.011  15.833  20.874  0.00  0.00    +0.000 A 
ATOM     10  N   UNL     1      -2.220  15.536  21.292  0.00  0.00    +0.000 NA
ATOM     11  C   UNL     1      -2.466  14.267  20.828  0.00  0.00    +0.000 A 
ATOM     12  C   UNL     1      -1.375  13.762  20.108  0.00  0.00    +0.000 A 
ATOM     13  N   UNL     1      -0.446  14.800  20.144  0.00  0.00    +0.000 N 
ATOM     14  N   UNL     1       0.809  14.801  19.581  0.00  0.00    +0.000 NA
ATOM     15  C   UNL     1       3.119  15.527  17.937  0.00  0.00    +0.000 C 
ATOM     16  C   UNL     1       4.515  14.875  17.834  0.00  0.00    +0.000 C 
ENDROOT
BRANCH  11  17
ATOM     17  C   UNL     1      -3.740  13.608  21.103  0.00  0.00    +0.000 A 
ATOM     18  C   UNL     1      -4.710  13.414  20.101  0.00  0.00    +0.000 A 
ATOM     19  C   UNL     1      -5.991  12.915  20.403  0.00  0.00    +0.000 A 
ATOM     20  C   UNL     1      -6.300  12.514  21.698  0.00  0.00    +0.000 A 
ATOM     21  C   UNL     1      -5.315  12.631  22.655  0.00  0.00    +0.000 A 
ATOM     22  C   UNL     1      -4.074  13.169  22.378  0.00  0.00    +0.000 A 
ATOM     23  O   UNL     1      -3.300  13.226  23.500  0.00  0.00    +0.000 OA
ATOM     24  C   UNL     1      -4.165  12.631  24.482  0.00  0.00    +0.000 C 
ATOM     25  O   UNL     1      -5.456  12.265  23.958  0.00  0.00    +0.000 OA
ENDBRANCH  11  17
BRANCH  12  26
ATOM     26  C   UNL     1      -1.151  12.454  19.457  0.00  0.00    +0.000 A 
ATOM     27  C   UNL     1      -1.702  12.186  18.192  0.00  0.00    +0.000 A 
ATOM     28  C   UNL     1      -1.716  10.893  17.664  0.00  0.00    +0.000 A 
ATOM     29  C   UNL     1      -1.100   9.855  18.354  0.00  0.00    +0.000 A 
ATOM     30  C   UNL     1      -0.468  10.117  19.568  0.00  0.00    +0.000 A 
ATOM     31  C   UNL     1      -0.507  11.403  20.123  0.00  0.00    +0.000 A 
ENDBRANCH  12  26
TORSDOF 2
ENDMDL
MODEL 9
REMARK VINA RESULT:      -6.3      2.586      3.509
REMARK  Name = 
REMARK  3 active torsions:
REMARK  status: ('A' for Active; 'I' for Inactive)
REMARK    1  A    between atoms: C_1  and  N_2
REMARK    2  A    between atoms: C_11  and  C_12
REMARK    3  A    between atoms: C_21  and  C_22
REMARK                            x       y       z     vdW  Elec       q    Type
REMARK                         _______ _______ _______ _____ _____    ______ ____
ROOT
ATOM      1  C   UNL     1       7.291  14.104  23.378  0.00  0.00    +0.000 C 
ATOM      2  N   UNL     1       6.175  14.760  22.700  0.00  0.00    +0.000 NA
ATOM      3  C   UNL     1       5.369  15.537  23.665  0.00  0.00    +0.000 C 
ATOM      4  C   UNL     1       4.159  16.222  22.999  0.00  0.00    +0.000 C 
ATOM      5  N   UNL     1       3.322  15.231  22.311  0.00  0.00    +0.000 N 
ATOM      6  C   UNL     1       1.945  15.344  22.196  0.00  0.00    +0.000 A 
ATOM      7  C   UNL     1       1.316  16.706  22.263  0.00  0.00    +0.000 A 
ATOM      8  C   UNL     1      -0.010  16.806  22.195  0.00  0.00    +0.000 A 
ATOM      9  C   UNL     1      -0.789  15.649  22.086  0.00  0.00    +0.000 A 
ATOM     10  N   UNL     1      -2.093  15.503  22.039  0.00  0.00    +0.000 NA
ATOM     11  C   UNL     1      -2.306  14.150  21.928  0.00  0.00    +0.000 A 
ATOM     12  C   UNL     1      -1.098  13.439  21.911  0.00  0.00    +0.000 A 
ATOM     13  N   UNL     1      -0.127  14.434  22.007  0.00  0.00    +0.000 N 
ATOM     14  N   UNL     1       1.236  14.253  22.039  0.00  0.00    +0.000 NA
ATOM     15  C   UNL     1       4.078  14.401  21.354  0.00  0.00    +0.000 C 
ATOM     16  C   UNL     1       5.304  13.759  22.038  0.00  0.00    +0.000 C 
ENDROOT
BRANCH  11  17
ATOM     17  C   UNL     1      -3.662  13.614  21.841  0.00  0.00    +0.000 A 
ATOM     18  C   UNL     1      -4.399  13.643  20.643  0.00  0.00    +0.000 A 
ATOM     19  C   UNL     1      -5.754  13.263  20.602  0.00  0.00    +0.000 A 
ATOM     20  C   UNL     1      -6.375  12.759  21.740  0.00  0.00    +0.000 A 
ATOM     21  C   UNL     1      -5.619  12.657  22.888  0.00  0.00    +0.000 A 
ATOM     22  C   UNL     1      -4.306  13.077  22.949  0.00  0.00    +0.000 A 
ATOM     23  O   UNL     1      -3.797  12.922  24.206  0.00  0.00    +0.000 OA
ATOM     24  C   UNL     1      -4.905  12.324  24.897  0.00  0.00    +0.000 C 
ATOM     25  O   UNL     1      -6.076  12.167  24.073  0.00  0.00    +0.000 OA
ENDBRANCH  11  17
BRANCH  12  26
ATOM     26  C   UNL     1      -0.814  11.990  21.844  0.00  0.00    +0.000 A 
ATOM     27  C   UNL     1      -0.951  11.186  22.988  0.00  0.00    +0.000 A 
ATOM     28  C   UNL     1      -0.462   9.878  23.020  0.00  0.00    +0.000 A 
ATOM     29  C   UNL     1       0.097   9.317  21.876  0.00  0.00    +0.000 A 
ATOM     30  C   UNL     1       0.161  10.069  20.704  0.00  0.00    +0.000 A 
ATOM     31  C   UNL     1      -0.277  11.400  20.692  0.00  0.00    +0.000 A 
ENDBRANCH  12  26
TORSDOF 2
ENDMDL
