MODEL 1
REMARK VINA RESULT:      -6.6      0.000      0.000
REMARK  Name = 
REMARK  14 active torsions:
REMARK  status: ('A' for Active; 'I' for Inactive)
REMARK    1  A    between atoms: C_1  and  O_2
REMARK    2  A    between atoms: O_2  and  C_3
REMARK    3  A    between atoms: C_6  and  N_7
REMARK    4  A    between atoms: N_7  and  C_8
REMARK    5  A    between atoms: C_9  and  C_10
REMARK    6  A    between atoms: C_13  and  O_14
REMARK    7  A    between atoms: O_14  and  C_15
REMARK    8  A    between atoms: C_16  and  O_17
REMARK    9  A    between atoms: O_17  and  C_18
REMARK   10  A    between atoms: C_20  and  C_21
REMARK   11  A    between atoms: N_23  and  C_24
REMARK   12  A    between atoms: C_29  and  C_30
REMARK   13  A    between atoms: C_31  and  C_32
REMARK   14  A    between atoms: C_32  and  O_34
REMARK                            x       y       z     vdW  Elec       q    Type
REMARK                         _______ _______ _______ _____ _____    ______ ____
ROOT
ATOM      1  C   UNL     1      -0.809  15.403  20.183  0.00  0.00    +0.000 A 
ATOM      2  C   UNL     1      -1.191  15.460  21.529  0.00  0.00    +0.000 A 
ATOM      3  C   UNL     1      -0.487  16.573  22.063  0.00  0.00    +0.000 A 
ATOM      4  C   UNL     1      -0.406  17.078  23.460  0.00  0.00    +0.000 C 
ATOM      5  N   UNL     1       0.247  17.187  21.139  0.00  0.00    +0.000 NA
ATOM      6  N   UNL     1       0.036  16.516  19.988  0.00  0.00    +0.000 N 
ENDROOT
BRANCH   6   7
ATOM      7  C   UNL     1       0.619  17.007  18.775  0.00  0.00    +0.000 A 
ATOM      8  C   UNL     1       1.930  16.619  18.440  0.00  0.00    +0.000 A 
ATOM      9  C   UNL     1       2.521  17.054  17.252  0.00  0.00    +0.000 A 
ATOM     10  C   UNL     1       1.808  17.862  16.375  0.00  0.00    +0.000 A 
ATOM     11  C   UNL     1       0.501  18.237  16.682  0.00  0.00    +0.000 A 
ATOM     12  C   UNL     1      -0.111  17.830  17.882  0.00  0.00    +0.000 A 
ATOM     13  C   UNL     1      -1.514  18.318  18.138  0.00  0.00    +0.000 C 
ENDBRANCH   6   7
BRANCH   2  14
ATOM     14  C   UNL     1      -2.013  14.486  22.249  0.00  0.00    +0.000 A 
ATOM     15  C   UNL     1      -3.274  14.840  22.733  0.00  0.00    +0.000 A 
ATOM     16  C   UNL     1      -4.032  13.916  23.457  0.00  0.00    +0.000 A 
ATOM     17  C   UNL     1      -3.571  12.610  23.678  0.00  0.00    +0.000 A 
ATOM     18  C   UNL     1      -2.315  12.233  23.179  0.00  0.00    +0.000 A 
ATOM     19  C   UNL     1      -1.544  13.189  22.500  0.00  0.00    +0.000 A 
BRANCH  17  20
ATOM     20  O   UNL     1      -4.469  11.859  24.391  0.00  0.00    +0.000 OA
ATOM     21  C   UNL     1      -5.833  12.253  24.400  0.00  0.00    +0.000 C 
ENDBRANCH  17  20
BRANCH  18  22
ATOM     22  O   UNL     1      -1.879  10.953  23.397  0.00  0.00    +0.000 OA
ATOM     23  C   UNL     1      -0.622  10.555  22.870  0.00  0.00    +0.000 C 
ENDBRANCH  18  22
ENDBRANCH   2  14
BRANCH   1  24
ATOM     24  N   UNL     1      -1.020  14.463  19.197  0.00  0.00    +0.000 N 
ATOM     25  H   UNL     1      -1.867  14.545  18.622  0.00  0.00    +0.000 HD
BRANCH  24  29
ATOM     26  C   UNL     1       0.478  10.482  18.969  0.00  0.00    +0.000 A 
ATOM     27  C   UNL     1       1.338  11.555  19.189  0.00  0.00    +0.000 A 
ATOM     28  C   UNL     1       0.841  12.855  19.317  0.00  0.00    +0.000 A 
ATOM     29  C   UNL     1      -0.531  13.128  19.191  0.00  0.00    +0.000 A 
ATOM     30  C   UNL     1      -1.396  12.031  18.969  0.00  0.00    +0.000 A 
ATOM     31  C   UNL     1      -0.888  10.719  18.882  0.00  0.00    +0.000 A 
BRANCH  26  33
ATOM     32  C   UNL     1       2.096   9.161  17.840  0.00  0.00    +0.000 C 
ATOM     33  O   UNL     1       1.089   9.267  18.841  0.00  0.00    +0.000 OA
ENDBRANCH  26  33
BRANCH  30  34
ATOM     34  C   UNL     1      -2.856  12.154  18.723  0.00  0.00    +0.000 C 
ATOM     35  O   UNL     1      -3.407  11.705  17.734  0.00  0.00    +0.000 OA
BRANCH  34  36
ATOM     36  O   UNL     1      -3.502  12.906  19.644  0.00  0.00    +0.000 OA
ATOM     37  H   UNL     1      -4.270  13.396  19.287  0.00  0.00    +0.000 HD
ENDBRANCH  34  36
ENDBRANCH  30  34
ENDBRANCH  24  29
ENDBRANCH   1  24
TORSDOF 9
ENDMDL
MODEL 2
REMARK VINA RESULT:      -6.4      2.744      6.424
REMARK  Name = 
REMARK  14 active torsions:
REMARK  status: ('A' for Active; 'I' for Inactive)
REMARK    1  A    between atoms: C_1  and  O_2
REMARK    2  A    between atoms: O_2  and  C_3
REMARK    3  A    between atoms: C_6  and  N_7
REMARK    4  A    between atoms: N_7  and  C_8
REMARK    5  A    between atoms: C_9  and  C_10
REMARK    6  A    between atoms: C_13  and  O_14
REMARK    7  A    between atoms: O_14  and  C_15
REMARK    8  A    between atoms: C_16  and  O_17
REMARK    9  A    between atoms: O_17  and  C_18
REMARK   10  A    between atoms: C_20  and  C_21
REMARK   11  A    between atoms: N_23  and  C_24
REMARK   12  A    between atoms: C_29  and  C_30
REMARK   13  A    between atoms: C_31  and  C_32
REMARK   14  A    between atoms: C_32  and  O_34
REMARK                            x       y       z     vdW  Elec       q    Type
REMARK                         _______ _______ _______ _____ _____    ______ ____
ROOT
ATOM      1  C   UNL     1      -2.516  13.487  20.829  0.00  0.00    +0.000 A 
ATOM      2  C   UNL     1      -1.530  14.469  20.675  0.00  0.00    +0.000 A 
ATOM      3  C   UNL     1      -2.187  15.696  20.963  0.00  0.00    +0.000 A 
ATOM      4  C   UNL     1      -1.689  17.095  20.873  0.00  0.00    +0.000 C 
ATOM      5  N   UNL     1      -3.460  15.512  21.300  0.00  0.00    +0.000 NA
ATOM      6  N   UNL     1      -3.668  14.179  21.260  0.00  0.00    +0.000 N 
ENDROOT
BRANCH   6   7
ATOM      7  C   UNL     1      -4.934  13.656  21.678  0.00  0.00    +0.000 A 
ATOM      8  C   UNL     1      -5.943  13.458  20.717  0.00  0.00    +0.000 A 
ATOM      9  C   UNL     1      -7.180  12.923  21.081  0.00  0.00    +0.000 A 
ATOM     10  C   UNL     1      -7.420  12.559  22.401  0.00  0.00    +0.000 A 
ATOM     11  C   UNL     1      -6.424  12.729  23.360  0.00  0.00    +0.000 A 
ATOM     12  C   UNL     1      -5.175  13.285  23.024  0.00  0.00    +0.000 A 
ATOM     13  C   UNL     1      -4.178  13.460  24.141  0.00  0.00    +0.000 C 
ENDBRANCH   6   7
BRANCH   2  14
ATOM     14  C   UNL     1      -0.168  14.273  20.176  0.00  0.00    +0.000 A 
ATOM     15  C   UNL     1       0.099  14.312  18.806  0.00  0.00    +0.000 A 
ATOM     16  C   UNL     1       1.395  14.079  18.337  0.00  0.00    +0.000 A 
ATOM     17  C   UNL     1       2.458  13.845  19.222  0.00  0.00    +0.000 A 
ATOM     18  C   UNL     1       2.209  13.823  20.602  0.00  0.00    +0.000 A 
ATOM     19  C   UNL     1       0.892  14.006  21.053  0.00  0.00    +0.000 A 
BRANCH  17  20
ATOM     20  O   UNL     1       3.646  13.658  18.564  0.00  0.00    +0.000 OA
ATOM     21  C   UNL     1       4.398  14.798  18.178  0.00  0.00    +0.000 C 
ENDBRANCH  17  20
BRANCH  18  22
ATOM     22  O   UNL     1       3.255  13.598  21.455  0.00  0.00    +0.000 OA
ATOM     23  C   UNL     1       3.965  14.709  21.983  0.00  0.00    +0.000 C 
ENDBRANCH  18  22
ENDBRANCH   2  14
BRANCH   1  24
ATOM     24  N   UNL     1      -2.540  12.140  20.533  0.00  0.00    +0.000 N 
ATOM     25  H   UNL     1      -2.192  11.482  21.240  0.00  0.00    +0.000 HD
BRANCH  24  29
ATOM     26  C   UNL     1      -2.462  10.240  16.722  0.00  0.00    +0.000 A 
ATOM     27  C   UNL     1      -3.571  10.978  17.127  0.00  0.00    +0.000 A 
ATOM     28  C   UNL     1      -3.576  11.646  18.355  0.00  0.00    +0.000 A 
ATOM     29  C   UNL     1      -2.484  11.565  19.234  0.00  0.00    +0.000 A 
ATOM     30  C   UNL     1      -1.363  10.813  18.813  0.00  0.00    +0.000 A 
ATOM     31  C   UNL     1      -1.352  10.178  17.555  0.00  0.00    +0.000 A 
BRANCH  26  33
ATOM     32  C   UNL     1      -3.510  10.196  14.591  0.00  0.00    +0.000 C 
ATOM     33  O   UNL     1      -2.590   9.618  15.512  0.00  0.00    +0.000 OA
ENDBRANCH  26  33
BRANCH  30  34
ATOM     34  C   UNL     1      -0.167  10.552  19.656  0.00  0.00    +0.000 C 
ATOM     35  O   UNL     1       0.974  10.669  19.250  0.00  0.00    +0.000 OA
BRANCH  34  36
ATOM     36  O   UNL     1      -0.462  10.067  20.884  0.00  0.00    +0.000 OA
ATOM     37  H   UNL     1      -1.156  10.574  21.353  0.00  0.00    +0.000 HD
ENDBRANCH  34  36
ENDBRANCH  30  34
ENDBRANCH  24  29
ENDBRANCH   1  24
TORSDOF 9
ENDMDL
MODEL 3
REMARK VINA RESULT:      -6.3      3.237      6.412
REMARK  Name = 
REMARK  14 active torsions:
REMARK  status: ('A' for Active; 'I' for Inactive)
REMARK    1  A    between atoms: C_1  and  O_2
REMARK    2  A    between atoms: O_2  and  C_3
REMARK    3  A    between atoms: C_6  and  N_7
REMARK    4  A    between atoms: N_7  and  C_8
REMARK    5  A    between atoms: C_9  and  C_10
REMARK    6  A    between atoms: C_13  and  O_14
REMARK    7  A    between atoms: O_14  and  C_15
REMARK    8  A    between atoms: C_16  and  O_17
REMARK    9  A    between atoms: O_17  and  C_18
REMARK   10  A    between atoms: C_20  and  C_21
REMARK   11  A    between atoms: N_23  and  C_24
REMARK   12  A    between atoms: C_29  and  C_30
REMARK   13  A    between atoms: C_31  and  C_32
REMARK   14  A    between atoms: C_32  and  O_34
REMARK                            x       y       z     vdW  Elec       q    Type
REMARK                         _______ _______ _______ _____ _____    ______ ____
ROOT
ATOM      1  C   UNL     1      -2.859  13.639  22.770  0.00  0.00    +0.000 A 
ATOM      2  C   UNL     1      -1.560  13.245  22.427  0.00  0.00    +0.000 A 
ATOM      3  C   UNL     1      -0.823  14.456  22.332  0.00  0.00    +0.000 A 
ATOM      4  C   UNL     1       0.583  14.693  21.906  0.00  0.00    +0.000 C 
ATOM      5  N   UNL     1      -1.570  15.518  22.620  0.00  0.00    +0.000 NA
ATOM      6  N   UNL     1      -2.795  15.041  22.924  0.00  0.00    +0.000 N 
ENDROOT
BRANCH   6   7
ATOM      7  C   UNL     1      -3.805  15.948  23.380  0.00  0.00    +0.000 A 
ATOM      8  C   UNL     1      -3.868  16.270  24.748  0.00  0.00    +0.000 A 
ATOM      9  C   UNL     1      -4.820  17.173  25.226  0.00  0.00    +0.000 A 
ATOM     10  C   UNL     1      -5.706  17.781  24.345  0.00  0.00    +0.000 A 
ATOM     11  C   UNL     1      -5.643  17.489  22.984  0.00  0.00    +0.000 A 
ATOM     12  C   UNL     1      -4.706  16.567  22.479  0.00  0.00    +0.000 A 
ATOM     13  C   UNL     1      -4.742  16.293  20.997  0.00  0.00    +0.000 C 
ENDBRANCH   6   7
BRANCH   2  14
ATOM     14  C   UNL     1      -1.115  11.891  22.090  0.00  0.00    +0.000 A 
ATOM     15  C   UNL     1      -0.949  10.929  23.088  0.00  0.00    +0.000 A 
ATOM     16  C   UNL     1      -0.481   9.654  22.761  0.00  0.00    +0.000 A 
ATOM     17  C   UNL     1      -0.211   9.295  21.432  0.00  0.00    +0.000 A 
ATOM     18  C   UNL     1      -0.394  10.245  20.416  0.00  0.00    +0.000 A 
ATOM     19  C   UNL     1      -0.813  11.538  20.768  0.00  0.00    +0.000 A 
BRANCH  17  20
ATOM     20  O   UNL     1       0.219   7.999  21.324  0.00  0.00    +0.000 OA
ATOM     21  C   UNL     1       1.574   7.756  20.979  0.00  0.00    +0.000 C 
ENDBRANCH  17  20
BRANCH  18  22
ATOM     22  O   UNL     1      -0.131   9.882  19.122  0.00  0.00    +0.000 OA
ATOM     23  C   UNL     1      -1.017  10.302  18.096  0.00  0.00    +0.000 C 
ENDBRANCH  18  22
ENDBRANCH   2  14
BRANCH   1  24
ATOM     24  N   UNL     1      -4.050  12.949  22.844  0.00  0.00    +0.000 N 
ATOM     25  H   UNL     1      -4.122  12.176  23.516  0.00  0.00    +0.000 HD
BRANCH  24  29
ATOM     26  C   UNL     1      -6.889  12.716  19.677  0.00  0.00    +0.000 A 
ATOM     27  C   UNL     1      -5.524  12.640  19.416  0.00  0.00    +0.000 A 
ATOM     28  C   UNL     1      -4.594  12.662  20.460  0.00  0.00    +0.000 A 
ATOM     29  C   UNL     1      -5.001  12.801  21.797  0.00  0.00    +0.000 A 
ATOM     30  C   UNL     1      -6.389  12.877  22.051  0.00  0.00    +0.000 A 
ATOM     31  C   UNL     1      -7.320  12.812  20.994  0.00  0.00    +0.000 A 
BRANCH  26  33
ATOM     32  C   UNL     1      -7.037  12.665  17.308  0.00  0.00    +0.000 C 
ATOM     33  O   UNL     1      -7.692  12.705  18.572  0.00  0.00    +0.000 OA
ENDBRANCH  26  33
BRANCH  30  34
ATOM     34  C   UNL     1      -6.982  13.115  23.393  0.00  0.00    +0.000 C 
ATOM     35  O   UNL     1      -6.697  14.073  24.088  0.00  0.00    +0.000 OA
BRANCH  34  36
ATOM     36  O   UNL     1      -7.786  12.113  23.819  0.00  0.00    +0.000 OA
ATOM     37  H   UNL     1      -8.385  12.371  24.549  0.00  0.00    +0.000 HD
ENDBRANCH  34  36
ENDBRANCH  30  34
ENDBRANCH  24  29
ENDBRANCH   1  24
TORSDOF 9
ENDMDL
MODEL 4
REMARK VINA RESULT:      -6.2      1.642      2.382
REMARK  Name = 
REMARK  14 active torsions:
REMARK  status: ('A' for Active; 'I' for Inactive)
REMARK    1  A    between atoms: C_1  and  O_2
REMARK    2  A    between atoms: O_2  and  C_3
REMARK    3  A    between atoms: C_6  and  N_7
REMARK    4  A    between atoms: N_7  and  C_8
REMARK    5  A    between atoms: C_9  and  C_10
REMARK    6  A    between atoms: C_13  and  O_14
REMARK    7  A    between atoms: O_14  and  C_15
REMARK    8  A    between atoms: C_16  and  O_17
REMARK    9  A    between atoms: O_17  and  C_18
REMARK   10  A    between atoms: C_20  and  C_21
REMARK   11  A    between atoms: N_23  and  C_24
REMARK   12  A    between atoms: C_29  and  C_30
REMARK   13  A    between atoms: C_31  and  C_32
REMARK   14  A    between atoms: C_32  and  O_34
REMARK                            x       y       z     vdW  Elec       q    Type
REMARK                         _______ _______ _______ _____ _____    ______ ____
ROOT
ATOM      1  C   UNL     1      -1.206  15.294  19.883  0.00  0.00    +0.000 A 
ATOM      2  C   UNL     1      -2.082  15.567  20.941  0.00  0.00    +0.000 A 
ATOM      3  C   UNL     1      -1.569  16.747  21.546  0.00  0.00    +0.000 A 
ATOM      4  C   UNL     1      -2.010  17.467  22.771  0.00  0.00    +0.000 C 
ATOM      5  N   UNL     1      -0.490  17.201  20.915  0.00  0.00    +0.000 NA
ATOM      6  N   UNL     1      -0.277  16.356  19.884  0.00  0.00    +0.000 N 
ENDROOT
BRANCH   6   7
ATOM      7  C   UNL     1       0.769  16.645  18.949  0.00  0.00    +0.000 A 
ATOM      8  C   UNL     1       2.021  16.022  19.110  0.00  0.00    +0.000 A 
ATOM      9  C   UNL     1       3.055  16.256  18.202  0.00  0.00    +0.000 A 
ATOM     10  C   UNL     1       2.850  17.094  17.113  0.00  0.00    +0.000 A 
ATOM     11  C   UNL     1       1.609  17.700  16.927  0.00  0.00    +0.000 A 
ATOM     12  C   UNL     1       0.555  17.499  17.839  0.00  0.00    +0.000 A 
ATOM     13  C   UNL     1      -0.736  18.228  17.569  0.00  0.00    +0.000 C 
ENDBRANCH   6   7
BRANCH   2  14
ATOM     14  C   UNL     1      -3.187  14.726  21.403  0.00  0.00    +0.000 A 
ATOM     15  C   UNL     1      -2.946  13.626  22.230  0.00  0.00    +0.000 A 
ATOM     16  C   UNL     1      -4.002  12.804  22.628  0.00  0.00    +0.000 A 
ATOM     17  C   UNL     1      -5.324  13.082  22.250  0.00  0.00    +0.000 A 
ATOM     18  C   UNL     1      -5.585  14.195  21.437  0.00  0.00    +0.000 A 
ATOM     19  C   UNL     1      -4.506  14.980  21.002  0.00  0.00    +0.000 A 
BRANCH  17  20
ATOM     20  O   UNL     1      -6.210  12.167  22.759  0.00  0.00    +0.000 OA
ATOM     21  C   UNL     1      -6.945  12.506  23.925  0.00  0.00    +0.000 C 
ENDBRANCH  17  20
BRANCH  18  22
ATOM     22  O   UNL     1      -6.880  14.458  21.079  0.00  0.00    +0.000 OA
ATOM     23  C   UNL     1      -7.361  13.976  19.833  0.00  0.00    +0.000 C 
ENDBRANCH  18  22
ENDBRANCH   2  14
BRANCH   1  24
ATOM     24  N   UNL     1      -1.078  14.211  19.040  0.00  0.00    +0.000 N 
ATOM     25  H   UNL     1      -1.675  14.171  18.206  0.00  0.00    +0.000 HD
BRANCH  24  29
ATOM     26  C   UNL     1       0.378  10.314  19.957  0.00  0.00    +0.000 A 
ATOM     27  C   UNL     1       1.069  11.449  20.374  0.00  0.00    +0.000 A 
ATOM     28  C   UNL     1       0.564  12.727  20.120  0.00  0.00    +0.000 A 
ATOM     29  C   UNL     1      -0.631  12.911  19.406  0.00  0.00    +0.000 A 
ATOM     30  C   UNL     1      -1.325  11.753  18.987  0.00  0.00    +0.000 A 
ATOM     31  C   UNL     1      -0.827  10.468  19.285  0.00  0.00    +0.000 A 
BRANCH  26  33
ATOM     32  C   UNL     1       1.026   8.748  21.620  0.00  0.00    +0.000 C 
ATOM     33  O   UNL     1       0.987   9.126  20.248  0.00  0.00    +0.000 OA
ENDBRANCH  26  33
BRANCH  30  34
ATOM     34  C   UNL     1      -2.551  11.770  18.147  0.00  0.00    +0.000 C 
ATOM     35  O   UNL     1      -2.579  11.365  17.000  0.00  0.00    +0.000 OA
BRANCH  34  36
ATOM     36  O   UNL     1      -3.606  12.378  18.737  0.00  0.00    +0.000 OA
ATOM     37  H   UNL     1      -4.472  11.991  18.493  0.00  0.00    +0.000 HD
ENDBRANCH  34  36
ENDBRANCH  30  34
ENDBRANCH  24  29
ENDBRANCH   1  24
TORSDOF 9
ENDMDL
MODEL 5
REMARK VINA RESULT:      -6.2      2.648      6.065
REMARK  Name = 
REMARK  14 active torsions:
REMARK  status: ('A' for Active; 'I' for Inactive)
REMARK    1  A    between atoms: C_1  and  O_2
REMARK    2  A    between atoms: O_2  and  C_3
REMARK    3  A    between atoms: C_6  and  N_7
REMARK    4  A    between atoms: N_7  and  C_8
REMARK    5  A    between atoms: C_9  and  C_10
REMARK    6  A    between atoms: C_13  and  O_14
REMARK    7  A    between atoms: O_14  and  C_15
REMARK    8  A    between atoms: C_16  and  O_17
REMARK    9  A    between atoms: O_17  and  C_18
REMARK   10  A    between atoms: C_20  and  C_21
REMARK   11  A    between atoms: N_23  and  C_24
REMARK   12  A    between atoms: C_29  and  C_30
REMARK   13  A    between atoms: C_31  and  C_32
REMARK   14  A    between atoms: C_32  and  O_34
REMARK                            x       y       z     vdW  Elec       q    Type
REMARK                         _______ _______ _______ _____ _____    ______ ____
ROOT
ATOM      1  C   UNL     1      -2.487  13.754  21.319  0.00  0.00    +0.000 A 
ATOM      2  C   UNL     1      -1.392  14.626  21.333  0.00  0.00    +0.000 A 
ATOM      3  C   UNL     1      -1.857  15.788  22.007  0.00  0.00    +0.000 A 
ATOM      4  C   UNL     1      -1.184  17.093  22.245  0.00  0.00    +0.000 C 
ATOM      5  N   UNL     1      -3.116  15.657  22.414  0.00  0.00    +0.000 NA
ATOM      6  N   UNL     1      -3.503  14.419  22.039  0.00  0.00    +0.000 N 
ENDROOT
BRANCH   6   7
ATOM      7  C   UNL     1      -4.795  13.941  22.431  0.00  0.00    +0.000 A 
ATOM      8  C   UNL     1      -5.895  14.173  21.585  0.00  0.00    +0.000 A 
ATOM      9  C   UNL     1      -7.165  13.698  21.919  0.00  0.00    +0.000 A 
ATOM     10  C   UNL     1      -7.350  12.968  23.087  0.00  0.00    +0.000 A 
ATOM     11  C   UNL     1      -6.266  12.711  23.924  0.00  0.00    +0.000 A 
ATOM     12  C   UNL     1      -4.980  13.196  23.622  0.00  0.00    +0.000 A 
ATOM     13  C   UNL     1      -3.881  12.894  24.609  0.00  0.00    +0.000 C 
ENDBRANCH   6   7
BRANCH   2  14
ATOM     14  C   UNL     1      -0.107  14.430  20.659  0.00  0.00    +0.000 A 
ATOM     15  C   UNL     1       0.001  14.586  19.276  0.00  0.00    +0.000 A 
ATOM     16  C   UNL     1       1.222  14.353  18.637  0.00  0.00    +0.000 A 
ATOM     17  C   UNL     1       2.369  14.002  19.365  0.00  0.00    +0.000 A 
ATOM     18  C   UNL     1       2.281  13.862  20.758  0.00  0.00    +0.000 A 
ATOM     19  C   UNL     1       1.034  14.048  21.377  0.00  0.00    +0.000 A 
BRANCH  17  20
ATOM     20  O   UNL     1       3.463  13.837  18.556  0.00  0.00    +0.000 OA
ATOM     21  C   UNL     1       4.146  14.990  18.089  0.00  0.00    +0.000 C 
ENDBRANCH  17  20
BRANCH  18  22
ATOM     22  O   UNL     1       3.408  13.524  21.457  0.00  0.00    +0.000 OA
ATOM     23  C   UNL     1       4.218  14.557  21.998  0.00  0.00    +0.000 C 
ENDBRANCH  18  22
ENDBRANCH   2  14
BRANCH   1  24
ATOM     24  N   UNL     1      -2.712  12.555  20.676  0.00  0.00    +0.000 N 
ATOM     25  H   UNL     1      -3.633  12.114  20.779  0.00  0.00    +0.000 HD
BRANCH  24  29
ATOM     26  C   UNL     1       0.383   9.828  19.614  0.00  0.00    +0.000 A 
ATOM     27  C   UNL     1       0.184  10.197  20.942  0.00  0.00    +0.000 A 
ATOM     28  C   UNL     1      -0.865  11.049  21.297  0.00  0.00    +0.000 A 
ATOM     29  C   UNL     1      -1.726  11.591  20.329  0.00  0.00    +0.000 A 
ATOM     30  C   UNL     1      -1.515  11.211  18.983  0.00  0.00    +0.000 A 
ATOM     31  C   UNL     1      -0.479  10.317  18.641  0.00  0.00    +0.000 A 
BRANCH  26  33
ATOM     32  C   UNL     1       2.022   9.036  18.089  0.00  0.00    +0.000 C 
ATOM     33  O   UNL     1       1.454   9.008  19.395  0.00  0.00    +0.000 OA
ENDBRANCH  26  33
BRANCH  30  34
ATOM     34  C   UNL     1      -2.274  11.760  17.830  0.00  0.00    +0.000 C 
ATOM     35  O   UNL     1      -3.469  11.590  17.676  0.00  0.00    +0.000 OA
BRANCH  34  36
ATOM     36  O   UNL     1      -1.495  12.376  16.910  0.00  0.00    +0.000 OA
ATOM     37  H   UNL     1      -1.906  13.170  16.513  0.00  0.00    +0.000 HD
ENDBRANCH  34  36
ENDBRANCH  30  34
ENDBRANCH  24  29
ENDBRANCH   1  24
TORSDOF 9
ENDMDL
MODEL 6
REMARK VINA RESULT:      -6.2      3.134      5.400
REMARK  Name = 
REMARK  14 active torsions:
REMARK  status: ('A' for Active; 'I' for Inactive)
REMARK    1  A    between atoms: C_1  and  O_2
REMARK    2  A    between atoms: O_2  and  C_3
REMARK    3  A    between atoms: C_6  and  N_7
REMARK    4  A    between atoms: N_7  and  C_8
REMARK    5  A    between atoms: C_9  and  C_10
REMARK    6  A    between atoms: C_13  and  O_14
REMARK    7  A    between atoms: O_14  and  C_15
REMARK    8  A    between atoms: C_16  and  O_17
REMARK    9  A    between atoms: O_17  and  C_18
REMARK   10  A    between atoms: C_20  and  C_21
REMARK   11  A    between atoms: N_23  and  C_24
REMARK   12  A    between atoms: C_29  and  C_30
REMARK   13  A    between atoms: C_31  and  C_32
REMARK   14  A    between atoms: C_32  and  O_34
REMARK                            x       y       z     vdW  Elec       q    Type
REMARK                         _______ _______ _______ _____ _____    ______ ____
ROOT
ATOM      1  C   UNL     1      -0.765  12.045  20.433  0.00  0.00    +0.000 A 
ATOM      2  C   UNL     1      -0.672  13.351  20.929  0.00  0.00    +0.000 A 
ATOM      3  C   UNL     1       0.713  13.551  21.177  0.00  0.00    +0.000 A 
ATOM      4  C   UNL     1       1.420  14.704  21.798  0.00  0.00    +0.000 C 
ATOM      5  N   UNL     1       1.438  12.489  20.840  0.00  0.00    +0.000 NA
ATOM      6  N   UNL     1       0.566  11.581  20.353  0.00  0.00    +0.000 N 
ENDROOT
BRANCH   6   7
ATOM      7  C   UNL     1       1.065  10.354  19.808  0.00  0.00    +0.000 A 
ATOM      8  C   UNL     1       1.529  10.335  18.480  0.00  0.00    +0.000 A 
ATOM      9  C   UNL     1       2.050   9.165  17.923  0.00  0.00    +0.000 A 
ATOM     10  C   UNL     1       2.135   8.008  18.687  0.00  0.00    +0.000 A 
ATOM     11  C   UNL     1       1.699   8.016  20.011  0.00  0.00    +0.000 A 
ATOM     12  C   UNL     1       1.151   9.176  20.591  0.00  0.00    +0.000 A 
ATOM     13  C   UNL     1       0.677   9.073  22.018  0.00  0.00    +0.000 C 
ENDBRANCH   6   7
BRANCH   2  14
ATOM     14  C   UNL     1      -1.784  14.243  21.260  0.00  0.00    +0.000 A 
ATOM     15  C   UNL     1      -2.080  15.341  20.450  0.00  0.00    +0.000 A 
ATOM     16  C   UNL     1      -3.115  16.212  20.800  0.00  0.00    +0.000 A 
ATOM     17  C   UNL     1      -3.905  15.985  21.937  0.00  0.00    +0.000 A 
ATOM     18  C   UNL     1      -3.634  14.874  22.749  0.00  0.00    +0.000 A 
ATOM     19  C   UNL     1      -2.556  14.039  22.412  0.00  0.00    +0.000 A 
BRANCH  17  20
ATOM     20  O   UNL     1      -4.874  16.941  22.091  0.00  0.00    +0.000 OA
ATOM     21  C   UNL     1      -4.598  18.066  22.912  0.00  0.00    +0.000 C 
ENDBRANCH  17  20
BRANCH  18  22
ATOM     22  O   UNL     1      -4.414  14.661  23.853  0.00  0.00    +0.000 OA
ATOM     23  C   UNL     1      -5.365  13.606  23.831  0.00  0.00    +0.000 C 
ENDBRANCH  18  22
ENDBRANCH   2  14
BRANCH   1  24
ATOM     24  N   UNL     1      -1.842  11.225  20.169  0.00  0.00    +0.000 N 
ATOM     25  H   UNL     1      -1.978  10.397  20.760  0.00  0.00    +0.000 HD
BRANCH  24  29
ATOM     26  C   UNL     1      -3.666  10.910  16.333  0.00  0.00    +0.000 A 
ATOM     27  C   UNL     1      -2.414  10.352  16.574  0.00  0.00    +0.000 A 
ATOM     28  C   UNL     1      -1.838  10.409  17.846  0.00  0.00    +0.000 A 
ATOM     29  C   UNL     1      -2.483  11.060  18.911  0.00  0.00    +0.000 A 
ATOM     30  C   UNL     1      -3.754  11.623  18.656  0.00  0.00    +0.000 A 
ATOM     31  C   UNL     1      -4.343  11.524  17.379  0.00  0.00    +0.000 A 
BRANCH  26  33
ATOM     32  C   UNL     1      -3.235  10.169  14.119  0.00  0.00    +0.000 C 
ATOM     33  O   UNL     1      -4.109  10.808  15.044  0.00  0.00    +0.000 OA
ENDBRANCH  26  33
BRANCH  30  34
ATOM     34  C   UNL     1      -4.528  12.422  19.642  0.00  0.00    +0.000 C 
ATOM     35  O   UNL     1      -4.798  12.023  20.759  0.00  0.00    +0.000 OA
BRANCH  34  36
ATOM     36  O   UNL     1      -4.998  13.591  19.146  0.00  0.00    +0.000 OA
ATOM     37  H   UNL     1      -5.029  14.315  19.804  0.00  0.00    +0.000 HD
ENDBRANCH  34  36
ENDBRANCH  30  34
ENDBRANCH  24  29
ENDBRANCH   1  24
TORSDOF 9
ENDMDL
MODEL 7
REMARK VINA RESULT:      -6.2      2.607      6.300
REMARK  Name = 
REMARK  14 active torsions:
REMARK  status: ('A' for Active; 'I' for Inactive)
REMARK    1  A    between atoms: C_1  and  O_2
REMARK    2  A    between atoms: O_2  and  C_3
REMARK    3  A    between atoms: C_6  and  N_7
REMARK    4  A    between atoms: N_7  and  C_8
REMARK    5  A    between atoms: C_9  and  C_10
REMARK    6  A    between atoms: C_13  and  O_14
REMARK    7  A    between atoms: O_14  and  C_15
REMARK    8  A    between atoms: C_16  and  O_17
REMARK    9  A    between atoms: O_17  and  C_18
REMARK   10  A    between atoms: C_20  and  C_21
REMARK   11  A    between atoms: N_23  and  C_24
REMARK   12  A    between atoms: C_29  and  C_30
REMARK   13  A    between atoms: C_31  and  C_32
REMARK   14  A    between atoms: C_32  and  O_34
REMARK                            x       y       z     vdW  Elec       q    Type
REMARK                         _______ _______ _______ _____ _____    ______ ____
ROOT
ATOM      1  C   UNL     1      -2.702  13.665  21.348  0.00  0.00    +0.000 A 
ATOM      2  C   UNL     1      -1.902  14.774  21.046  0.00  0.00    +0.000 A 
ATOM      3  C   UNL     1      -2.795  15.879  21.039  0.00  0.00    +0.000 A 
ATOM      4  C   UNL     1      -2.556  17.304  20.687  0.00  0.00    +0.000 C 
ATOM      5  N   UNL     1      -4.039  15.517  21.340  0.00  0.00    +0.000 NA
ATOM      6  N   UNL     1      -3.995  14.186  21.567  0.00  0.00    +0.000 N 
ENDROOT
BRANCH   6   7
ATOM      7  C   UNL     1      -5.177  13.515  22.018  0.00  0.00    +0.000 A 
ATOM      8  C   UNL     1      -5.534  13.596  23.377  0.00  0.00    +0.000 A 
ATOM      9  C   UNL     1      -6.695  12.980  23.848  0.00  0.00    +0.000 A 
ATOM     10  C   UNL     1      -7.524  12.293  22.969  0.00  0.00    +0.000 A 
ATOM     11  C   UNL     1      -7.196  12.223  21.616  0.00  0.00    +0.000 A 
ATOM     12  C   UNL     1      -6.022  12.818  21.119  0.00  0.00    +0.000 A 
ATOM     13  C   UNL     1      -5.739  12.654  19.647  0.00  0.00    +0.000 C 
ENDBRANCH   6   7
BRANCH   2  14
ATOM     14  C   UNL     1      -0.488  14.756  20.669  0.00  0.00    +0.000 A 
ATOM     15  C   UNL     1      -0.109  14.820  19.326  0.00  0.00    +0.000 A 
ATOM     16  C   UNL     1       1.242  14.758  18.975  0.00  0.00    +0.000 A 
ATOM     17  C   UNL     1       2.245  14.675  19.952  0.00  0.00    +0.000 A 
ATOM     18  C   UNL     1       1.881  14.632  21.306  0.00  0.00    +0.000 A 
ATOM     19  C   UNL     1       0.517  14.641  21.639  0.00  0.00    +0.000 A 
BRANCH  17  20
ATOM     20  O   UNL     1       3.500  14.643  19.402  0.00  0.00    +0.000 OA
ATOM     21  C   UNL     1       3.899  15.708  18.551  0.00  0.00    +0.000 C 
ENDBRANCH  17  20
BRANCH  18  22
ATOM     22  O   UNL     1       2.870  14.556  22.250  0.00  0.00    +0.000 OA
ATOM     23  C   UNL     1       3.525  15.747  22.658  0.00  0.00    +0.000 C 
ENDBRANCH  18  22
ENDBRANCH   2  14
BRANCH   1  24
ATOM     24  N   UNL     1      -2.453  12.309  21.338  0.00  0.00    +0.000 N 
ATOM     25  H   UNL     1      -2.553  11.790  22.218  0.00  0.00    +0.000 HD
BRANCH  24  29
ATOM     26  C   UNL     1      -0.001  10.076  18.665  0.00  0.00    +0.000 A 
ATOM     27  C   UNL     1      -1.088  10.805  18.192  0.00  0.00    +0.000 A 
ATOM     28  C   UNL     1      -1.861  11.581  19.061  0.00  0.00    +0.000 A 
ATOM     29  C   UNL     1      -1.592  11.621  20.439  0.00  0.00    +0.000 A 
ATOM     30  C   UNL     1      -0.485  10.877  20.909  0.00  0.00    +0.000 A 
ATOM     31  C   UNL     1       0.312  10.131  20.017  0.00  0.00    +0.000 A 
BRANCH  26  33
ATOM     32  C   UNL     1       2.074   9.252  17.857  0.00  0.00    +0.000 C 
ATOM     33  O   UNL     1       0.660   9.343  17.720  0.00  0.00    +0.000 OA
ENDBRANCH  26  33
BRANCH  30  34
ATOM     34  C   UNL     1      -0.119  10.738  22.342  0.00  0.00    +0.000 C 
ATOM     35  O   UNL     1      -0.563  11.458  23.217  0.00  0.00    +0.000 OA
BRANCH  34  36
ATOM     36  O   UNL     1       0.837   9.809  22.572  0.00  0.00    +0.000 OA
ATOM     37  H   UNL     1       0.535   9.060  23.126  0.00  0.00    +0.000 HD
ENDBRANCH  34  36
ENDBRANCH  30  34
ENDBRANCH  24  29
ENDBRANCH   1  24
TORSDOF 9
ENDMDL
MODEL 8
REMARK VINA RESULT:      -6.2      1.321      2.279
REMARK  Name = 
REMARK  14 active torsions:
REMARK  status: ('A' for Active; 'I' for Inactive)
REMARK    1  A    between atoms: C_1  and  O_2
REMARK    2  A    between atoms: O_2  and  C_3
REMARK    3  A    between atoms: C_6  and  N_7
REMARK    4  A    between atoms: N_7  and  C_8
REMARK    5  A    between atoms: C_9  and  C_10
REMARK    6  A    between atoms: C_13  and  O_14
REMARK    7  A    between atoms: O_14  and  C_15
REMARK    8  A    between atoms: C_16  and  O_17
REMARK    9  A    between atoms: O_17  and  C_18
REMARK   10  A    between atoms: C_20  and  C_21
REMARK   11  A    between atoms: N_23  and  C_24
REMARK   12  A    between atoms: C_29  and  C_30
REMARK   13  A    between atoms: C_31  and  C_32
REMARK   14  A    between atoms: C_32  and  O_34
REMARK                            x       y       z     vdW  Elec       q    Type
REMARK                         _______ _______ _______ _____ _____    ______ ____
ROOT
ATOM      1  C   UNL     1      -0.952  15.602  19.719  0.00  0.00    +0.000 A 
ATOM      2  C   UNL     1      -1.686  15.802  20.894  0.00  0.00    +0.000 A 
ATOM      3  C   UNL     1      -1.452  17.159  21.246  0.00  0.00    +0.000 A 
ATOM      4  C   UNL     1      -1.880  17.926  22.447  0.00  0.00    +0.000 C 
ATOM      5  N   UNL     1      -0.671  17.775  20.364  0.00  0.00    +0.000 NA
ATOM      6  N   UNL     1      -0.389  16.859  19.412  0.00  0.00    +0.000 N 
ENDROOT
BRANCH   6   7
ATOM      7  C   UNL     1       0.361  17.258  18.259  0.00  0.00    +0.000 A 
ATOM      8  C   UNL     1      -0.279  18.006  17.253  0.00  0.00    +0.000 A 
ATOM      9  C   UNL     1       0.427  18.438  16.128  0.00  0.00    +0.000 A 
ATOM     10  C   UNL     1       1.780  18.149  16.001  0.00  0.00    +0.000 A 
ATOM     11  C   UNL     1       2.432  17.428  16.999  0.00  0.00    +0.000 A 
ATOM     12  C   UNL     1       1.741  16.963  18.133  0.00  0.00    +0.000 A 
ATOM     13  C   UNL     1       2.529  16.162  19.138  0.00  0.00    +0.000 C 
ENDBRANCH   6   7
BRANCH   2  14
ATOM     14  C   UNL     1      -2.405  14.784  21.662  0.00  0.00    +0.000 A 
ATOM     15  C   UNL     1      -1.989  14.439  22.950  0.00  0.00    +0.000 A 
ATOM     16  C   UNL     1      -2.655  13.434  23.656  0.00  0.00    +0.000 A 
ATOM     17  C   UNL     1      -3.773  12.783  23.116  0.00  0.00    +0.000 A 
ATOM     18  C   UNL     1      -4.216  13.133  21.831  0.00  0.00    +0.000 A 
ATOM     19  C   UNL     1      -3.503  14.107  21.114  0.00  0.00    +0.000 A 
BRANCH  17  20
ATOM     20  O   UNL     1      -4.289  11.846  23.973  0.00  0.00    +0.000 OA
ATOM     21  C   UNL     1      -5.036  12.288  25.096  0.00  0.00    +0.000 C 
ENDBRANCH  17  20
BRANCH  18  22
ATOM     22  O   UNL     1      -5.312  12.493  21.317  0.00  0.00    +0.000 OA
ATOM     23  C   UNL     1      -6.602  13.032  21.563  0.00  0.00    +0.000 C 
ENDBRANCH  18  22
ENDBRANCH   2  14
BRANCH   1  24
ATOM     24  N   UNL     1      -0.649  14.469  18.994  0.00  0.00    +0.000 N 
ATOM     25  H   UNL     1      -1.064  14.364  18.061  0.00  0.00    +0.000 HD
BRANCH  24  29
ATOM     26  C   UNL     1       0.592  10.657  20.433  0.00  0.00    +0.000 A 
ATOM     27  C   UNL     1       1.275  11.813  20.800  0.00  0.00    +0.000 A 
ATOM     28  C   UNL     1       0.837  13.069  20.371  0.00  0.00    +0.000 A 
ATOM     29  C   UNL     1      -0.279  13.204  19.529  0.00  0.00    +0.000 A 
ATOM     30  C   UNL     1      -0.966  12.024  19.163  0.00  0.00    +0.000 A 
ATOM     31  C   UNL     1      -0.539  10.766  19.635  0.00  0.00    +0.000 A 
BRANCH  26  33
ATOM     32  C   UNL     1       0.503   8.904  22.032  0.00  0.00    +0.000 C 
ATOM     33  O   UNL     1       1.133   9.492  20.898  0.00  0.00    +0.000 OA
ENDBRANCH  26  33
BRANCH  30  34
ATOM     34  C   UNL     1      -2.106  11.981  18.210  0.00  0.00    +0.000 C 
ATOM     35  O   UNL     1      -3.233  11.652  18.532  0.00  0.00    +0.000 OA
BRANCH  34  36
ATOM     36  O   UNL     1      -1.754  12.237  16.929  0.00  0.00    +0.000 OA
ATOM     37  H   UNL     1      -1.743  11.444  16.356  0.00  0.00    +0.000 HD
ENDBRANCH  34  36
ENDBRANCH  30  34
ENDBRANCH  24  29
ENDBRANCH   1  24
TORSDOF 9
ENDMDL
MODEL 9
REMARK VINA RESULT:      -6.2      3.165      6.723
REMARK  Name = 
REMARK  14 active torsions:
REMARK  status: ('A' for Active; 'I' for Inactive)
REMARK    1  A    between atoms: C_1  and  O_2
REMARK    2  A    between atoms: O_2  and  C_3
REMARK    3  A    between atoms: C_6  and  N_7
REMARK    4  A    between atoms: N_7  and  C_8
REMARK    5  A    between atoms: C_9  and  C_10
REMARK    6  A    between atoms: C_13  and  O_14
REMARK    7  A    between atoms: O_14  and  C_15
REMARK    8  A    between atoms: C_16  and  O_17
REMARK    9  A    between atoms: O_17  and  C_18
REMARK   10  A    between atoms: C_20  and  C_21
REMARK   11  A    between atoms: N_23  and  C_24
REMARK   12  A    between atoms: C_29  and  C_30
REMARK   13  A    between atoms: C_31  and  C_32
REMARK   14  A    between atoms: C_32  and  O_34
REMARK                            x       y       z     vdW  Elec       q    Type
REMARK                         _______ _______ _______ _____ _____    ______ ____
ROOT
ATOM      1  C   UNL     1       0.556  12.207  19.478  0.00  0.00    +0.000 A 
ATOM      2  C   UNL     1       0.239  10.966  18.913  0.00  0.00    +0.000 A 
ATOM      3  C   UNL     1      -1.119  11.082  18.511  0.00  0.00    +0.000 A 
ATOM      4  C   UNL     1      -2.042  10.064  17.941  0.00  0.00    +0.000 C 
ATOM      5  N   UNL     1      -1.612  12.292  18.765  0.00  0.00    +0.000 NA
ATOM      6  N   UNL     1      -0.602  12.998  19.316  0.00  0.00    +0.000 N 
ENDROOT
BRANCH   6   7
ATOM      7  C   UNL     1      -0.798  14.386  19.608  0.00  0.00    +0.000 A 
ATOM      8  C   UNL     1      -0.313  15.350  18.705  0.00  0.00    +0.000 A 
ATOM      9  C   UNL     1      -0.511  16.713  18.942  0.00  0.00    +0.000 A 
ATOM     10  C   UNL     1      -1.212  17.129  20.068  0.00  0.00    +0.000 A 
ATOM     11  C   UNL     1      -1.717  16.185  20.960  0.00  0.00    +0.000 A 
ATOM     12  C   UNL     1      -1.514  14.807  20.756  0.00  0.00    +0.000 A 
ATOM     13  C   UNL     1      -2.069  13.869  21.797  0.00  0.00    +0.000 C 
ENDBRANCH   6   7
BRANCH   2  14
ATOM     14  C   UNL     1       1.085   9.772  18.891  0.00  0.00    +0.000 A 
ATOM     15  C   UNL     1       1.912   9.506  17.798  0.00  0.00    +0.000 A 
ATOM     16  C   UNL     1       2.682   8.341  17.768  0.00  0.00    +0.000 A 
ATOM     17  C   UNL     1       2.679   7.438  18.841  0.00  0.00    +0.000 A 
ATOM     18  C   UNL     1       1.869   7.701  19.956  0.00  0.00    +0.000 A 
ATOM     19  C   UNL     1       1.061   8.850  19.947  0.00  0.00    +0.000 A 
BRANCH  17  20
ATOM     20  O   UNL     1       3.512   6.372  18.622  0.00  0.00    +0.000 OA
ATOM     21  C   UNL     1       3.100   5.358  17.718  0.00  0.00    +0.000 C 
ENDBRANCH  17  20
BRANCH  18  22
ATOM     22  O   UNL     1       1.878   6.815  20.999  0.00  0.00    +0.000 OA
ATOM     23  C   UNL     1       1.390   5.498  20.788  0.00  0.00    +0.000 C 
ENDBRANCH  18  22
ENDBRANCH   2  14
BRANCH   1  24
ATOM     24  N   UNL     1       1.653  12.654  20.184  0.00  0.00    +0.000 N 
ATOM     25  H   UNL     1       1.581  12.711  21.207  0.00  0.00    +0.000 HD
BRANCH  24  29
ATOM     26  C   UNL     1       4.836  15.109  18.778  0.00  0.00    +0.000 A 
ATOM     27  C   UNL     1       4.209  14.202  17.929  0.00  0.00    +0.000 A 
ATOM     28  C   UNL     1       3.129  13.434  18.375  0.00  0.00    +0.000 A 
ATOM     29  C   UNL     1       2.667  13.523  19.698  0.00  0.00    +0.000 A 
ATOM     30  C   UNL     1       3.311  14.448  20.553  0.00  0.00    +0.000 A 
ATOM     31  C   UNL     1       4.373  15.246  20.080  0.00  0.00    +0.000 A 
BRANCH  26  33
ATOM     32  C   UNL     1       7.005  14.997  17.819  0.00  0.00    +0.000 C 
ATOM     33  O   UNL     1       5.891  15.782  18.229  0.00  0.00    +0.000 OA
ENDBRANCH  26  33
BRANCH  30  34
ATOM     34  C   UNL     1       3.009  14.601  22.000  0.00  0.00    +0.000 C 
ATOM     35  O   UNL     1       3.865  14.598  22.864  0.00  0.00    +0.000 OA
BRANCH  34  36
ATOM     36  O   UNL     1       1.685  14.634  22.278  0.00  0.00    +0.000 OA
ATOM     37  H   UNL     1       1.480  14.942  23.184  0.00  0.00    +0.000 HD
ENDBRANCH  34  36
ENDBRANCH  30  34
ENDBRANCH  24  29
ENDBRANCH   1  24
TORSDOF 9
ENDMDL
