MODEL 1
REMARK VINA RESULT:      -7.7      0.000      0.000
REMARK  Name = 
REMARK  10 active torsions:
REMARK  status: ('A' for Active; 'I' for Inactive)
REMARK    1  A    between atoms: C_2  and  C_3
REMARK    2  A    between atoms: C_2  and  C_4
REMARK    3  A    between atoms: C_10  and  C_11
REMARK    4  A    between atoms: C_15  and  N_16
REMARK    5  A    between atoms: C_17  and  C_19
REMARK    6  A    between atoms: C_19  and  C_20
REMARK    7  A    between atoms: C_20  and  C_21
REMARK    8  A    between atoms: C_21  and  C_22
REMARK    9  A    between atoms: C_22  and  C_23
REMARK   10  A    between atoms: C_28  and  C_29
REMARK                            x       y       z     vdW  Elec       q    Type
REMARK                         _______ _______ _______ _____ _____    ______ ____
ROOT
ATOM      1  C   UNL     1       0.620  13.565  18.882  0.00  0.00    +0.000 C 
ATOM      2  O   UNL     1      -0.395  14.251  18.747  0.00  0.00    +0.000 OA
ATOM      3  N   UNL     1       0.572  12.188  18.851  0.00  0.00    +0.000 N 
ATOM      4  C   UNL     1       1.691  11.314  19.146  0.00  0.00    +0.000 C 
ATOM      5  C   UNL     1       1.116   9.924  19.245  0.00  0.00    +0.000 C 
ATOM      6  C   UNL     1       2.141   8.856  18.929  0.00  0.00    +0.000 C 
ATOM      7  C   UNL     1       1.735   7.863  19.955  0.00  0.00    +0.000 C 
ATOM      8  N   UNL     1       0.987   8.333  20.901  0.00  0.00    +0.000 NA
ATOM      9  O   UNL     1       0.721   9.686  20.600  0.00  0.00    +0.000 OA
ATOM     10  C   UNL     1      -0.098   9.940  18.314  0.00  0.00    +0.000 C 
ATOM     11  C   UNL     1      -0.443  11.434  18.086  0.00  0.00    +0.000 C 
ENDROOT
BRANCH   7  12
ATOM     12  C   UNL     1       2.166   6.455  19.898  0.00  0.00    +0.000 A 
ATOM     13  C   UNL     1       1.602   5.474  20.719  0.00  0.00    +0.000 A 
ATOM     14  C   UNL     1       2.105   4.176  20.679  0.00  0.00    +0.000 A 
ATOM     15  C   UNL     1       3.150   3.855  19.808  0.00  0.00    +0.000 A 
ATOM     16  C   UNL     1       3.695   4.820  18.958  0.00  0.00    +0.000 A 
ATOM     17  C   UNL     1       3.204   6.124  19.018  0.00  0.00    +0.000 A 
BRANCH  16  18
ATOM     18  N   UNL     1       4.747   4.558  18.057  0.00  0.00    +0.000 N 
ATOM     19  C   UNL     1       6.080   4.843  18.249  0.00  0.00    +0.000 C 
ATOM     20  O   UNL     1       6.588   5.260  19.292  0.00  0.00    +0.000 OA
ATOM     21  H   UNL     1       4.494   4.051  17.212  0.00  0.00    +0.000 HD
BRANCH  19  22
ATOM     22  C   UNL     1       6.948   4.581  17.036  0.00  0.00    +0.000 C 
BRANCH  22  23
ATOM     23  C   UNL     1       6.185   3.953  15.874  0.00  0.00    +0.000 C 
BRANCH  23  24
ATOM     24  C   UNL     1       6.570   4.541  14.513  0.00  0.00    +0.000 C 
BRANCH  24  25
ATOM     25  C   UNL     1       5.901   3.754  13.386  0.00  0.00    +0.000 C 
ATOM     26  C   UNL     1       6.780   3.669  12.151  0.00  0.00    +0.000 C 
ENDBRANCH  24  25
ENDBRANCH  23  24
ENDBRANCH  22  23
ENDBRANCH  19  22
ENDBRANCH  16  18
ENDBRANCH   7  12
BRANCH  11  27
ATOM     27  C   UNL     1      -1.970  11.667  18.225  0.00  0.00    +0.000 C 
ATOM     28  N   UNL     1      -2.640  11.935  17.069  0.00  0.00    +0.000 N 
ATOM     29  O   UNL     1      -2.617  11.411  19.238  0.00  0.00    +0.000 OA
ATOM     30  H   UNL     1      -3.628  12.126  17.147  0.00  0.00    +0.000 HD
ATOM     31  H   UNL     1      -2.141  12.433  16.329  0.00  0.00    +0.000 HD
ENDBRANCH  11  27
BRANCH   1  33
ATOM     32  C   UNL     1       2.226  14.787  20.242  0.00  0.00    +0.000 C 
ATOM     33  C   UNL     1       1.940  14.272  19.034  0.00  0.00    +0.000 C 
ATOM     34  C   UNL     1       2.810  14.590  17.864  0.00  0.00    +0.000 C 
ENDBRANCH   1  33
TORSDOF 8
ENDMDL
MODEL 2
REMARK VINA RESULT:      -7.6      1.045      1.221
REMARK  Name = 
REMARK  10 active torsions:
REMARK  status: ('A' for Active; 'I' for Inactive)
REMARK    1  A    between atoms: C_2  and  C_3
REMARK    2  A    between atoms: C_2  and  C_4
REMARK    3  A    between atoms: C_10  and  C_11
REMARK    4  A    between atoms: C_15  and  N_16
REMARK    5  A    between atoms: C_17  and  C_19
REMARK    6  A    between atoms: C_19  and  C_20
REMARK    7  A    between atoms: C_20  and  C_21
REMARK    8  A    between atoms: C_21  and  C_22
REMARK    9  A    between atoms: C_22  and  C_23
REMARK   10  A    between atoms: C_28  and  C_29
REMARK                            x       y       z     vdW  Elec       q    Type
REMARK                         _______ _______ _______ _____ _____    ______ ____
ROOT
ATOM      1  C   UNL     1       0.591  13.669  19.774  0.00  0.00    +0.000 C 
ATOM      2  O   UNL     1      -0.390  14.391  19.960  0.00  0.00    +0.000 OA
ATOM      3  N   UNL     1       0.476  12.297  19.700  0.00  0.00    +0.000 N 
ATOM      4  C   UNL     1       1.594  11.376  19.629  0.00  0.00    +0.000 C 
ATOM      5  C   UNL     1       1.011  10.001  19.829  0.00  0.00    +0.000 C 
ATOM      6  C   UNL     1       1.858   8.921  19.192  0.00  0.00    +0.000 C 
ATOM      7  C   UNL     1       1.715   7.888  20.248  0.00  0.00    +0.000 C 
ATOM      8  N   UNL     1       1.285   8.330  21.387  0.00  0.00    +0.000 NA
ATOM      9  O   UNL     1       1.004   9.704  21.230  0.00  0.00    +0.000 OA
ATOM     10  C   UNL     1      -0.414  10.102  19.283  0.00  0.00    +0.000 C 
ATOM     11  C   UNL     1      -0.744  11.615  19.224  0.00  0.00    +0.000 C 
ENDROOT
BRANCH   7  12
ATOM     12  C   UNL     1       2.051   6.473  20.013  0.00  0.00    +0.000 A 
ATOM     13  C   UNL     1       1.306   5.431  20.573  0.00  0.00    +0.000 A 
ATOM     14  C   UNL     1       1.718   4.115  20.383  0.00  0.00    +0.000 A 
ATOM     15  C   UNL     1       2.855   3.839  19.619  0.00  0.00    +0.000 A 
ATOM     16  C   UNL     1       3.586   4.872  19.025  0.00  0.00    +0.000 A 
ATOM     17  C   UNL     1       3.182   6.190  19.238  0.00  0.00    +0.000 A 
BRANCH  16  18
ATOM     18  N   UNL     1       4.738   4.658  18.243  0.00  0.00    +0.000 N 
ATOM     19  C   UNL     1       6.040   4.900  18.620  0.00  0.00    +0.000 C 
ATOM     20  O   UNL     1       6.419   5.224  19.747  0.00  0.00    +0.000 OA
ATOM     21  H   UNL     1       4.587   4.223  17.336  0.00  0.00    +0.000 HD
BRANCH  19  22
ATOM     22  C   UNL     1       7.050   4.715  17.506  0.00  0.00    +0.000 C 
BRANCH  22  23
ATOM     23  C   UNL     1       6.698   5.490  16.240  0.00  0.00    +0.000 C 
BRANCH  23  24
ATOM     24  C   UNL     1       7.002   4.714  14.954  0.00  0.00    +0.000 C 
BRANCH  24  25
ATOM     25  C   UNL     1       5.709   4.186  14.335  0.00  0.00    +0.000 C 
ATOM     26  C   UNL     1       5.927   3.652  12.930  0.00  0.00    +0.000 C 
ENDBRANCH  24  25
ENDBRANCH  23  24
ENDBRANCH  22  23
ENDBRANCH  19  22
ENDBRANCH  16  18
ENDBRANCH   7  12
BRANCH  11  27
ATOM     27  C   UNL     1      -2.158  11.886  19.800  0.00  0.00    +0.000 C 
ATOM     28  N   UNL     1      -2.213  12.199  21.126  0.00  0.00    +0.000 N 
ATOM     29  O   UNL     1      -3.164  12.051  19.112  0.00  0.00    +0.000 OA
ATOM     30  H   UNL     1      -3.129  12.341  21.525  0.00  0.00    +0.000 HD
ATOM     31  H   UNL     1      -1.509  11.789  21.744  0.00  0.00    +0.000 HD
ENDBRANCH  11  27
BRANCH   1  33
ATOM     32  C   UNL     1       2.326  14.543  18.308  0.00  0.00    +0.000 C 
ATOM     33  C   UNL     1       1.930  14.327  19.574  0.00  0.00    +0.000 C 
ATOM     34  C   UNL     1       2.887  14.539  20.700  0.00  0.00    +0.000 C 
ENDBRANCH   1  33
TORSDOF 8
ENDMDL
MODEL 3
REMARK VINA RESULT:      -7.5      1.363      2.083
REMARK  Name = 
REMARK  10 active torsions:
REMARK  status: ('A' for Active; 'I' for Inactive)
REMARK    1  A    between atoms: C_2  and  C_3
REMARK    2  A    between atoms: C_2  and  C_4
REMARK    3  A    between atoms: C_10  and  C_11
REMARK    4  A    between atoms: C_15  and  N_16
REMARK    5  A    between atoms: C_17  and  C_19
REMARK    6  A    between atoms: C_19  and  C_20
REMARK    7  A    between atoms: C_20  and  C_21
REMARK    8  A    between atoms: C_21  and  C_22
REMARK    9  A    between atoms: C_22  and  C_23
REMARK   10  A    between atoms: C_28  and  C_29
REMARK                            x       y       z     vdW  Elec       q    Type
REMARK                         _______ _______ _______ _____ _____    ______ ____
ROOT
ATOM      1  C   UNL     1       0.400  13.706  19.377  0.00  0.00    +0.000 C 
ATOM      2  O   UNL     1      -0.610  14.411  19.418  0.00  0.00    +0.000 OA
ATOM      3  N   UNL     1       0.321  12.330  19.336  0.00  0.00    +0.000 N 
ATOM      4  C   UNL     1       1.456  11.433  19.432  0.00  0.00    +0.000 C 
ATOM      5  C   UNL     1       0.879  10.051  19.605  0.00  0.00    +0.000 C 
ATOM      6  C   UNL     1       1.818   8.972  19.112  0.00  0.00    +0.000 C 
ATOM      7  C   UNL     1       1.565   7.969  20.177  0.00  0.00    +0.000 C 
ATOM      8  N   UNL     1       0.991   8.436  21.239  0.00  0.00    +0.000 NA
ATOM      9  O   UNL     1       0.705   9.798  21.004  0.00  0.00    +0.000 OA
ATOM     10  C   UNL     1      -0.470  10.103  18.886  0.00  0.00    +0.000 C 
ATOM     11  C   UNL     1      -0.819  11.606  18.737  0.00  0.00    +0.000 C 
ENDROOT
BRANCH   7  12
ATOM     12  C   UNL     1       1.954   6.555  20.032  0.00  0.00    +0.000 A 
ATOM     13  C   UNL     1       1.489   5.566  20.904  0.00  0.00    +0.000 A 
ATOM     14  C   UNL     1       1.954   4.260  20.767  0.00  0.00    +0.000 A 
ATOM     15  C   UNL     1       2.860   3.940  19.752  0.00  0.00    +0.000 A 
ATOM     16  C   UNL     1       3.302   4.915  18.855  0.00  0.00    +0.000 A 
ATOM     17  C   UNL     1       2.852   6.225  19.009  0.00  0.00    +0.000 A 
BRANCH  16  18
ATOM     18  N   UNL     1       4.213   4.654  17.811  0.00  0.00    +0.000 N 
ATOM     19  C   UNL     1       5.557   4.388  17.944  0.00  0.00    +0.000 C 
ATOM     20  O   UNL     1       6.158   4.212  19.005  0.00  0.00    +0.000 OA
ATOM     21  H   UNL     1       3.815   4.596  16.876  0.00  0.00    +0.000 HD
BRANCH  19  22
ATOM     22  C   UNL     1       6.302   4.301  16.628  0.00  0.00    +0.000 C 
BRANCH  22  23
ATOM     23  C   UNL     1       7.323   5.420  16.438  0.00  0.00    +0.000 C 
BRANCH  23  24
ATOM     24  C   UNL     1       6.866   6.758  17.027  0.00  0.00    +0.000 C 
BRANCH  24  25
ATOM     25  C   UNL     1       7.871   7.252  18.066  0.00  0.00    +0.000 C 
ATOM     26  C   UNL     1       8.164   8.734  17.914  0.00  0.00    +0.000 C 
ENDBRANCH  24  25
ENDBRANCH  23  24
ENDBRANCH  22  23
ENDBRANCH  19  22
ENDBRANCH  16  18
ENDBRANCH   7  12
BRANCH  11  27
ATOM     27  C   UNL     1      -2.298  11.862  19.126  0.00  0.00    +0.000 C 
ATOM     28  N   UNL     1      -2.510  12.331  20.389  0.00  0.00    +0.000 N 
ATOM     29  O   UNL     1      -3.230  11.883  18.325  0.00  0.00    +0.000 OA
ATOM     30  H   UNL     1      -3.469  12.467  20.672  0.00  0.00    +0.000 HD
ATOM     31  H   UNL     1      -1.859  12.042  21.123  0.00  0.00    +0.000 HD
ENDBRANCH  11  27
BRANCH   1  33
ATOM     32  C   UNL     1       2.211  14.915  20.464  0.00  0.00    +0.000 C 
ATOM     33  C   UNL     1       1.741  14.387  19.320  0.00  0.00    +0.000 C 
ATOM     34  C   UNL     1       2.435  14.670  18.029  0.00  0.00    +0.000 C 
ENDBRANCH   1  33
TORSDOF 8
ENDMDL
MODEL 4
REMARK VINA RESULT:      -7.2      1.477      2.207
REMARK  Name = 
REMARK  10 active torsions:
REMARK  status: ('A' for Active; 'I' for Inactive)
REMARK    1  A    between atoms: C_2  and  C_3
REMARK    2  A    between atoms: C_2  and  C_4
REMARK    3  A    between atoms: C_10  and  C_11
REMARK    4  A    between atoms: C_15  and  N_16
REMARK    5  A    between atoms: C_17  and  C_19
REMARK    6  A    between atoms: C_19  and  C_20
REMARK    7  A    between atoms: C_20  and  C_21
REMARK    8  A    between atoms: C_21  and  C_22
REMARK    9  A    between atoms: C_22  and  C_23
REMARK   10  A    between atoms: C_28  and  C_29
REMARK                            x       y       z     vdW  Elec       q    Type
REMARK                         _______ _______ _______ _____ _____    ______ ____
ROOT
ATOM      1  C   UNL     1       0.515  14.039  19.853  0.00  0.00    +0.000 C 
ATOM      2  O   UNL     1      -0.438  14.786  20.084  0.00  0.00    +0.000 OA
ATOM      3  N   UNL     1       0.365  12.670  19.795  0.00  0.00    +0.000 N 
ATOM      4  C   UNL     1       1.457  11.722  19.674  0.00  0.00    +0.000 C 
ATOM      5  C   UNL     1       0.853  10.362  19.914  0.00  0.00    +0.000 C 
ATOM      6  C   UNL     1       1.641   9.259  19.242  0.00  0.00    +0.000 C 
ATOM      7  C   UNL     1       1.528   8.237  20.312  0.00  0.00    +0.000 C 
ATOM      8  N   UNL     1       1.168   8.696  21.468  0.00  0.00    +0.000 NA
ATOM      9  O   UNL     1       0.911  10.075  21.316  0.00  0.00    +0.000 OA
ATOM     10  C   UNL     1      -0.596  10.493  19.440  0.00  0.00    +0.000 C 
ATOM     11  C   UNL     1      -0.893  12.014  19.387  0.00  0.00    +0.000 C 
ENDROOT
BRANCH   7  12
ATOM     12  C   UNL     1       1.818   6.812  20.071  0.00  0.00    +0.000 A 
ATOM     13  C   UNL     1       1.325   5.804  20.904  0.00  0.00    +0.000 A 
ATOM     14  C   UNL     1       1.699   4.482  20.674  0.00  0.00    +0.000 A 
ATOM     15  C   UNL     1       2.542   4.167  19.605  0.00  0.00    +0.000 A 
ATOM     16  C   UNL     1       3.011   5.164  18.747  0.00  0.00    +0.000 A 
ATOM     17  C   UNL     1       2.653   6.489  18.994  0.00  0.00    +0.000 A 
BRANCH  16  18
ATOM     18  N   UNL     1       3.862   4.909  17.651  0.00  0.00    +0.000 N 
ATOM     19  C   UNL     1       5.164   4.467  17.712  0.00  0.00    +0.000 C 
ATOM     20  O   UNL     1       5.758   4.103  18.728  0.00  0.00    +0.000 OA
ATOM     21  H   UNL     1       3.442   5.004  16.730  0.00  0.00    +0.000 HD
BRANCH  19  22
ATOM     22  C   UNL     1       5.867   4.434  16.371  0.00  0.00    +0.000 C 
BRANCH  22  23
ATOM     23  C   UNL     1       6.743   5.658  16.119  0.00  0.00    +0.000 C 
BRANCH  23  24
ATOM     24  C   UNL     1       6.384   6.849  17.012  0.00  0.00    +0.000 C 
BRANCH  24  25
ATOM     25  C   UNL     1       7.644   7.432  17.651  0.00  0.00    +0.000 C 
ATOM     26  C   UNL     1       8.111   6.611  18.841  0.00  0.00    +0.000 C 
ENDBRANCH  24  25
ENDBRANCH  23  24
ENDBRANCH  22  23
ENDBRANCH  19  22
ENDBRANCH  16  18
ENDBRANCH   7  12
BRANCH  11  27
ATOM     27  C   UNL     1      -2.270  12.322  20.032  0.00  0.00    +0.000 C 
ATOM     28  N   UNL     1      -3.330  12.380  19.177  0.00  0.00    +0.000 N 
ATOM     29  O   UNL     1      -2.487  12.291  21.242  0.00  0.00    +0.000 OA
ATOM     30  H   UNL     1      -4.227  12.617  19.576  0.00  0.00    +0.000 HD
ATOM     31  H   UNL     1      -3.159  12.707  18.224  0.00  0.00    +0.000 HD
ENDBRANCH  11  27
BRANCH   1  33
ATOM     32  C   UNL     1       2.179  14.892  18.295  0.00  0.00    +0.000 C 
ATOM     33  C   UNL     1       1.858  14.664  19.580  0.00  0.00    +0.000 C 
ATOM     34  C   UNL     1       2.888  14.830  20.647  0.00  0.00    +0.000 C 
ENDBRANCH   1  33
TORSDOF 8
ENDMDL
MODEL 5
REMARK VINA RESULT:      -7.1      1.334      1.521
REMARK  Name = 
REMARK  10 active torsions:
REMARK  status: ('A' for Active; 'I' for Inactive)
REMARK    1  A    between atoms: C_2  and  C_3
REMARK    2  A    between atoms: C_2  and  C_4
REMARK    3  A    between atoms: C_10  and  C_11
REMARK    4  A    between atoms: C_15  and  N_16
REMARK    5  A    between atoms: C_17  and  C_19
REMARK    6  A    between atoms: C_19  and  C_20
REMARK    7  A    between atoms: C_20  and  C_21
REMARK    8  A    between atoms: C_21  and  C_22
REMARK    9  A    between atoms: C_22  and  C_23
REMARK   10  A    between atoms: C_28  and  C_29
REMARK                            x       y       z     vdW  Elec       q    Type
REMARK                         _______ _______ _______ _____ _____    ______ ____
ROOT
ATOM      1  C   UNL     1      -0.197  13.976  19.793  0.00  0.00    +0.000 C 
ATOM      2  O   UNL     1      -1.268  14.579  19.885  0.00  0.00    +0.000 OA
ATOM      3  N   UNL     1      -0.147  12.610  19.615  0.00  0.00    +0.000 N 
ATOM      4  C   UNL     1       1.066  11.816  19.642  0.00  0.00    +0.000 C 
ATOM      5  C   UNL     1       0.618  10.377  19.668  0.00  0.00    +0.000 C 
ATOM      6  C   UNL     1       1.657   9.442  19.088  0.00  0.00    +0.000 C 
ATOM      7  C   UNL     1       1.490   8.320  20.045  0.00  0.00    +0.000 C 
ATOM      8  N   UNL     1       0.866   8.624  21.137  0.00  0.00    +0.000 NA
ATOM      9  O   UNL     1       0.457   9.970  21.032  0.00  0.00    +0.000 OA
ATOM     10  C   UNL     1      -0.724  10.376  18.934  0.00  0.00    +0.000 C 
ATOM     11  C   UNL     1      -1.210  11.849  18.927  0.00  0.00    +0.000 C 
ENDROOT
BRANCH   7  12
ATOM     12  C   UNL     1       2.009   6.968  19.768  0.00  0.00    +0.000 A 
ATOM     13  C   UNL     1       1.848   5.913  20.670  0.00  0.00    +0.000 A 
ATOM     14  C   UNL     1       2.430   4.680  20.392  0.00  0.00    +0.000 A 
ATOM     15  C   UNL     1       3.151   4.494  19.209  0.00  0.00    +0.000 A 
ATOM     16  C   UNL     1       3.287   5.533  18.284  0.00  0.00    +0.000 A 
ATOM     17  C   UNL     1       2.721   6.773  18.578  0.00  0.00    +0.000 A 
BRANCH  16  18
ATOM     18  N   UNL     1       3.998   5.407  17.074  0.00  0.00    +0.000 N 
ATOM     19  C   UNL     1       5.120   6.117  16.706  0.00  0.00    +0.000 C 
ATOM     20  O   UNL     1       5.757   6.887  17.426  0.00  0.00    +0.000 OA
ATOM     21  H   UNL     1       3.681   4.674  16.444  0.00  0.00    +0.000 HD
BRANCH  19  22
ATOM     22  C   UNL     1       5.567   5.868  15.281  0.00  0.00    +0.000 C 
BRANCH  22  23
ATOM     23  C   UNL     1       6.715   4.868  15.176  0.00  0.00    +0.000 C 
BRANCH  23  24
ATOM     24  C   UNL     1       6.353   3.617  14.369  0.00  0.00    +0.000 C 
BRANCH  24  25
ATOM     25  C   UNL     1       5.397   3.976  13.233  0.00  0.00    +0.000 C 
ATOM     26  C   UNL     1       5.602   3.093  12.015  0.00  0.00    +0.000 C 
ENDBRANCH  24  25
ENDBRANCH  23  24
ENDBRANCH  22  23
ENDBRANCH  19  22
ENDBRANCH  16  18
ENDBRANCH   7  12
BRANCH  11  27
ATOM     27  C   UNL     1      -2.709  11.928  19.315  0.00  0.00    +0.000 C 
ATOM     28  N   UNL     1      -2.977  12.354  20.582  0.00  0.00    +0.000 N 
ATOM     29  O   UNL     1      -3.635  11.851  18.510  0.00  0.00    +0.000 OA
ATOM     30  H   UNL     1      -3.946  12.375  20.862  0.00  0.00    +0.000 HD
ATOM     31  H   UNL     1      -2.299  12.133  21.315  0.00  0.00    +0.000 HD
ENDBRANCH  11  27
BRANCH   1  33
ATOM     32  C   UNL     1       1.590  15.168  18.647  0.00  0.00    +0.000 C 
ATOM     33  C   UNL     1       1.076  14.780  19.827  0.00  0.00    +0.000 C 
ATOM     34  C   UNL     1       1.866  14.964  21.080  0.00  0.00    +0.000 C 
ENDBRANCH   1  33
TORSDOF 8
ENDMDL
MODEL 6
REMARK VINA RESULT:      -7.0      1.187      1.298
REMARK  Name = 
REMARK  10 active torsions:
REMARK  status: ('A' for Active; 'I' for Inactive)
REMARK    1  A    between atoms: C_2  and  C_3
REMARK    2  A    between atoms: C_2  and  C_4
REMARK    3  A    between atoms: C_10  and  C_11
REMARK    4  A    between atoms: C_15  and  N_16
REMARK    5  A    between atoms: C_17  and  C_19
REMARK    6  A    between atoms: C_19  and  C_20
REMARK    7  A    between atoms: C_20  and  C_21
REMARK    8  A    between atoms: C_21  and  C_22
REMARK    9  A    between atoms: C_22  and  C_23
REMARK   10  A    between atoms: C_28  and  C_29
REMARK                            x       y       z     vdW  Elec       q    Type
REMARK                         _______ _______ _______ _____ _____    ______ ____
ROOT
ATOM      1  C   UNL     1      -0.119  13.761  19.976  0.00  0.00    +0.000 C 
ATOM      2  O   UNL     1      -1.155  14.385  19.743  0.00  0.00    +0.000 OA
ATOM      3  N   UNL     1      -0.009  12.413  19.707  0.00  0.00    +0.000 N 
ATOM      4  C   UNL     1       1.118  11.583  20.084  0.00  0.00    +0.000 C 
ATOM      5  C   UNL     1       0.690  10.161  19.827  0.00  0.00    +0.000 C 
ATOM      6  C   UNL     1       1.867   9.247  19.564  0.00  0.00    +0.000 C 
ATOM      7  C   UNL     1       1.377   8.054  20.300  0.00  0.00    +0.000 C 
ATOM      8  N   UNL     1       0.412   8.286  21.130  0.00  0.00    +0.000 NA
ATOM      9  O   UNL     1       0.064   9.648  21.008  0.00  0.00    +0.000 OA
ATOM     10  C   UNL     1      -0.311  10.261  18.675  0.00  0.00    +0.000 C 
ATOM     11  C   UNL     1      -0.765  11.743  18.629  0.00  0.00    +0.000 C 
ENDROOT
BRANCH   7  12
ATOM     12  C   UNL     1       1.962   6.715  20.104  0.00  0.00    +0.000 A 
ATOM     13  C   UNL     1       1.572   5.617  20.875  0.00  0.00    +0.000 A 
ATOM     14  C   UNL     1       2.217   4.395  20.699  0.00  0.00    +0.000 A 
ATOM     15  C   UNL     1       3.228   4.265  19.744  0.00  0.00    +0.000 A 
ATOM     16  C   UNL     1       3.599   5.349  18.944  0.00  0.00    +0.000 A 
ATOM     17  C   UNL     1       2.967   6.576  19.139  0.00  0.00    +0.000 A 
BRANCH  16  18
ATOM     18  N   UNL     1       4.609   5.281  17.963  0.00  0.00    +0.000 N 
ATOM     19  C   UNL     1       4.651   4.419  16.889  0.00  0.00    +0.000 C 
ATOM     20  O   UNL     1       3.751   3.653  16.541  0.00  0.00    +0.000 OA
ATOM     21  H   UNL     1       5.342   5.983  18.028  0.00  0.00    +0.000 HD
BRANCH  19  22
ATOM     22  C   UNL     1       5.940   4.483  16.097  0.00  0.00    +0.000 C 
BRANCH  22  23
ATOM     23  C   UNL     1       5.763   4.108  14.628  0.00  0.00    +0.000 C 
BRANCH  23  24
ATOM     24  C   UNL     1       6.964   4.494  13.759  0.00  0.00    +0.000 C 
BRANCH  24  25
ATOM     25  C   UNL     1       6.694   4.147  12.296  0.00  0.00    +0.000 C 
ATOM     26  C   UNL     1       5.707   3.001  12.155  0.00  0.00    +0.000 C 
ENDBRANCH  24  25
ENDBRANCH  23  24
ENDBRANCH  22  23
ENDBRANCH  19  22
ENDBRANCH  16  18
ENDBRANCH   7  12
BRANCH  11  27
ATOM     27  C   UNL     1      -2.306  11.835  18.477  0.00  0.00    +0.000 C 
ATOM     28  N   UNL     1      -2.782  11.809  17.200  0.00  0.00    +0.000 N 
ATOM     29  O   UNL     1      -3.100  11.707  19.406  0.00  0.00    +0.000 OA
ATOM     30  H   UNL     1      -3.779  11.906  17.081  0.00  0.00    +0.000 HD
ATOM     31  H   UNL     1      -2.198  12.210  16.463  0.00  0.00    +0.000 HD
ENDBRANCH  11  27
BRANCH   1  33
ATOM     32  C   UNL     1       1.021  14.872  21.818  0.00  0.00    +0.000 C 
ATOM     33  C   UNL     1       1.062  14.520  20.521  0.00  0.00    +0.000 C 
ATOM     34  C   UNL     1       2.136  15.060  19.636  0.00  0.00    +0.000 C 
ENDBRANCH   1  33
TORSDOF 8
ENDMDL
MODEL 7
REMARK VINA RESULT:      -7.0      2.140      3.307
REMARK  Name = 
REMARK  10 active torsions:
REMARK  status: ('A' for Active; 'I' for Inactive)
REMARK    1  A    between atoms: C_2  and  C_3
REMARK    2  A    between atoms: C_2  and  C_4
REMARK    3  A    between atoms: C_10  and  C_11
REMARK    4  A    between atoms: C_15  and  N_16
REMARK    5  A    between atoms: C_17  and  C_19
REMARK    6  A    between atoms: C_19  and  C_20
REMARK    7  A    between atoms: C_20  and  C_21
REMARK    8  A    between atoms: C_21  and  C_22
REMARK    9  A    between atoms: C_22  and  C_23
REMARK   10  A    between atoms: C_28  and  C_29
REMARK                            x       y       z     vdW  Elec       q    Type
REMARK                         _______ _______ _______ _____ _____    ______ ____
ROOT
ATOM      1  C   UNL     1      -1.740  13.684  20.672  0.00  0.00    +0.000 C 
ATOM      2  O   UNL     1      -1.576  14.902  20.591  0.00  0.00    +0.000 OA
ATOM      3  N   UNL     1      -0.702  12.799  20.479  0.00  0.00    +0.000 N 
ATOM      4  C   UNL     1      -0.844  11.357  20.414  0.00  0.00    +0.000 C 
ATOM      5  C   UNL     1       0.484  10.830  19.935  0.00  0.00    +0.000 C 
ATOM      6  C   UNL     1       0.733   9.407  20.385  0.00  0.00    +0.000 C 
ATOM      7  C   UNL     1       1.378   8.903  19.147  0.00  0.00    +0.000 C 
ATOM      8  N   UNL     1       1.194   9.640  18.099  0.00  0.00    +0.000 NA
ATOM      9  O   UNL     1       0.470  10.781  18.504  0.00  0.00    +0.000 OA
ATOM     10  C   UNL     1       1.508  11.849  20.438  0.00  0.00    +0.000 C 
ATOM     11  C   UNL     1       0.707  13.133  20.773  0.00  0.00    +0.000 C 
ENDROOT
BRANCH   7  12
ATOM     12  C   UNL     1       2.155   7.651  19.120  0.00  0.00    +0.000 A 
ATOM     13  C   UNL     1       2.066   6.702  20.143  0.00  0.00    +0.000 A 
ATOM     14  C   UNL     1       2.884   5.576  20.103  0.00  0.00    +0.000 A 
ATOM     15  C   UNL     1       3.769   5.387  19.039  0.00  0.00    +0.000 A 
ATOM     16  C   UNL     1       3.838   6.312  17.995  0.00  0.00    +0.000 A 
ATOM     17  C   UNL     1       3.034   7.450  18.049  0.00  0.00    +0.000 A 
BRANCH  16  18
ATOM     18  N   UNL     1       4.708   6.177  16.893  0.00  0.00    +0.000 N 
ATOM     19  C   UNL     1       5.232   5.002  16.403  0.00  0.00    +0.000 C 
ATOM     20  O   UNL     1       4.927   3.866  16.769  0.00  0.00    +0.000 OA
ATOM     21  H   UNL     1       4.911   7.031  16.378  0.00  0.00    +0.000 HD
BRANCH  19  22
ATOM     22  C   UNL     1       6.256   5.194  15.304  0.00  0.00    +0.000 C 
BRANCH  22  23
ATOM     23  C   UNL     1       6.328   4.017  14.335  0.00  0.00    +0.000 C 
BRANCH  23  24
ATOM     24  C   UNL     1       5.192   4.013  13.307  0.00  0.00    +0.000 C 
BRANCH  24  25
ATOM     25  C   UNL     1       5.557   3.128  12.116  0.00  0.00    +0.000 C 
ATOM     26  C   UNL     1       4.406   2.991  11.135  0.00  0.00    +0.000 C 
ENDBRANCH  24  25
ENDBRANCH  23  24
ENDBRANCH  22  23
ENDBRANCH  19  22
ENDBRANCH  16  18
ENDBRANCH   7  12
BRANCH  11  27
ATOM     27  C   UNL     1       1.427  14.385  20.208  0.00  0.00    +0.000 C 
ATOM     28  N   UNL     1       1.173  14.681  18.901  0.00  0.00    +0.000 N 
ATOM     29  O   UNL     1       2.007  15.219  20.900  0.00  0.00    +0.000 OA
ATOM     30  H   UNL     1       1.663  15.471  18.507  0.00  0.00    +0.000 HD
ATOM     31  H   UNL     1       0.979  13.906  18.263  0.00  0.00    +0.000 HD
ENDBRANCH  11  27
BRANCH   1  33
ATOM     32  C   UNL     1      -3.333  12.903  22.339  0.00  0.00    +0.000 C 
ATOM     33  C   UNL     1      -3.108  13.174  21.042  0.00  0.00    +0.000 C 
ATOM     34  C   UNL     1      -4.112  12.773  20.012  0.00  0.00    +0.000 C 
ENDBRANCH   1  33
TORSDOF 8
ENDMDL
MODEL 8
REMARK VINA RESULT:      -6.9      2.452      3.795
REMARK  Name = 
REMARK  10 active torsions:
REMARK  status: ('A' for Active; 'I' for Inactive)
REMARK    1  A    between atoms: C_2  and  C_3
REMARK    2  A    between atoms: C_2  and  C_4
REMARK    3  A    between atoms: C_10  and  C_11
REMARK    4  A    between atoms: C_15  and  N_16
REMARK    5  A    between atoms: C_17  and  C_19
REMARK    6  A    between atoms: C_19  and  C_20
REMARK    7  A    between atoms: C_20  and  C_21
REMARK    8  A    between atoms: C_21  and  C_22
REMARK    9  A    between atoms: C_22  and  C_23
REMARK   10  A    between atoms: C_28  and  C_29
REMARK                            x       y       z     vdW  Elec       q    Type
REMARK                         _______ _______ _______ _____ _____    ______ ____
ROOT
ATOM      1  C   UNL     1      -1.993  11.377  18.529  0.00  0.00    +0.000 C 
ATOM      2  O   UNL     1      -2.281  12.390  19.169  0.00  0.00    +0.000 OA
ATOM      3  N   UNL     1      -0.839  10.666  18.779  0.00  0.00    +0.000 N 
ATOM      4  C   UNL     1      -0.362   9.555  17.978  0.00  0.00    +0.000 C 
ATOM      5  C   UNL     1       1.038   9.269  18.459  0.00  0.00    +0.000 C 
ATOM      6  C   UNL     1       1.446   7.833  18.214  0.00  0.00    +0.000 C 
ATOM      7  C   UNL     1       2.857   8.078  17.821  0.00  0.00    +0.000 C 
ATOM      8  N   UNL     1       3.126   9.301  17.494  0.00  0.00    +0.000 NA
ATOM      9  O   UNL     1       1.956  10.063  17.699  0.00  0.00    +0.000 OA
ATOM     10  C   UNL     1       1.036   9.691  19.929  0.00  0.00    +0.000 C 
ATOM     11  C   UNL     1      -0.195  10.618  20.107  0.00  0.00    +0.000 C 
ENDROOT
BRANCH   7  12
ATOM     12  C   UNL     1       3.863   7.002  17.796  0.00  0.00    +0.000 A 
ATOM     13  C   UNL     1       4.208   6.283  18.944  0.00  0.00    +0.000 A 
ATOM     14  C   UNL     1       5.223   5.332  18.877  0.00  0.00    +0.000 A 
ATOM     15  C   UNL     1       5.875   5.085  17.666  0.00  0.00    +0.000 A 
ATOM     16  C   UNL     1       5.513   5.774  16.505  0.00  0.00    +0.000 A 
ATOM     17  C   UNL     1       4.511   6.741  16.582  0.00  0.00    +0.000 A 
BRANCH  16  18
ATOM     18  N   UNL     1       6.130   5.568  15.255  0.00  0.00    +0.000 N 
ATOM     19  C   UNL     1       6.341   4.357  14.636  0.00  0.00    +0.000 C 
ATOM     20  O   UNL     1       5.914   3.265  15.016  0.00  0.00    +0.000 OA
ATOM     21  H   UNL     1       6.383   6.408  14.739  0.00  0.00    +0.000 HD
BRANCH  19  22
ATOM     22  C   UNL     1       7.166   4.447  13.369  0.00  0.00    +0.000 C 
BRANCH  22  23
ATOM     23  C   UNL     1       6.654   3.544  12.250  0.00  0.00    +0.000 C 
BRANCH  23  24
ATOM     24  C   UNL     1       5.364   4.058  11.604  0.00  0.00    +0.000 C 
BRANCH  24  25
ATOM     25  C   UNL     1       4.361   2.917  11.437  0.00  0.00    +0.000 C 
ATOM     26  C   UNL     1       3.210   3.300  10.524  0.00  0.00    +0.000 C 
ENDBRANCH  24  25
ENDBRANCH  23  24
ENDBRANCH  22  23
ENDBRANCH  19  22
ENDBRANCH  16  18
ENDBRANCH   7  12
BRANCH  11  27
ATOM     27  C   UNL     1       0.189  11.881  20.921  0.00  0.00    +0.000 C 
ATOM     28  N   UNL     1       0.669  12.933  20.198  0.00  0.00    +0.000 N 
ATOM     29  O   UNL     1      -0.113  12.062  22.098  0.00  0.00    +0.000 OA
ATOM     30  H   UNL     1       0.959  13.749  20.716  0.00  0.00    +0.000 HD
ATOM     31  H   UNL     1       1.194  12.729  19.345  0.00  0.00    +0.000 HD
ENDBRANCH  11  27
BRANCH   1  33
ATOM     32  C   UNL     1      -3.810   9.909  17.843  0.00  0.00    +0.000 C 
ATOM     33  C   UNL     1      -2.967  10.894  17.487  0.00  0.00    +0.000 C 
ATOM     34  C   UNL     1      -2.876  11.316  16.058  0.00  0.00    +0.000 C 
ENDBRANCH   1  33
TORSDOF 8
ENDMDL
MODEL 9
REMARK VINA RESULT:      -6.9      2.602      4.768
REMARK  Name = 
REMARK  10 active torsions:
REMARK  status: ('A' for Active; 'I' for Inactive)
REMARK    1  A    between atoms: C_2  and  C_3
REMARK    2  A    between atoms: C_2  and  C_4
REMARK    3  A    between atoms: C_10  and  C_11
REMARK    4  A    between atoms: C_15  and  N_16
REMARK    5  A    between atoms: C_17  and  C_19
REMARK    6  A    between atoms: C_19  and  C_20
REMARK    7  A    between atoms: C_20  and  C_21
REMARK    8  A    between atoms: C_21  and  C_22
REMARK    9  A    between atoms: C_22  and  C_23
REMARK   10  A    between atoms: C_28  and  C_29
REMARK                            x       y       z     vdW  Elec       q    Type
REMARK                         _______ _______ _______ _____ _____    ______ ____
ROOT
ATOM      1  C   UNL     1      -2.385  11.907  19.284  0.00  0.00    +0.000 C 
ATOM      2  O   UNL     1      -2.602  12.839  20.061  0.00  0.00    +0.000 OA
ATOM      3  N   UNL     1      -1.219  11.173  19.341  0.00  0.00    +0.000 N 
ATOM      4  C   UNL     1      -0.829  10.163  18.376  0.00  0.00    +0.000 C 
ATOM      5  C   UNL     1       0.607   9.825  18.688  0.00  0.00    +0.000 C 
ATOM      6  C   UNL     1       0.977   8.428  18.241  0.00  0.00    +0.000 C 
ATOM      7  C   UNL     1       2.347   8.719  17.750  0.00  0.00    +0.000 C 
ATOM      8  N   UNL     1       2.596   9.972  17.543  0.00  0.00    +0.000 NA
ATOM      9  O   UNL     1       1.457  10.703  17.942  0.00  0.00    +0.000 OA
ATOM     10  C   UNL     1       0.745  10.074  20.191  0.00  0.00    +0.000 C 
ATOM     11  C   UNL     1      -0.455  10.972  20.589  0.00  0.00    +0.000 C 
ENDROOT
BRANCH   7  12
ATOM     12  C   UNL     1       3.336   7.654  17.507  0.00  0.00    +0.000 A 
ATOM     13  C   UNL     1       4.490   7.873  16.748  0.00  0.00    +0.000 A 
ATOM     14  C   UNL     1       5.348   6.809  16.484  0.00  0.00    +0.000 A 
ATOM     15  C   UNL     1       5.067   5.538  16.993  0.00  0.00    +0.000 A 
ATOM     16  C   UNL     1       3.935   5.317  17.782  0.00  0.00    +0.000 A 
ATOM     17  C   UNL     1       3.067   6.381  18.025  0.00  0.00    +0.000 A 
BRANCH  16  18
ATOM     18  N   UNL     1       3.600   4.061  18.325  0.00  0.00    +0.000 N 
ATOM     19  C   UNL     1       4.409   3.261  19.100  0.00  0.00    +0.000 C 
ATOM     20  O   UNL     1       5.514   3.570  19.550  0.00  0.00    +0.000 OA
ATOM     21  H   UNL     1       2.642   3.752  18.176  0.00  0.00    +0.000 HD
BRANCH  19  22
ATOM     22  C   UNL     1       3.821   1.899  19.406  0.00  0.00    +0.000 C 
BRANCH  22  23
ATOM     23  C   UNL     1       2.299   1.862  19.295  0.00  0.00    +0.000 C 
BRANCH  23  24
ATOM     24  C   UNL     1       1.591   2.346  20.564  0.00  0.00    +0.000 C 
BRANCH  24  25
ATOM     25  C   UNL     1       0.780   3.607  20.272  0.00  0.00    +0.000 C 
ATOM     26  C   UNL     1       1.450   4.854  20.821  0.00  0.00    +0.000 C 
ENDBRANCH  24  25
ENDBRANCH  23  24
ENDBRANCH  22  23
ENDBRANCH  19  22
ENDBRANCH  16  18
ENDBRANCH   7  12
BRANCH  11  27
ATOM     27  C   UNL     1       0.015  12.133  21.504  0.00  0.00    +0.000 C 
ATOM     28  N   UNL     1      -0.779  12.405  22.578  0.00  0.00    +0.000 N 
ATOM     29  O   UNL     1       1.130  12.648  21.447  0.00  0.00    +0.000 OA
ATOM     30  H   UNL     1      -0.508  13.183  23.162  0.00  0.00    +0.000 HD
ATOM     31  H   UNL     1      -1.783  12.239  22.486  0.00  0.00    +0.000 HD
ENDBRANCH  11  27
BRANCH   1  33
ATOM     32  C   UNL     1      -3.081  11.412  17.005  0.00  0.00    +0.000 C 
ATOM     33  C   UNL     1      -3.456  11.547  18.289  0.00  0.00    +0.000 C 
ATOM     34  C   UNL     1      -4.905  11.550  18.645  0.00  0.00    +0.000 C 
ENDBRANCH   1  33
TORSDOF 8
ENDMDL
