MODEL 1
REMARK VINA RESULT:      -6.6      0.000      0.000
REMARK  Name = 
REMARK  10 active torsions:
REMARK  status: ('A' for Active; 'I' for Inactive)
REMARK    1  A    between atoms: C_1  and  O_2
REMARK    2  A    between atoms: O_2  and  C_3
REMARK    3  A    between atoms: C_3  and  C_5
REMARK    4  A    between atoms: N_7  and  C_8
REMARK    5  A    between atoms: C_9  and  C_10
REMARK    6  A    between atoms: C_12  and  C_13
REMARK    7  A    between atoms: C_15  and  C_16
REMARK    8  A    between atoms: C_17  and  N_18
REMARK    9  A    between atoms: C_19  and  C_20
REMARK   10  A    between atoms: C_22  and  C_23
REMARK                            x       y       z     vdW  Elec       q    Type
REMARK                         _______ _______ _______ _____ _____    ______ ____
ROOT
ATOM      1  C   UNL     1      -2.427  11.359  18.239  0.00  0.00    +0.000 C 
ATOM      2  C   UNL     1      -3.348  11.830  19.090  0.00  0.00    +0.000 C 
ATOM      3  N   UNL     1      -3.145  12.838  20.039  0.00  0.00    +0.000 N 
ATOM      4  C   UNL     1      -1.962  13.652  19.871  0.00  0.00    +0.000 C 
ATOM      5  C   UNL     1      -0.920  13.148  19.128  0.00  0.00    +0.000 C 
ATOM      6  C   UNL     1      -1.006  11.784  18.442  0.00  0.00    +0.000 C 
ENDROOT
BRANCH   3   7
ATOM      7  C   UNL     1      -4.115  13.023  21.117  0.00  0.00    +0.000 A 
ATOM      8  C   UNL     1      -3.815  12.675  22.476  0.00  0.00    +0.000 A 
ATOM      9  C   UNL     1      -2.526  12.087  23.010  0.00  0.00    +0.000 C 
ATOM     10  C   UNL     1      -4.801  12.821  23.486  0.00  0.00    +0.000 A 
ATOM     11  C   UNL     1      -6.092  13.248  23.205  0.00  0.00    +0.000 A 
ATOM     12  C   UNL     1      -7.147  13.356  24.262  0.00  0.00    +0.000 C 
ATOM     13  C   UNL     1      -6.405  13.566  21.893  0.00  0.00    +0.000 A 
ATOM     14  C   UNL     1      -5.453  13.488  20.854  0.00  0.00    +0.000 A 
ATOM     15  C   UNL     1      -6.017  13.894  19.510  0.00  0.00    +0.000 C 
ENDBRANCH   3   7
BRANCH   6  16
ATOM     16  C   UNL     1      -0.258  10.710  19.244  0.00  0.00    +0.000 A 
ATOM     17  C   UNL     1      -0.525  10.495  20.614  0.00  0.00    +0.000 A 
ATOM     18  C   UNL     1       0.163   9.523  21.336  0.00  0.00    +0.000 A 
ATOM     19  C   UNL     1       1.126   8.746  20.703  0.00  0.00    +0.000 A 
ATOM     20  C   UNL     1       1.385   8.926  19.346  0.00  0.00    +0.000 A 
ATOM     21  C   UNL     1       0.693   9.897  18.617  0.00  0.00    +0.000 A 
ENDBRANCH   6  16
BRANCH   4  22
ATOM     22  N   UNL     1      -1.866  14.926  20.408  0.00  0.00    +0.000 N 
ATOM     23  H   UNL     1      -1.064  15.059  21.013  0.00  0.00    +0.000 HD
ATOM     24  H   UNL     1      -1.991  15.690  19.746  0.00  0.00    +0.000 HD
ENDBRANCH   4  22
BRANCH   1  25
ATOM     25  C   UNL     1      -2.756  10.448  17.120  0.00  0.00    +0.000 C 
ATOM     26  O   UNL     1      -3.178   9.313  17.286  0.00  0.00    +0.000 OA
BRANCH  25  28
ATOM     27  C   UNL     1      -3.088  10.377  14.798  0.00  0.00    +0.000 C 
ATOM     28  O   UNL     1      -2.481  11.020  15.920  0.00  0.00    +0.000 OA
ENDBRANCH  25  28
ENDBRANCH   1  25
BRANCH   5  29
ATOM     29  C   UNL     1       0.277  13.882  18.917  0.00  0.00    +0.000 C 
ATOM     30  N   UNL     1       1.256  14.485  18.759  0.00  0.00    +0.000 NA
ENDBRANCH   5  29
TORSDOF 6
ENDMDL
MODEL 2
REMARK VINA RESULT:      -6.5      3.063      6.276
REMARK  Name = 
REMARK  10 active torsions:
REMARK  status: ('A' for Active; 'I' for Inactive)
REMARK    1  A    between atoms: C_1  and  O_2
REMARK    2  A    between atoms: O_2  and  C_3
REMARK    3  A    between atoms: C_3  and  C_5
REMARK    4  A    between atoms: N_7  and  C_8
REMARK    5  A    between atoms: C_9  and  C_10
REMARK    6  A    between atoms: C_12  and  C_13
REMARK    7  A    between atoms: C_15  and  C_16
REMARK    8  A    between atoms: C_17  and  N_18
REMARK    9  A    between atoms: C_19  and  C_20
REMARK   10  A    between atoms: C_22  and  C_23
REMARK                            x       y       z     vdW  Elec       q    Type
REMARK                         _______ _______ _______ _____ _____    ______ ____
ROOT
ATOM      1  C   UNL     1      -0.547  11.545  21.307  0.00  0.00    +0.000 C 
ATOM      2  C   UNL     1      -0.001  12.650  20.782  0.00  0.00    +0.000 C 
ATOM      3  N   UNL     1       0.021  12.984  19.423  0.00  0.00    +0.000 N 
ATOM      4  C   UNL     1      -0.888  12.257  18.566  0.00  0.00    +0.000 C 
ATOM      5  C   UNL     1      -1.360  11.038  18.996  0.00  0.00    +0.000 C 
ATOM      6  C   UNL     1      -0.989  10.468  20.366  0.00  0.00    +0.000 C 
ENDROOT
BRANCH   3   7
ATOM      7  C   UNL     1       0.926  14.031  18.950  0.00  0.00    +0.000 A 
ATOM      8  C   UNL     1       0.583  15.422  19.026  0.00  0.00    +0.000 A 
ATOM      9  C   UNL     1      -0.696  16.024  19.568  0.00  0.00    +0.000 C 
ATOM     10  C   UNL     1       1.466  16.405  18.510  0.00  0.00    +0.000 A 
ATOM     11  C   UNL     1       2.655  16.072  17.873  0.00  0.00    +0.000 A 
ATOM     12  C   UNL     1       3.564  17.107  17.285  0.00  0.00    +0.000 C 
ATOM     13  C   UNL     1       2.990  14.732  17.771  0.00  0.00    +0.000 A 
ATOM     14  C   UNL     1       2.175  13.712  18.309  0.00  0.00    +0.000 A 
ATOM     15  C   UNL     1       2.747  12.328  18.088  0.00  0.00    +0.000 C 
ENDBRANCH   3   7
BRANCH   6  16
ATOM     16  C   UNL     1       0.112   9.405  20.246  0.00  0.00    +0.000 A 
ATOM     17  C   UNL     1       1.032   9.416  19.176  0.00  0.00    +0.000 A 
ATOM     18  C   UNL     1       2.025   8.444  19.071  0.00  0.00    +0.000 A 
ATOM     19  C   UNL     1       2.117   7.447  20.035  0.00  0.00    +0.000 A 
ATOM     20  C   UNL     1       1.233   7.434  21.113  0.00  0.00    +0.000 A 
ATOM     21  C   UNL     1       0.240   8.412  21.224  0.00  0.00    +0.000 A 
ENDBRANCH   6  16
BRANCH   4  22
ATOM     22  N   UNL     1      -1.315  12.766  17.349  0.00  0.00    +0.000 N 
ATOM     23  H   UNL     1      -1.770  12.083  16.755  0.00  0.00    +0.000 HD
ATOM     24  H   UNL     1      -1.823  13.647  17.399  0.00  0.00    +0.000 HD
ENDBRANCH   4  22
BRANCH   1  25
ATOM     25  C   UNL     1      -0.726  11.351  22.763  0.00  0.00    +0.000 C 
ATOM     26  O   UNL     1      -0.274  10.391  23.369  0.00  0.00    +0.000 OA
BRANCH  25  28
ATOM     27  C   UNL     1      -2.891  12.073  23.312  0.00  0.00    +0.000 C 
ATOM     28  O   UNL     1      -1.488  12.337  23.303  0.00  0.00    +0.000 OA
ENDBRANCH  25  28
ENDBRANCH   1  25
BRANCH   5  29
ATOM     29  C   UNL     1      -2.254  10.260  18.214  0.00  0.00    +0.000 C 
ATOM     30  N   UNL     1      -2.996   9.632  17.580  0.00  0.00    +0.000 NA
ENDBRANCH   5  29
TORSDOF 6
ENDMDL
MODEL 3
REMARK VINA RESULT:      -6.5      3.137      6.128
REMARK  Name = 
REMARK  10 active torsions:
REMARK  status: ('A' for Active; 'I' for Inactive)
REMARK    1  A    between atoms: C_1  and  O_2
REMARK    2  A    between atoms: O_2  and  C_3
REMARK    3  A    between atoms: C_3  and  C_5
REMARK    4  A    between atoms: N_7  and  C_8
REMARK    5  A    between atoms: C_9  and  C_10
REMARK    6  A    between atoms: C_12  and  C_13
REMARK    7  A    between atoms: C_15  and  C_16
REMARK    8  A    between atoms: C_17  and  N_18
REMARK    9  A    between atoms: C_19  and  C_20
REMARK   10  A    between atoms: C_22  and  C_23
REMARK                            x       y       z     vdW  Elec       q    Type
REMARK                         _______ _______ _______ _____ _____    ______ ____
ROOT
ATOM      1  C   UNL     1      -0.378  11.385  21.242  0.00  0.00    +0.000 C 
ATOM      2  C   UNL     1       0.125  12.505  20.706  0.00  0.00    +0.000 C 
ATOM      3  N   UNL     1       0.066  12.862  19.354  0.00  0.00    +0.000 N 
ATOM      4  C   UNL     1      -0.881  12.138  18.538  0.00  0.00    +0.000 C 
ATOM      5  C   UNL     1      -1.315  10.907  18.972  0.00  0.00    +0.000 C 
ATOM      6  C   UNL     1      -0.862  10.319  20.309  0.00  0.00    +0.000 C 
ENDROOT
BRANCH   3   7
ATOM      7  C   UNL     1       0.933  13.926  18.850  0.00  0.00    +0.000 A 
ATOM      8  C   UNL     1       2.206  13.648  18.249  0.00  0.00    +0.000 A 
ATOM      9  C   UNL     1       2.848  12.292  18.044  0.00  0.00    +0.000 C 
ATOM     10  C   UNL     1       3.041  14.711  17.817  0.00  0.00    +0.000 A 
ATOM     11  C   UNL     1       2.696  16.044  18.000  0.00  0.00    +0.000 A 
ATOM     12  C   UNL     1       3.599  17.166  17.589  0.00  0.00    +0.000 C 
ATOM     13  C   UNL     1       1.481  16.330  18.599  0.00  0.00    +0.000 A 
ATOM     14  C   UNL     1       0.587  15.316  19.005  0.00  0.00    +0.000 A 
ATOM     15  C   UNL     1      -0.681  15.864  19.623  0.00  0.00    +0.000 C 
ENDBRANCH   3   7
BRANCH   6  16
ATOM     16  C   UNL     1       0.242   9.271  20.109  0.00  0.00    +0.000 A 
ATOM     17  C   UNL     1       0.438   8.224  21.035  0.00  0.00    +0.000 A 
ATOM     18  C   UNL     1       1.446   7.280  20.849  0.00  0.00    +0.000 A 
ATOM     19  C   UNL     1       2.272   7.364  19.734  0.00  0.00    +0.000 A 
ATOM     20  C   UNL     1       2.077   8.376  18.796  0.00  0.00    +0.000 A 
ATOM     21  C   UNL     1       1.063   9.320  18.976  0.00  0.00    +0.000 A 
ENDBRANCH   6  16
BRANCH   4  22
ATOM     22  N   UNL     1      -1.382  12.663  17.356  0.00  0.00    +0.000 N 
ATOM     23  H   UNL     1      -2.343  12.975  17.419  0.00  0.00    +0.000 HD
ATOM     24  H   UNL     1      -0.778  13.336  16.886  0.00  0.00    +0.000 HD
ENDBRANCH   4  22
BRANCH   1  25
ATOM     25  C   UNL     1      -0.473  11.165  22.702  0.00  0.00    +0.000 C 
ATOM     26  O   UNL     1       0.004  10.189  23.262  0.00  0.00    +0.000 OA
BRANCH  25  28
ATOM     27  C   UNL     1      -2.607  12.027  23.164  0.00  0.00    +0.000 C 
ATOM     28  O   UNL     1      -1.191  12.147  23.305  0.00  0.00    +0.000 OA
ENDBRANCH  25  28
ENDBRANCH   1  25
BRANCH   5  29
ATOM     29  C   UNL     1      -2.244  10.132  18.228  0.00  0.00    +0.000 C 
ATOM     30  N   UNL     1      -3.003   9.489  17.631  0.00  0.00    +0.000 NA
ENDBRANCH   5  29
TORSDOF 6
ENDMDL
MODEL 4
REMARK VINA RESULT:      -6.5      3.359      6.205
REMARK  Name = 
REMARK  10 active torsions:
REMARK  status: ('A' for Active; 'I' for Inactive)
REMARK    1  A    between atoms: C_1  and  O_2
REMARK    2  A    between atoms: O_2  and  C_3
REMARK    3  A    between atoms: C_3  and  C_5
REMARK    4  A    between atoms: N_7  and  C_8
REMARK    5  A    between atoms: C_9  and  C_10
REMARK    6  A    between atoms: C_12  and  C_13
REMARK    7  A    between atoms: C_15  and  C_16
REMARK    8  A    between atoms: C_17  and  N_18
REMARK    9  A    between atoms: C_19  and  C_20
REMARK   10  A    between atoms: C_22  and  C_23
REMARK                            x       y       z     vdW  Elec       q    Type
REMARK                         _______ _______ _______ _____ _____    ______ ____
ROOT
ATOM      1  C   UNL     1       0.046  10.796  21.046  0.00  0.00    +0.000 C 
ATOM      2  C   UNL     1       0.444  12.028  20.700  0.00  0.00    +0.000 C 
ATOM      3  N   UNL     1       0.254  12.627  19.449  0.00  0.00    +0.000 N 
ATOM      4  C   UNL     1      -0.719  12.006  18.579  0.00  0.00    +0.000 C 
ATOM      5  C   UNL     1      -1.050  10.689  18.799  0.00  0.00    +0.000 C 
ATOM      6  C   UNL     1      -0.456   9.893  19.962  0.00  0.00    +0.000 C 
ENDROOT
BRANCH   3   7
ATOM      7  C   UNL     1       1.017  13.823  19.097  0.00  0.00    +0.000 A 
ATOM      8  C   UNL     1       0.537  15.143  19.390  0.00  0.00    +0.000 A 
ATOM      9  C   UNL     1      -0.764  15.518  20.067  0.00  0.00    +0.000 C 
ATOM     10  C   UNL     1       1.283  16.281  18.987  0.00  0.00    +0.000 A 
ATOM     11  C   UNL     1       2.462  16.175  18.259  0.00  0.00    +0.000 A 
ATOM     12  C   UNL     1       3.223  17.376  17.792  0.00  0.00    +0.000 C 
ATOM     13  C   UNL     1       2.927  14.907  17.948  0.00  0.00    +0.000 A 
ATOM     14  C   UNL     1       2.254  13.738  18.364  0.00  0.00    +0.000 A 
ATOM     15  C   UNL     1       2.952  12.470  17.920  0.00  0.00    +0.000 C 
ENDBRANCH   3   7
BRANCH   6  16
ATOM     16  C   UNL     1       0.680   8.978  19.486  0.00  0.00    +0.000 A 
ATOM     17  C   UNL     1       1.146   7.908  20.281  0.00  0.00    +0.000 A 
ATOM     18  C   UNL     1       2.182   7.086  19.845  0.00  0.00    +0.000 A 
ATOM     19  C   UNL     1       2.769   7.316  18.606  0.00  0.00    +0.000 A 
ATOM     20  C   UNL     1       2.306   8.352  17.796  0.00  0.00    +0.000 A 
ATOM     21  C   UNL     1       1.262   9.174  18.228  0.00  0.00    +0.000 A 
ENDBRANCH   6  16
BRANCH   4  22
ATOM     22  N   UNL     1      -1.343  12.707  17.558  0.00  0.00    +0.000 N 
ATOM     23  H   UNL     1      -1.077  13.683  17.507  0.00  0.00    +0.000 HD
ATOM     24  H   UNL     1      -1.340  12.250  16.648  0.00  0.00    +0.000 HD
ENDBRANCH   4  22
BRANCH   1  25
ATOM     25  C   UNL     1       0.085  10.300  22.439  0.00  0.00    +0.000 C 
ATOM     26  O   UNL     1       1.108   9.907  22.980  0.00  0.00    +0.000 OA
BRANCH  25  28
ATOM     27  C   UNL     1      -1.729  11.589  23.189  0.00  0.00    +0.000 C 
ATOM     28  O   UNL     1      -1.154  10.296  22.997  0.00  0.00    +0.000 OA
ENDBRANCH  25  28
ENDBRANCH   1  25
BRANCH   5  29
ATOM     29  C   UNL     1      -1.995  10.006  17.989  0.00  0.00    +0.000 C 
ATOM     30  N   UNL     1      -2.768   9.437  17.337  0.00  0.00    +0.000 NA
ENDBRANCH   5  29
TORSDOF 6
ENDMDL
MODEL 5
REMARK VINA RESULT:      -6.5      0.692      1.820
REMARK  Name = 
REMARK  10 active torsions:
REMARK  status: ('A' for Active; 'I' for Inactive)
REMARK    1  A    between atoms: C_1  and  O_2
REMARK    2  A    between atoms: O_2  and  C_3
REMARK    3  A    between atoms: C_3  and  C_5
REMARK    4  A    between atoms: N_7  and  C_8
REMARK    5  A    between atoms: C_9  and  C_10
REMARK    6  A    between atoms: C_12  and  C_13
REMARK    7  A    between atoms: C_15  and  C_16
REMARK    8  A    between atoms: C_17  and  N_18
REMARK    9  A    between atoms: C_19  and  C_20
REMARK   10  A    between atoms: C_22  and  C_23
REMARK                            x       y       z     vdW  Elec       q    Type
REMARK                         _______ _______ _______ _____ _____    ______ ____
ROOT
ATOM      1  C   UNL     1      -2.544  11.509  18.738  0.00  0.00    +0.000 C 
ATOM      2  C   UNL     1      -3.564  11.975  19.473  0.00  0.00    +0.000 C 
ATOM      3  N   UNL     1      -3.487  13.005  20.417  0.00  0.00    +0.000 N 
ATOM      4  C   UNL     1      -2.309  13.841  20.364  0.00  0.00    +0.000 C 
ATOM      5  C   UNL     1      -1.181  13.346  19.752  0.00  0.00    +0.000 C 
ATOM      6  C   UNL     1      -1.163  11.968  19.089  0.00  0.00    +0.000 C 
ENDROOT
BRANCH   3   7
ATOM      7  C   UNL     1      -4.574  13.188  21.377  0.00  0.00    +0.000 A 
ATOM      8  C   UNL     1      -5.825  13.784  21.002  0.00  0.00    +0.000 A 
ATOM      9  C   UNL     1      -6.222  14.303  19.637  0.00  0.00    +0.000 C 
ATOM     10  C   UNL     1      -6.838  13.991  21.974  0.00  0.00    +0.000 A 
ATOM     11  C   UNL     1      -6.652  13.682  23.316  0.00  0.00    +0.000 A 
ATOM     12  C   UNL     1      -7.702  13.946  24.350  0.00  0.00    +0.000 C 
ATOM     13  C   UNL     1      -5.441  13.128  23.698  0.00  0.00    +0.000 A 
ATOM     14  C   UNL     1      -4.414  12.853  22.769  0.00  0.00    +0.000 A 
ATOM     15  C   UNL     1      -3.190  12.238  23.412  0.00  0.00    +0.000 C 
ENDBRANCH   3   7
BRANCH   6  16
ATOM     16  C   UNL     1      -0.488  10.926  19.991  0.00  0.00    +0.000 A 
ATOM     17  C   UNL     1      -0.724  10.894  21.382  0.00  0.00    +0.000 A 
ATOM     18  C   UNL     1      -0.102   9.949  22.195  0.00  0.00    +0.000 A 
ATOM     19  C   UNL     1       0.763   9.018  21.632  0.00  0.00    +0.000 A 
ATOM     20  C   UNL     1       0.988   9.018  20.256  0.00  0.00    +0.000 A 
ATOM     21  C   UNL     1       0.361   9.961  19.438  0.00  0.00    +0.000 A 
ENDBRANCH   6  16
BRANCH   4  22
ATOM     22  N   UNL     1      -2.299  15.127  20.882  0.00  0.00    +0.000 N 
ATOM     23  H   UNL     1      -2.004  15.835  20.221  0.00  0.00    +0.000 HD
ATOM     24  H   UNL     1      -3.133  15.396  21.402  0.00  0.00    +0.000 HD
ENDBRANCH   4  22
BRANCH   1  25
ATOM     25  C   UNL     1      -2.730  10.571  17.610  0.00  0.00    +0.000 C 
ATOM     26  O   UNL     1      -3.191   9.447  17.745  0.00  0.00    +0.000 OA
BRANCH  25  28
ATOM     27  C   UNL     1      -3.012  10.714  15.284  0.00  0.00    +0.000 C 
ATOM     28  O   UNL     1      -2.278  11.103  16.445  0.00  0.00    +0.000 OA
ENDBRANCH  25  28
ENDBRANCH   1  25
BRANCH   5  29
ATOM     29  C   UNL     1       0.017  14.103  19.659  0.00  0.00    +0.000 C 
ATOM     30  N   UNL     1       0.991  14.730  19.594  0.00  0.00    +0.000 NA
ENDBRANCH   5  29
TORSDOF 6
ENDMDL
MODEL 6
REMARK VINA RESULT:      -6.4      0.996      1.245
REMARK  Name = 
REMARK  10 active torsions:
REMARK  status: ('A' for Active; 'I' for Inactive)
REMARK    1  A    between atoms: C_1  and  O_2
REMARK    2  A    between atoms: O_2  and  C_3
REMARK    3  A    between atoms: C_3  and  C_5
REMARK    4  A    between atoms: N_7  and  C_8
REMARK    5  A    between atoms: C_9  and  C_10
REMARK    6  A    between atoms: C_12  and  C_13
REMARK    7  A    between atoms: C_15  and  C_16
REMARK    8  A    between atoms: C_17  and  N_18
REMARK    9  A    between atoms: C_19  and  C_20
REMARK   10  A    between atoms: C_22  and  C_23
REMARK                            x       y       z     vdW  Elec       q    Type
REMARK                         _______ _______ _______ _____ _____    ______ ____
ROOT
ATOM      1  C   UNL     1      -1.878  11.114  18.154  0.00  0.00    +0.000 C 
ATOM      2  C   UNL     1      -2.591  11.548  19.203  0.00  0.00    +0.000 C 
ATOM      3  N   UNL     1      -2.143  12.444  20.181  0.00  0.00    +0.000 N 
ATOM      4  C   UNL     1      -0.954  13.202  19.864  0.00  0.00    +0.000 C 
ATOM      5  C   UNL     1      -0.106  12.716  18.896  0.00  0.00    +0.000 C 
ATOM      6  C   UNL     1      -0.417  11.435  18.122  0.00  0.00    +0.000 C 
ENDROOT
BRANCH   3   7
ATOM      7  C   UNL     1      -2.884  12.574  21.435  0.00  0.00    +0.000 A 
ATOM      8  C   UNL     1      -2.376  12.056  22.673  0.00  0.00    +0.000 A 
ATOM      9  C   UNL     1      -1.070  11.324  22.895  0.00  0.00    +0.000 C 
ATOM     10  C   UNL     1      -3.147  12.157  23.860  0.00  0.00    +0.000 A 
ATOM     11  C   UNL     1      -4.425  12.702  23.869  0.00  0.00    +0.000 A 
ATOM     12  C   UNL     1      -5.258  12.764  25.111  0.00  0.00    +0.000 C 
ATOM     13  C   UNL     1      -4.939  13.185  22.677  0.00  0.00    +0.000 A 
ATOM     14  C   UNL     1      -4.200  13.157  21.474  0.00  0.00    +0.000 A 
ATOM     15  C   UNL     1      -4.958  13.749  20.306  0.00  0.00    +0.000 C 
ENDBRANCH   3   7
BRANCH   6  16
ATOM     16  C   UNL     1       0.384  10.246  18.671  0.00  0.00    +0.000 A 
ATOM     17  C   UNL     1       0.249   9.824  20.011  0.00  0.00    +0.000 A 
ATOM     18  C   UNL     1       0.984   8.748  20.503  0.00  0.00    +0.000 A 
ATOM     19  C   UNL     1       1.862   8.072  19.665  0.00  0.00    +0.000 A 
ATOM     20  C   UNL     1       1.990   8.458  18.331  0.00  0.00    +0.000 A 
ATOM     21  C   UNL     1       1.250   9.533  17.833  0.00  0.00    +0.000 A 
ENDBRANCH   6  16
BRANCH   4  22
ATOM     22  N   UNL     1      -0.667  14.409  20.483  0.00  0.00    +0.000 N 
ATOM     23  H   UNL     1      -1.360  14.697  21.164  0.00  0.00    +0.000 HD
ATOM     24  H   UNL     1       0.287  14.508  20.825  0.00  0.00    +0.000 HD
ENDBRANCH   4  22
BRANCH   1  25
ATOM     25  C   UNL     1      -2.474  10.340  17.043  0.00  0.00    +0.000 C 
ATOM     26  O   UNL     1      -2.964   9.230  17.190  0.00  0.00    +0.000 OA
BRANCH  25  28
ATOM     27  C   UNL     1      -3.081  10.420  14.777  0.00  0.00    +0.000 C 
ATOM     28  O   UNL     1      -2.353  10.998  15.861  0.00  0.00    +0.000 OA
ENDBRANCH  25  28
ENDBRANCH   1  25
BRANCH   5  29
ATOM     29  C   UNL     1       1.083  13.400  18.527  0.00  0.00    +0.000 C 
ATOM     30  N   UNL     1       2.056  13.949  18.214  0.00  0.00    +0.000 NA
ENDBRANCH   5  29
TORSDOF 6
ENDMDL
MODEL 7
REMARK VINA RESULT:      -6.4      3.402      6.220
REMARK  Name = 
REMARK  10 active torsions:
REMARK  status: ('A' for Active; 'I' for Inactive)
REMARK    1  A    between atoms: C_1  and  O_2
REMARK    2  A    between atoms: O_2  and  C_3
REMARK    3  A    between atoms: C_3  and  C_5
REMARK    4  A    between atoms: N_7  and  C_8
REMARK    5  A    between atoms: C_9  and  C_10
REMARK    6  A    between atoms: C_12  and  C_13
REMARK    7  A    between atoms: C_15  and  C_16
REMARK    8  A    between atoms: C_17  and  N_18
REMARK    9  A    between atoms: C_19  and  C_20
REMARK   10  A    between atoms: C_22  and  C_23
REMARK                            x       y       z     vdW  Elec       q    Type
REMARK                         _______ _______ _______ _____ _____    ______ ____
ROOT
ATOM      1  C   UNL     1       0.118  10.755  21.169  0.00  0.00    +0.000 C 
ATOM      2  C   UNL     1       0.570  11.984  20.884  0.00  0.00    +0.000 C 
ATOM      3  N   UNL     1       0.433  12.640  19.655  0.00  0.00    +0.000 N 
ATOM      4  C   UNL     1      -0.540  12.094  18.737  0.00  0.00    +0.000 C 
ATOM      5  C   UNL     1      -0.926  10.782  18.895  0.00  0.00    +0.000 C 
ATOM      6  C   UNL     1      -0.391   9.918  20.038  0.00  0.00    +0.000 C 
ENDROOT
BRANCH   3   7
ATOM      7  C   UNL     1       1.250  13.819  19.371  0.00  0.00    +0.000 A 
ATOM      8  C   UNL     1       2.433  13.746  18.562  0.00  0.00    +0.000 A 
ATOM      9  C   UNL     1       3.019  12.516  17.902  0.00  0.00    +0.000 C 
ATOM     10  C   UNL     1       3.227  14.902  18.351  0.00  0.00    +0.000 A 
ATOM     11  C   UNL     1       2.933  16.123  18.947  0.00  0.00    +0.000 A 
ATOM     12  C   UNL     1       3.798  17.330  18.763  0.00  0.00    +0.000 C 
ATOM     13  C   UNL     1       1.807  16.204  19.749  0.00  0.00    +0.000 A 
ATOM     14  C   UNL     1       0.951  15.100  19.957  0.00  0.00    +0.000 A 
ATOM     15  C   UNL     1      -0.220  15.428  20.858  0.00  0.00    +0.000 C 
ENDBRANCH   3   7
BRANCH   6  16
ATOM     16  C   UNL     1       0.722   8.979  19.551  0.00  0.00    +0.000 A 
ATOM     17  C   UNL     1       1.352   9.171  18.302  0.00  0.00    +0.000 A 
ATOM     18  C   UNL     1       2.357   8.311  17.865  0.00  0.00    +0.000 A 
ATOM     19  C   UNL     1       2.753   7.248  18.668  0.00  0.00    +0.000 A 
ATOM     20  C   UNL     1       2.160   7.058  19.915  0.00  0.00    +0.000 A 
ATOM     21  C   UNL     1       1.156   7.922  20.359  0.00  0.00    +0.000 A 
ENDBRANCH   6  16
BRANCH   4  22
ATOM     22  N   UNL     1      -1.113  12.859  17.733  0.00  0.00    +0.000 N 
ATOM     23  H   UNL     1      -1.201  13.841  17.964  0.00  0.00    +0.000 HD
ATOM     24  H   UNL     1      -0.736  12.706  16.799  0.00  0.00    +0.000 HD
ENDBRANCH   4  22
BRANCH   1  25
ATOM     25  C   UNL     1       0.104  10.203  22.541  0.00  0.00    +0.000 C 
ATOM     26  O   UNL     1       1.110   9.814  23.115  0.00  0.00    +0.000 OA
BRANCH  25  28
ATOM     27  C   UNL     1      -1.768  11.412  23.280  0.00  0.00    +0.000 C 
ATOM     28  O   UNL     1      -1.159  10.143  23.037  0.00  0.00    +0.000 OA
ENDBRANCH  25  28
ENDBRANCH   1  25
BRANCH   5  29
ATOM     29  C   UNL     1      -1.875  10.169  18.036  0.00  0.00    +0.000 C 
ATOM     30  N   UNL     1      -2.653   9.681  17.326  0.00  0.00    +0.000 NA
ENDBRANCH   5  29
TORSDOF 6
ENDMDL
MODEL 8
REMARK VINA RESULT:      -6.3      1.434      1.986
REMARK  Name = 
REMARK  10 active torsions:
REMARK  status: ('A' for Active; 'I' for Inactive)
REMARK    1  A    between atoms: C_1  and  O_2
REMARK    2  A    between atoms: O_2  and  C_3
REMARK    3  A    between atoms: C_3  and  C_5
REMARK    4  A    between atoms: N_7  and  C_8
REMARK    5  A    between atoms: C_9  and  C_10
REMARK    6  A    between atoms: C_12  and  C_13
REMARK    7  A    between atoms: C_15  and  C_16
REMARK    8  A    between atoms: C_17  and  N_18
REMARK    9  A    between atoms: C_19  and  C_20
REMARK   10  A    between atoms: C_22  and  C_23
REMARK                            x       y       z     vdW  Elec       q    Type
REMARK                         _______ _______ _______ _____ _____    ______ ____
ROOT
ATOM      1  C   UNL     1      -1.362  11.130  18.154  0.00  0.00    +0.000 C 
ATOM      2  C   UNL     1      -2.075  11.547  19.209  0.00  0.00    +0.000 C 
ATOM      3  N   UNL     1      -1.595  12.340  20.258  0.00  0.00    +0.000 N 
ATOM      4  C   UNL     1      -0.343  13.024  20.028  0.00  0.00    +0.000 C 
ATOM      5  C   UNL     1       0.499  12.540  19.053  0.00  0.00    +0.000 C 
ATOM      6  C   UNL     1       0.120  11.340  18.185  0.00  0.00    +0.000 C 
ENDROOT
BRANCH   3   7
ATOM      7  C   UNL     1      -2.366  12.443  21.496  0.00  0.00    +0.000 A 
ATOM      8  C   UNL     1      -1.970  11.761  22.695  0.00  0.00    +0.000 A 
ATOM      9  C   UNL     1      -0.766  10.863  22.887  0.00  0.00    +0.000 C 
ATOM     10  C   UNL     1      -2.772  11.845  23.863  0.00  0.00    +0.000 A 
ATOM     11  C   UNL     1      -3.979  12.533  23.886  0.00  0.00    +0.000 A 
ATOM     12  C   UNL     1      -4.849  12.581  25.103  0.00  0.00    +0.000 C 
ATOM     13  C   UNL     1      -4.386  13.178  22.729  0.00  0.00    +0.000 A 
ATOM     14  C   UNL     1      -3.607  13.171  21.551  0.00  0.00    +0.000 A 
ATOM     15  C   UNL     1      -4.245  13.950  20.422  0.00  0.00    +0.000 C 
ENDBRANCH   3   7
BRANCH   6  16
ATOM     16  C   UNL     1       0.811  10.060  18.674  0.00  0.00    +0.000 A 
ATOM     17  C   UNL     1       1.606   9.276  17.811  0.00  0.00    +0.000 A 
ATOM     18  C   UNL     1       2.224   8.112  18.261  0.00  0.00    +0.000 A 
ATOM     19  C   UNL     1       2.063   7.713  19.583  0.00  0.00    +0.000 A 
ATOM     20  C   UNL     1       1.303   8.488  20.457  0.00  0.00    +0.000 A 
ATOM     21  C   UNL     1       0.687   9.659  20.010  0.00  0.00    +0.000 A 
ENDBRANCH   6  16
BRANCH   4  22
ATOM     22  N   UNL     1       0.012  14.162  20.735  0.00  0.00    +0.000 N 
ATOM     23  H   UNL     1       0.891  14.081  21.231  0.00  0.00    +0.000 HD
ATOM     24  H   UNL     1      -0.074  15.039  20.224  0.00  0.00    +0.000 HD
ENDBRANCH   4  22
BRANCH   1  25
ATOM     25  C   UNL     1      -1.975  10.478  16.976  0.00  0.00    +0.000 C 
ATOM     26  O   UNL     1      -1.811   9.297  16.706  0.00  0.00    +0.000 OA
BRANCH  25  28
ATOM     27  C   UNL     1      -4.101  11.235  16.332  0.00  0.00    +0.000 C 
ATOM     28  O   UNL     1      -2.683  11.366  16.232  0.00  0.00    +0.000 OA
ENDBRANCH  25  28
ENDBRANCH   1  25
BRANCH   5  29
ATOM     29  C   UNL     1       1.747  13.153  18.766  0.00  0.00    +0.000 C 
ATOM     30  N   UNL     1       2.774  13.641  18.532  0.00  0.00    +0.000 NA
ENDBRANCH   5  29
TORSDOF 6
ENDMDL
MODEL 9
REMARK VINA RESULT:      -6.2      2.805      7.044
REMARK  Name = 
REMARK  10 active torsions:
REMARK  status: ('A' for Active; 'I' for Inactive)
REMARK    1  A    between atoms: C_1  and  O_2
REMARK    2  A    between atoms: O_2  and  C_3
REMARK    3  A    between atoms: C_3  and  C_5
REMARK    4  A    between atoms: N_7  and  C_8
REMARK    5  A    between atoms: C_9  and  C_10
REMARK    6  A    between atoms: C_12  and  C_13
REMARK    7  A    between atoms: C_15  and  C_16
REMARK    8  A    between atoms: C_17  and  N_18
REMARK    9  A    between atoms: C_19  and  C_20
REMARK   10  A    between atoms: C_22  and  C_23
REMARK                            x       y       z     vdW  Elec       q    Type
REMARK                         _______ _______ _______ _____ _____    ______ ____
ROOT
ATOM      1  C   UNL     1       0.272  12.587  20.028  0.00  0.00    +0.000 C 
ATOM      2  C   UNL     1       0.910  11.413  19.925  0.00  0.00    +0.000 C 
ATOM      3  N   UNL     1       0.367  10.230  19.409  0.00  0.00    +0.000 N 
ATOM      4  C   UNL     1      -0.848  10.362  18.638  0.00  0.00    +0.000 C 
ATOM      5  C   UNL     1      -1.622  11.485  18.820  0.00  0.00    +0.000 C 
ATOM      6  C   UNL     1      -1.203  12.606  19.772  0.00  0.00    +0.000 C 
ENDROOT
BRANCH   3   7
ATOM      7  C   UNL     1       1.041   8.957  19.659  0.00  0.00    +0.000 A 
ATOM      8  C   UNL     1       1.978   8.399  18.726  0.00  0.00    +0.000 A 
ATOM      9  C   UNL     1       2.410   8.983  17.398  0.00  0.00    +0.000 C 
ATOM     10  C   UNL     1       2.573   7.136  18.980  0.00  0.00    +0.000 A 
ATOM     11  C   UNL     1       2.245   6.372  20.092  0.00  0.00    +0.000 A 
ATOM     12  C   UNL     1       2.836   5.018  20.335  0.00  0.00    +0.000 C 
ATOM     13  C   UNL     1       1.324   6.886  20.990  0.00  0.00    +0.000 A 
ATOM     14  C   UNL     1       0.735   8.158  20.817  0.00  0.00    +0.000 A 
ATOM     15  C   UNL     1      -0.229   8.514  21.928  0.00  0.00    +0.000 C 
ENDBRANCH   3   7
BRANCH   6  16
ATOM     16  C   UNL     1      -1.958  12.514  21.105  0.00  0.00    +0.000 A 
ATOM     17  C   UNL     1      -1.435  11.790  22.199  0.00  0.00    +0.000 A 
ATOM     18  C   UNL     1      -2.129  11.706  23.404  0.00  0.00    +0.000 A 
ATOM     19  C   UNL     1      -3.356  12.347  23.538  0.00  0.00    +0.000 A 
ATOM     20  C   UNL     1      -3.876  13.087  22.478  0.00  0.00    +0.000 A 
ATOM     21  C   UNL     1      -3.179  13.178  21.270  0.00  0.00    +0.000 A 
ENDBRANCH   6  16
BRANCH   4  22
ATOM     22  N   UNL     1      -1.231   9.410  17.706  0.00  0.00    +0.000 N 
ATOM     23  H   UNL     1      -0.811   9.535  16.793  0.00  0.00    +0.000 HD
ATOM     24  H   UNL     1      -1.196   8.444  18.027  0.00  0.00    +0.000 HD
ENDBRANCH   4  22
BRANCH   1  25
ATOM     25  C   UNL     1       0.961  13.848  20.381  0.00  0.00    +0.000 C 
ATOM     26  O   UNL     1       0.815  14.886  19.753  0.00  0.00    +0.000 OA
BRANCH  25  28
ATOM     27  C   UNL     1       3.119  14.169  21.245  0.00  0.00    +0.000 C 
ATOM     28  O   UNL     1       1.793  13.677  21.440  0.00  0.00    +0.000 OA
ENDBRANCH  25  28
ENDBRANCH   1  25
BRANCH   5  29
ATOM     29  C   UNL     1      -2.830  11.689  18.103  0.00  0.00    +0.000 C 
ATOM     30  N   UNL     1      -3.813  11.847  17.506  0.00  0.00    +0.000 NA
ENDBRANCH   5  29
TORSDOF 6
ENDMDL
