MODEL 1
REMARK VINA RESULT:      -7.9      0.000      0.000
REMARK  Name = 
REMARK  4 active torsions:
REMARK  status: ('A' for Active; 'I' for Inactive)
REMARK    1  A    between atoms: C_1  and  O_2
REMARK    2  A    between atoms: O_2  and  C_3
REMARK    3  A    between atoms: C_11  and  O_12
REMARK    4  A    between atoms: N_18  and  C_19
REMARK                            x       y       z     vdW  Elec       q    Type
REMARK                         _______ _______ _______ _____ _____    ______ ____
ROOT
ATOM      1  C   UNL     1       2.450   7.993  18.236  0.00  0.00    +0.000 A 
ATOM      2  C   UNL     1       1.962   7.792  19.519  0.00  0.00    +0.000 A 
ATOM      3  C   UNL     1       2.351   6.645  20.193  0.00  0.00    +0.000 A 
ATOM      4  C   UNL     1       3.224   5.686  19.602  0.00  0.00    +0.000 A 
ATOM      5  C   UNL     1       3.798   5.947  18.374  0.00  0.00    +0.000 A 
ATOM      6  C   UNL     1       3.512   7.104  17.743  0.00  0.00    +0.000 A 
ATOM      7  O   UNL     1       4.532   7.278  16.761  0.00  0.00    +0.000 OA
ATOM      8  C   UNL     1       5.484   6.157  16.770  0.00  0.00    +0.000 C 
ATOM      9  C   UNL     1       6.999   6.169  17.188  0.00  0.00    +0.000 C 
ATOM     10  C   UNL     1       7.250   5.916  18.644  0.00  0.00    +0.000 C 
ATOM     11  C   UNL     1       6.545   4.954  19.268  0.00  0.00    +0.000 C 
ATOM     12  C   UNL     1       5.488   4.179  18.485  0.00  0.00    +0.000 C 
ATOM     13  C   UNL     1       4.356   3.440  19.274  0.00  0.00    +0.000 C 
ATOM     14  C   UNL     1       3.616   4.409  20.258  0.00  0.00    +0.000 C 
ATOM     15  N   UNL     1       3.492   2.698  18.288  0.00  0.00    +0.000 NA
ATOM     16  C   UNL     1       2.380   1.994  18.914  0.00  0.00    +0.000 C 
ATOM     17  C   UNL     1       2.932   3.470  17.164  0.00  0.00    +0.000 C 
ATOM     18  C   UNL     1       3.971   4.317  16.487  0.00  0.00    +0.000 C 
ATOM     19  C   UNL     1       4.730   5.110  17.545  0.00  0.00    +0.000 C 
ENDROOT
BRANCH   1  21
ATOM     20  C   UNL     1       0.738   9.766  17.852  0.00  0.00    +0.000 C 
ATOM     21  O   UNL     1       1.827   8.925  17.416  0.00  0.00    +0.000 OA
ENDBRANCH   1  21
BRANCH   9  22
ATOM     22  O   UNL     1       7.780   7.247  16.721  0.00  0.00    +0.000 OA
ATOM     23  H   UNL     1       8.466   7.305  17.411  0.00  0.00    +0.000 HD
ENDBRANCH   9  22
TORSDOF 2
ENDMDL
MODEL 2
REMARK VINA RESULT:      -7.9      2.346      4.209
REMARK  Name = 
REMARK  4 active torsions:
REMARK  status: ('A' for Active; 'I' for Inactive)
REMARK    1  A    between atoms: C_1  and  O_2
REMARK    2  A    between atoms: O_2  and  C_3
REMARK    3  A    between atoms: C_11  and  O_12
REMARK    4  A    between atoms: N_18  and  C_19
REMARK                            x       y       z     vdW  Elec       q    Type
REMARK                         _______ _______ _______ _____ _____    ______ ____
ROOT
ATOM      1  C   UNL     1       2.058   7.254  19.920  0.00  0.00    +0.000 A 
ATOM      2  C   UNL     1       2.061   8.207  18.912  0.00  0.00    +0.000 A 
ATOM      3  C   UNL     1       2.860   7.981  17.802  0.00  0.00    +0.000 A 
ATOM      4  C   UNL     1       3.665   6.811  17.682  0.00  0.00    +0.000 A 
ATOM      5  C   UNL     1       3.570   5.814  18.632  0.00  0.00    +0.000 A 
ATOM      6  C   UNL     1       2.723   5.967  19.670  0.00  0.00    +0.000 A 
ATOM      7  O   UNL     1       2.528   4.663  20.215  0.00  0.00    +0.000 OA
ATOM      8  C   UNL     1       3.316   3.655  19.490  0.00  0.00    +0.000 C 
ATOM      9  C   UNL     1       2.797   2.481  18.583  0.00  0.00    +0.000 C 
ATOM     10  C   UNL     1       2.608   2.840  17.140  0.00  0.00    +0.000 C 
ATOM     11  C   UNL     1       3.540   3.596  16.531  0.00  0.00    +0.000 C 
ATOM     12  C   UNL     1       4.738   4.095  17.336  0.00  0.00    +0.000 C 
ATOM     13  C   UNL     1       5.535   5.336  16.811  0.00  0.00    +0.000 C 
ATOM     14  C   UNL     1       4.589   6.555  16.545  0.00  0.00    +0.000 C 
ATOM     15  N   UNL     1       6.700   5.581  17.735  0.00  0.00    +0.000 NA
ATOM     16  C   UNL     1       7.500   6.738  17.357  0.00  0.00    +0.000 C 
ATOM     17  C   UNL     1       6.406   5.714  19.174  0.00  0.00    +0.000 C 
ATOM     18  C   UNL     1       5.505   4.620  19.670  0.00  0.00    +0.000 C 
ATOM     19  C   UNL     1       4.304   4.508  18.739  0.00  0.00    +0.000 C 
ENDROOT
BRANCH   1  21
ATOM     20  C   UNL     1       1.115   8.927  21.512  0.00  0.00    +0.000 C 
ATOM     21  O   UNL     1       1.557   7.597  21.169  0.00  0.00    +0.000 OA
ENDBRANCH   1  21
BRANCH   9  22
ATOM     22  O   UNL     1       1.698   1.741  19.067  0.00  0.00    +0.000 OA
ATOM     23  H   UNL     1       1.371   1.319  18.251  0.00  0.00    +0.000 HD
ENDBRANCH   9  22
TORSDOF 2
ENDMDL
MODEL 3
REMARK VINA RESULT:      -7.4      1.038      1.148
REMARK  Name = 
REMARK  4 active torsions:
REMARK  status: ('A' for Active; 'I' for Inactive)
REMARK    1  A    between atoms: C_1  and  O_2
REMARK    2  A    between atoms: O_2  and  C_3
REMARK    3  A    between atoms: C_11  and  O_12
REMARK    4  A    between atoms: N_18  and  C_19
REMARK                            x       y       z     vdW  Elec       q    Type
REMARK                         _______ _______ _______ _____ _____    ______ ____
ROOT
ATOM      1  C   UNL     1       1.914   8.400  18.681  0.00  0.00    +0.000 A 
ATOM      2  C   UNL     1       1.523   8.345  20.011  0.00  0.00    +0.000 A 
ATOM      3  C   UNL     1       1.784   7.184  20.721  0.00  0.00    +0.000 A 
ATOM      4  C   UNL     1       2.431   6.065  20.119  0.00  0.00    +0.000 A 
ATOM      5  C   UNL     1       2.920   6.167  18.833  0.00  0.00    +0.000 A 
ATOM      6  C   UNL     1       2.766   7.323  18.156  0.00  0.00    +0.000 A 
ATOM      7  O   UNL     1       3.703   7.278  17.082  0.00  0.00    +0.000 OA
ATOM      8  C   UNL     1       4.458   6.015  17.080  0.00  0.00    +0.000 C 
ATOM      9  C   UNL     1       5.987   5.794  17.365  0.00  0.00    +0.000 C 
ATOM     10  C   UNL     1       6.332   5.574  18.808  0.00  0.00    +0.000 C 
ATOM     11  C   UNL     1       5.543   4.774  19.549  0.00  0.00    +0.000 C 
ATOM     12  C   UNL     1       4.304   4.149  18.910  0.00  0.00    +0.000 C 
ATOM     13  C   UNL     1       3.148   3.648  19.838  0.00  0.00    +0.000 C 
ATOM     14  C   UNL     1       2.671   4.774  20.819  0.00  0.00    +0.000 C 
ATOM     15  N   UNL     1       2.085   3.014  18.979  0.00  0.00    +0.000 NA
ATOM     16  C   UNL     1       0.939   2.537  19.741  0.00  0.00    +0.000 C 
ATOM     17  C   UNL     1       1.554   3.813  17.860  0.00  0.00    +0.000 C 
ATOM     18  C   UNL     1       2.647   4.441  17.045  0.00  0.00    +0.000 C 
ATOM     19  C   UNL     1       3.621   5.147  17.981  0.00  0.00    +0.000 C 
ENDROOT
BRANCH   1  21
ATOM     20  C   UNL     1       0.143  10.075  18.153  0.00  0.00    +0.000 C 
ATOM     21  O   UNL     1       1.375   9.382  17.861  0.00  0.00    +0.000 OA
ENDBRANCH   1  21
BRANCH   9  22
ATOM     22  O   UNL     1       6.884   6.703  16.766  0.00  0.00    +0.000 OA
ATOM     23  H   UNL     1       6.437   6.892  15.921  0.00  0.00    +0.000 HD
ENDBRANCH   9  22
TORSDOF 2
ENDMDL
MODEL 4
REMARK VINA RESULT:      -6.5      2.041      3.969
REMARK  Name = 
REMARK  4 active torsions:
REMARK  status: ('A' for Active; 'I' for Inactive)
REMARK    1  A    between atoms: C_1  and  O_2
REMARK    2  A    between atoms: O_2  and  C_3
REMARK    3  A    between atoms: C_11  and  O_12
REMARK    4  A    between atoms: N_18  and  C_19
REMARK                            x       y       z     vdW  Elec       q    Type
REMARK                         _______ _______ _______ _____ _____    ______ ____
ROOT
ATOM      1  C   UNL     1       8.000   6.947  18.663  0.00  0.00    +0.000 A 
ATOM      2  C   UNL     1       8.104   6.110  19.765  0.00  0.00    +0.000 A 
ATOM      3  C   UNL     1       7.137   5.132  19.936  0.00  0.00    +0.000 A 
ATOM      4  C   UNL     1       6.057   4.976  19.019  0.00  0.00    +0.000 A 
ATOM      5  C   UNL     1       6.022   5.734  17.866  0.00  0.00    +0.000 A 
ATOM      6  C   UNL     1       7.008   6.623  17.629  0.00  0.00    +0.000 A 
ATOM      7  O   UNL     1       6.939   6.924  16.236  0.00  0.00    +0.000 OA
ATOM      8  C   UNL     1       5.837   6.200  15.583  0.00  0.00    +0.000 C 
ATOM      9  C   UNL     1       5.924   5.052  14.515  0.00  0.00    +0.000 C 
ATOM     10  C   UNL     1       6.008   3.668  15.086  0.00  0.00    +0.000 C 
ATOM     11  C   UNL     1       5.223   3.349  16.132  0.00  0.00    +0.000 C 
ATOM     12  C   UNL     1       4.304   4.413  16.726  0.00  0.00    +0.000 C 
ATOM     13  C   UNL     1       3.780   4.225  18.190  0.00  0.00    +0.000 C 
ATOM     14  C   UNL     1       4.959   3.987  19.194  0.00  0.00    +0.000 C 
ATOM     15  N   UNL     1       2.844   5.361  18.512  0.00  0.00    +0.000 NA
ATOM     16  C   UNL     1       2.317   5.303  19.869  0.00  0.00    +0.000 C 
ATOM     17  C   UNL     1       3.346   6.731  18.304  0.00  0.00    +0.000 C 
ATOM     18  C   UNL     1       4.001   6.896  16.963  0.00  0.00    +0.000 C 
ATOM     19  C   UNL     1       5.005   5.767  16.761  0.00  0.00    +0.000 C 
ENDROOT
BRANCH   1  21
ATOM     20  C   UNL     1       8.252   9.349  18.037  0.00  0.00    +0.000 C 
ATOM     21  O   UNL     1       8.728   8.129  18.645  0.00  0.00    +0.000 OA
ENDBRANCH   1  21
BRANCH   9  22
ATOM     22  O   UNL     1       6.856   5.224  13.470  0.00  0.00    +0.000 OA
ATOM     23  H   UNL     1       6.486   4.643  12.780  0.00  0.00    +0.000 HD
ENDBRANCH   9  22
TORSDOF 2
ENDMDL
MODEL 5
REMARK VINA RESULT:      -6.5      7.529      9.491
REMARK  Name = 
REMARK  4 active torsions:
REMARK  status: ('A' for Active; 'I' for Inactive)
REMARK    1  A    between atoms: C_1  and  O_2
REMARK    2  A    between atoms: O_2  and  C_3
REMARK    3  A    between atoms: C_11  and  O_12
REMARK    4  A    between atoms: N_18  and  C_19
REMARK                            x       y       z     vdW  Elec       q    Type
REMARK                         _______ _______ _______ _____ _____    ______ ____
ROOT
ATOM      1  C   UNL     1      -3.400  11.181  17.896  0.00  0.00    +0.000 A 
ATOM      2  C   UNL     1      -2.656  10.199  17.258  0.00  0.00    +0.000 A 
ATOM      3  C   UNL     1      -1.331  10.037  17.632  0.00  0.00    +0.000 A 
ATOM      4  C   UNL     1      -0.731  10.847  18.639  0.00  0.00    +0.000 A 
ATOM      5  C   UNL     1      -1.505  11.742  19.350  0.00  0.00    +0.000 A 
ATOM      6  C   UNL     1      -2.820  11.846  19.072  0.00  0.00    +0.000 A 
ATOM      7  O   UNL     1      -3.410  12.493  20.198  0.00  0.00    +0.000 OA
ATOM      8  C   UNL     1      -2.401  12.828  21.215  0.00  0.00    +0.000 C 
ATOM      9  C   UNL     1      -2.235  12.227  22.657  0.00  0.00    +0.000 C 
ATOM     10  C   UNL     1      -1.372  11.003  22.731  0.00  0.00    +0.000 C 
ATOM     11  C   UNL     1      -0.231  10.969  22.017  0.00  0.00    +0.000 C 
ATOM     12  C   UNL     1       0.127  12.157  21.127  0.00  0.00    +0.000 C 
ATOM     13  C   UNL     1       1.141  11.942  19.954  0.00  0.00    +0.000 C 
ATOM     14  C   UNL     1       0.703  10.758  19.027  0.00  0.00    +0.000 C 
ATOM     15  N   UNL     1       1.380  13.268  19.280  0.00  0.00    +0.000 NA
ATOM     16  C   UNL     1       2.291  13.180  18.146  0.00  0.00    +0.000 C 
ATOM     17  C   UNL     1       0.196  14.018  18.822  0.00  0.00    +0.000 C 
ATOM     18  C   UNL     1      -0.865  14.099  19.881  0.00  0.00    +0.000 C 
ATOM     19  C   UNL     1      -1.118  12.703  20.437  0.00  0.00    +0.000 C 
ENDROOT
BRANCH   1  21
ATOM     20  C   UNL     1      -5.888  11.361  17.918  0.00  0.00    +0.000 C 
ATOM     21  O   UNL     1      -4.594  11.599  17.324  0.00  0.00    +0.000 OA
ENDBRANCH   1  21
BRANCH   9  22
ATOM     22  O   UNL     1      -3.411  12.060  23.417  0.00  0.00    +0.000 OA
ATOM     23  H   UNL     1      -3.482  12.925  23.861  0.00  0.00    +0.000 HD
ENDBRANCH   9  22
TORSDOF 2
ENDMDL
MODEL 6
REMARK VINA RESULT:      -6.3      7.526      9.707
REMARK  Name = 
REMARK  4 active torsions:
REMARK  status: ('A' for Active; 'I' for Inactive)
REMARK    1  A    between atoms: C_1  and  O_2
REMARK    2  A    between atoms: O_2  and  C_3
REMARK    3  A    between atoms: C_11  and  O_12
REMARK    4  A    between atoms: N_18  and  C_19
REMARK                            x       y       z     vdW  Elec       q    Type
REMARK                         _______ _______ _______ _____ _____    ______ ____
ROOT
ATOM      1  C   UNL     1      -2.753  10.980  17.795  0.00  0.00    +0.000 A 
ATOM      2  C   UNL     1      -1.787  10.034  17.483  0.00  0.00    +0.000 A 
ATOM      3  C   UNL     1      -0.591  10.066  18.182  0.00  0.00    +0.000 A 
ATOM      4  C   UNL     1      -0.339  11.038  19.194  0.00  0.00    +0.000 A 
ATOM      5  C   UNL     1      -1.344  11.902  19.580  0.00  0.00    +0.000 A 
ATOM      6  C   UNL     1      -2.550  11.822  18.982  0.00  0.00    +0.000 A 
ATOM      7  O   UNL     1      -3.461  12.504  19.843  0.00  0.00    +0.000 OA
ATOM      8  C   UNL     1      -2.776  13.055  21.023  0.00  0.00    +0.000 C 
ATOM      9  C   UNL     1      -2.926  12.624  22.526  0.00  0.00    +0.000 C 
ATOM     10  C   UNL     1      -2.004  11.524  22.958  0.00  0.00    +0.000 C 
ATOM     11  C   UNL     1      -0.722  11.553  22.550  0.00  0.00    +0.000 C 
ATOM     12  C   UNL     1      -0.257  12.681  21.631  0.00  0.00    +0.000 C 
ATOM     13  C   UNL     1       1.035  12.470  20.773  0.00  0.00    +0.000 C 
ATOM     14  C   UNL     1       0.952  11.157  19.924  0.00  0.00    +0.000 C 
ATOM     15  N   UNL     1       1.318  13.742  20.015  0.00  0.00    +0.000 NA
ATOM     16  C   UNL     1       2.489  13.649  19.155  0.00  0.00    +0.000 C 
ATOM     17  C   UNL     1       0.226  14.298  19.196  0.00  0.00    +0.000 C 
ATOM     18  C   UNL     1      -1.071  14.359  19.949  0.00  0.00    +0.000 C 
ATOM     19  C   UNL     1      -1.332  13.005  20.599  0.00  0.00    +0.000 C 
ENDROOT
BRANCH   1  21
ATOM     20  C   UNL     1      -3.772  10.760  15.529  0.00  0.00    +0.000 C 
ATOM     21  O   UNL     1      -3.796  11.196  16.904  0.00  0.00    +0.000 OA
ENDBRANCH   1  21
BRANCH   9  22
ATOM     22  O   UNL     1      -4.237  12.397  22.995  0.00  0.00    +0.000 OA
ATOM     23  H   UNL     1      -4.161  11.497  23.362  0.00  0.00    +0.000 HD
ENDBRANCH   9  22
TORSDOF 2
ENDMDL
MODEL 7
REMARK VINA RESULT:      -6.1      8.820     10.179
REMARK  Name = 
REMARK  4 active torsions:
REMARK  status: ('A' for Active; 'I' for Inactive)
REMARK    1  A    between atoms: C_1  and  O_2
REMARK    2  A    between atoms: O_2  and  C_3
REMARK    3  A    between atoms: C_11  and  O_12
REMARK    4  A    between atoms: N_18  and  C_19
REMARK                            x       y       z     vdW  Elec       q    Type
REMARK                         _______ _______ _______ _____ _____    ______ ____
ROOT
ATOM      1  C   UNL     1       6.944  15.291  18.799  0.00  0.00    +0.000 A 
ATOM      2  C   UNL     1       6.689  14.553  17.651  0.00  0.00    +0.000 A 
ATOM      3  C   UNL     1       7.523  13.485  17.362  0.00  0.00    +0.000 A 
ATOM      4  C   UNL     1       8.619  13.139  18.206  0.00  0.00    +0.000 A 
ATOM      5  C   UNL     1       8.798  13.802  19.403  0.00  0.00    +0.000 A 
ATOM      6  C   UNL     1       7.938  14.779  19.753  0.00  0.00    +0.000 A 
ATOM      7  O   UNL     1       8.107  14.968  21.157  0.00  0.00    +0.000 OA
ATOM      8  C   UNL     1       9.145  14.076  21.698  0.00  0.00    +0.000 C 
ATOM      9  C   UNL     1       8.972  12.871  22.690  0.00  0.00    +0.000 C 
ATOM     10  C   UNL     1       8.697  11.552  22.034  0.00  0.00    +0.000 C 
ATOM     11  C   UNL     1       9.388  11.220  20.927  0.00  0.00    +0.000 C 
ATOM     12  C   UNL     1      10.399  12.211  20.355  0.00  0.00    +0.000 C 
ATOM     13  C   UNL     1      10.826  12.071  18.855  0.00  0.00    +0.000 C 
ATOM     14  C   UNL     1       9.582  12.045  17.904  0.00  0.00    +0.000 C 
ATOM     15  N   UNL     1      11.875  13.112  18.558  0.00  0.00    +0.000 NA
ATOM     16  C   UNL     1      12.327  13.093  17.174  0.00  0.00    +0.000 C 
ATOM     17  C   UNL     1      11.551  14.512  18.885  0.00  0.00    +0.000 C 
ATOM     18  C   UNL     1      10.984  14.653  20.268  0.00  0.00    +0.000 C 
ATOM     19  C   UNL     1       9.863  13.636  20.450  0.00  0.00    +0.000 C 
ENDROOT
BRANCH   1  21
ATOM     20  C   UNL     1       5.328  16.842  19.896  0.00  0.00    +0.000 C 
ATOM     21  O   UNL     1       6.364  16.545  18.936  0.00  0.00    +0.000 OA
ENDBRANCH   1  21
BRANCH   9  22
ATOM     22  O   UNL     1       8.118  13.073  23.794  0.00  0.00    +0.000 OA
ATOM     23  H   UNL     1       7.298  12.643  23.489  0.00  0.00    +0.000 HD
ENDBRANCH   9  22
TORSDOF 2
ENDMDL
MODEL 8
REMARK VINA RESULT:      -6.0      5.448      9.505
REMARK  Name = 
REMARK  4 active torsions:
REMARK  status: ('A' for Active; 'I' for Inactive)
REMARK    1  A    between atoms: C_1  and  O_2
REMARK    2  A    between atoms: O_2  and  C_3
REMARK    3  A    between atoms: C_11  and  O_12
REMARK    4  A    between atoms: N_18  and  C_19
REMARK                            x       y       z     vdW  Elec       q    Type
REMARK                         _______ _______ _______ _____ _____    ______ ____
ROOT
ATOM      1  C   UNL     1       0.534   9.468  21.694  0.00  0.00    +0.000 A 
ATOM      2  C   UNL     1      -0.148   9.377  22.900  0.00  0.00    +0.000 A 
ATOM      3  C   UNL     1      -1.038  10.388  23.224  0.00  0.00    +0.000 A 
ATOM      4  C   UNL     1      -1.260  11.499  22.359  0.00  0.00    +0.000 A 
ATOM      5  C   UNL     1      -0.668  11.526  21.112  0.00  0.00    +0.000 A 
ATOM      6  C   UNL     1       0.124  10.503  20.734  0.00  0.00    +0.000 A 
ATOM      7  O   UNL     1       0.233  10.593  19.315  0.00  0.00    +0.000 OA
ATOM      8  C   UNL     1      -0.513  11.748  18.791  0.00  0.00    +0.000 C 
ATOM      9  C   UNL     1      -1.801  11.749  17.892  0.00  0.00    +0.000 C 
ATOM     10  C   UNL     1      -3.095  11.721  18.649  0.00  0.00    +0.000 C 
ATOM     11  C   UNL     1      -3.223  12.493  19.744  0.00  0.00    +0.000 C 
ATOM     12  C   UNL     1      -2.038  13.340  20.202  0.00  0.00    +0.000 C 
ATOM     13  C   UNL     1      -1.992  13.833  21.687  0.00  0.00    +0.000 C 
ATOM     14  C   UNL     1      -2.153  12.642  22.692  0.00  0.00    +0.000 C 
ATOM     15  N   UNL     1      -0.774  14.701  21.866  0.00  0.00    +0.000 NA
ATOM     16  C   UNL     1      -0.613  15.194  23.227  0.00  0.00    +0.000 C 
ATOM     17  C   UNL     1       0.525  14.135  21.458  0.00  0.00    +0.000 C 
ATOM     18  C   UNL     1       0.466  13.508  20.095  0.00  0.00    +0.000 C 
ATOM     19  C   UNL     1      -0.733  12.569  20.033  0.00  0.00    +0.000 C 
ENDROOT
BRANCH   1  21
ATOM     20  C   UNL     1       1.748   7.655  20.485  0.00  0.00    +0.000 C 
ATOM     21  O   UNL     1       1.660   8.680  21.497  0.00  0.00    +0.000 OA
ENDBRANCH   1  21
BRANCH   9  22
ATOM     22  O   UNL     1      -1.827  10.838  16.816  0.00  0.00    +0.000 OA
ATOM     23  H   UNL     1      -0.905  10.520  16.804  0.00  0.00    +0.000 HD
ENDBRANCH   9  22
TORSDOF 2
ENDMDL
MODEL 9
REMARK VINA RESULT:      -6.0      8.575     10.338
REMARK  Name = 
REMARK  4 active torsions:
REMARK  status: ('A' for Active; 'I' for Inactive)
REMARK    1  A    between atoms: C_1  and  O_2
REMARK    2  A    between atoms: O_2  and  C_3
REMARK    3  A    between atoms: C_11  and  O_12
REMARK    4  A    between atoms: N_18  and  C_19
REMARK                            x       y       z     vdW  Elec       q    Type
REMARK                         _______ _______ _______ _____ _____    ______ ____
ROOT
ATOM      1  C   UNL     1       6.583  15.115  19.556  0.00  0.00    +0.000 A 
ATOM      2  C   UNL     1       6.459  14.941  18.185  0.00  0.00    +0.000 A 
ATOM      3  C   UNL     1       7.498  14.321  17.508  0.00  0.00    +0.000 A 
ATOM      4  C   UNL     1       8.670  13.871  18.182  0.00  0.00    +0.000 A 
ATOM      5  C   UNL     1       8.738  13.942  19.559  0.00  0.00    +0.000 A 
ATOM      6  C   UNL     1       7.696  14.450  20.248  0.00  0.00    +0.000 A 
ATOM      7  O   UNL     1       7.866  14.015  21.596  0.00  0.00    +0.000 OA
ATOM      8  C   UNL     1       9.092  13.216  21.752  0.00  0.00    +0.000 C 
ATOM      9  C   UNL     1       9.221  11.686  22.085  0.00  0.00    +0.000 C 
ATOM     10  C   UNL     1       9.221  10.781  20.889  0.00  0.00    +0.000 C 
ATOM     11  C   UNL     1       9.931  11.140  19.804  0.00  0.00    +0.000 C 
ATOM     12  C   UNL     1      10.680  12.471  19.809  0.00  0.00    +0.000 C 
ATOM     13  C   UNL     1      11.078  13.118  18.440  0.00  0.00    +0.000 C 
ATOM     14  C   UNL     1       9.839  13.263  17.492  0.00  0.00    +0.000 C 
ATOM     15  N   UNL     1      11.862  14.375  18.715  0.00  0.00    +0.000 NA
ATOM     16  C   UNL     1      12.262  15.080  17.505  0.00  0.00    +0.000 C 
ATOM     17  C   UNL     1      11.249  15.372  19.611  0.00  0.00    +0.000 C 
ATOM     18  C   UNL     1      10.710  14.750  20.866  0.00  0.00    +0.000 C 
ATOM     19  C   UNL     1       9.847  13.550  20.493  0.00  0.00    +0.000 C 
ENDROOT
BRANCH   1  21
ATOM     20  C   UNL     1       5.042  17.076  19.515  0.00  0.00    +0.000 C 
ATOM     21  O   UNL     1       5.746  16.017  20.198  0.00  0.00    +0.000 OA
ENDBRANCH   1  21
BRANCH   9  22
ATOM     22  O   UNL     1       8.380  11.182  23.099  0.00  0.00    +0.000 OA
ATOM     23  H   UNL     1       8.138  11.996  23.577  0.00  0.00    +0.000 HD
ENDBRANCH   9  22
TORSDOF 2
ENDMDL
