MODEL 1
REMARK VINA RESULT:      -8.0      0.000      0.000
REMARK  Name = 
REMARK  8 active torsions:
REMARK  status: ('A' for Active; 'I' for Inactive)
REMARK    1  A    between atoms: C_1  and  O_2
REMARK    2  A    between atoms: O_2  and  C_3
REMARK    3  A    between atoms: C_6  and  C_7
REMARK    4  A    between atoms: C_12  and  C_13
REMARK    5  A    between atoms: C_16  and  O_17
REMARK    6  A    between atoms: O_17  and  C_18
REMARK    7  A    between atoms: C_19  and  O_20
REMARK    8  A    between atoms: O_20  and  C_21
REMARK                            x       y       z     vdW  Elec       q    Type
REMARK                         _______ _______ _______ _____ _____    ______ ____
ROOT
ATOM      1  C   UNL     1       1.922   6.877  20.212  0.00  0.00    +0.000 C 
ATOM      2  C   UNL     1       1.474   5.820  20.905  0.00  0.00    +0.000 C 
ATOM      3  C   UNL     1       2.016   4.467  20.638  0.00  0.00    +0.000 C 
ATOM      4  O   UNL     1       1.592   3.518  21.288  0.00  0.00    +0.000 OA
ATOM      5  C   UNL     1       3.128   4.309  19.625  0.00  0.00    +0.000 C 
ATOM      6  C   UNL     1       3.044   5.372  18.528  0.00  0.00    +0.000 C 
ATOM      7  C   UNL     1       2.947   6.793  19.120  0.00  0.00    +0.000 C 
ENDROOT
BRANCH   1  11
ATOM      8  C   UNL     1       0.229  10.736  20.936  0.00  0.00    +0.000 A 
ATOM      9  C   UNL     1       0.282   9.792  21.962  0.00  0.00    +0.000 A 
ATOM     10  C   UNL     1       0.850   8.532  21.743  0.00  0.00    +0.000 A 
ATOM     11  C   UNL     1       1.350   8.202  20.480  0.00  0.00    +0.000 A 
ATOM     12  C   UNL     1       1.285   9.144  19.449  0.00  0.00    +0.000 A 
ATOM     13  C   UNL     1       0.729  10.405  19.676  0.00  0.00    +0.000 A 
BRANCH   8  15
ATOM     14  C   UNL     1      -0.878  12.020  22.586  0.00  0.00    +0.000 C 
ATOM     15  O   UNL     1      -0.370  11.922  21.259  0.00  0.00    +0.000 OA
ENDBRANCH   8  15
ENDBRANCH   1  11
BRANCH   6  16
ATOM     16  C   UNL     1       4.203   5.289  17.548  0.00  0.00    +0.000 A 
ATOM     17  C   UNL     1       4.398   4.165  16.742  0.00  0.00    +0.000 A 
ATOM     18  C   UNL     1       5.519   4.077  15.919  0.00  0.00    +0.000 A 
ATOM     19  C   UNL     1       6.479   5.098  15.883  0.00  0.00    +0.000 A 
ATOM     20  C   UNL     1       6.293   6.244  16.676  0.00  0.00    +0.000 A 
ATOM     21  C   UNL     1       5.146   6.331  17.485  0.00  0.00    +0.000 A 
BRANCH  19  22
ATOM     22  O   UNL     1       7.511   4.799  15.031  0.00  0.00    +0.000 OA
ATOM     23  C   UNL     1       7.278   4.827  13.633  0.00  0.00    +0.000 C 
ENDBRANCH  19  22
BRANCH  20  24
ATOM     24  O   UNL     1       7.253   7.219  16.646  0.00  0.00    +0.000 OA
ATOM     25  C   UNL     1       7.820   7.655  17.874  0.00  0.00    +0.000 C 
ENDBRANCH  20  24
ENDBRANCH   6  16
TORSDOF 5
ENDMDL
MODEL 2
REMARK VINA RESULT:      -8.0      1.308      8.098
REMARK  Name = 
REMARK  8 active torsions:
REMARK  status: ('A' for Active; 'I' for Inactive)
REMARK    1  A    between atoms: C_1  and  O_2
REMARK    2  A    between atoms: O_2  and  C_3
REMARK    3  A    between atoms: C_6  and  C_7
REMARK    4  A    between atoms: C_12  and  C_13
REMARK    5  A    between atoms: C_16  and  O_17
REMARK    6  A    between atoms: O_17  and  C_18
REMARK    7  A    between atoms: C_19  and  O_20
REMARK    8  A    between atoms: O_20  and  C_21
REMARK                            x       y       z     vdW  Elec       q    Type
REMARK                         _______ _______ _______ _____ _____    ______ ____
ROOT
ATOM      1  C   UNL     1       3.280   5.517  18.531  0.00  0.00    +0.000 C 
ATOM      2  C   UNL     1       3.103   4.542  19.434  0.00  0.00    +0.000 C 
ATOM      3  C   UNL     1       2.230   4.761  20.612  0.00  0.00    +0.000 C 
ATOM      4  O   UNL     1       2.083   3.852  21.421  0.00  0.00    +0.000 OA
ATOM      5  C   UNL     1       1.489   6.073  20.741  0.00  0.00    +0.000 C 
ATOM      6  C   UNL     1       2.261   7.221  20.086  0.00  0.00    +0.000 C 
ATOM      7  C   UNL     1       2.665   6.881  18.638  0.00  0.00    +0.000 C 
ENDROOT
BRANCH   1  11
ATOM      8  C   UNL     1       5.838   4.779  15.186  0.00  0.00    +0.000 A 
ATOM      9  C   UNL     1       5.503   6.088  15.535  0.00  0.00    +0.000 A 
ATOM     10  C   UNL     1       4.682   6.344  16.639  0.00  0.00    +0.000 A 
ATOM     11  C   UNL     1       4.170   5.281  17.389  0.00  0.00    +0.000 A 
ATOM     12  C   UNL     1       4.496   3.970  17.031  0.00  0.00    +0.000 A 
ATOM     13  C   UNL     1       5.327   3.719  15.937  0.00  0.00    +0.000 A 
BRANCH   8  15
ATOM     14  C   UNL     1       6.205   3.676  13.126  0.00  0.00    +0.000 C 
ATOM     15  O   UNL     1       6.627   4.650  14.076  0.00  0.00    +0.000 OA
ENDBRANCH   8  15
ENDBRANCH   1  11
BRANCH   6  16
ATOM     16  C   UNL     1       1.494   8.533  20.124  0.00  0.00    +0.000 A 
ATOM     17  C   UNL     1       1.227   9.256  18.959  0.00  0.00    +0.000 A 
ATOM     18  C   UNL     1       0.602  10.499  19.032  0.00  0.00    +0.000 A 
ATOM     19  C   UNL     1       0.236  11.060  20.264  0.00  0.00    +0.000 A 
ATOM     20  C   UNL     1       0.483  10.341  21.446  0.00  0.00    +0.000 A 
ATOM     21  C   UNL     1       1.094   9.077  21.357  0.00  0.00    +0.000 A 
BRANCH  19  22
ATOM     22  O   UNL     1      -0.337  12.296  20.111  0.00  0.00    +0.000 OA
ATOM     23  C   UNL     1      -1.404  12.451  19.190  0.00  0.00    +0.000 C 
ENDBRANCH  19  22
BRANCH  20  24
ATOM     24  O   UNL     1       0.140  10.916  22.641  0.00  0.00    +0.000 OA
ATOM     25  C   UNL     1      -1.176  10.717  23.138  0.00  0.00    +0.000 C 
ENDBRANCH  20  24
ENDBRANCH   6  16
TORSDOF 5
ENDMDL
MODEL 3
REMARK VINA RESULT:      -8.0      1.438      8.028
REMARK  Name = 
REMARK  8 active torsions:
REMARK  status: ('A' for Active; 'I' for Inactive)
REMARK    1  A    between atoms: C_1  and  O_2
REMARK    2  A    between atoms: O_2  and  C_3
REMARK    3  A    between atoms: C_6  and  C_7
REMARK    4  A    between atoms: C_12  and  C_13
REMARK    5  A    between atoms: C_16  and  O_17
REMARK    6  A    between atoms: O_17  and  C_18
REMARK    7  A    between atoms: C_19  and  O_20
REMARK    8  A    between atoms: O_20  and  C_21
REMARK                            x       y       z     vdW  Elec       q    Type
REMARK                         _______ _______ _______ _____ _____    ______ ____
ROOT
ATOM      1  C   UNL     1       3.351   5.476  18.373  0.00  0.00    +0.000 C 
ATOM      2  C   UNL     1       3.201   4.548  19.330  0.00  0.00    +0.000 C 
ATOM      3  C   UNL     1       2.342   4.818  20.507  0.00  0.00    +0.000 C 
ATOM      4  O   UNL     1       2.219   3.952  21.365  0.00  0.00    +0.000 OA
ATOM      5  C   UNL     1       1.586   6.126  20.577  0.00  0.00    +0.000 C 
ATOM      6  C   UNL     1       2.331   7.248  19.850  0.00  0.00    +0.000 C 
ATOM      7  C   UNL     1       2.719   6.836  18.416  0.00  0.00    +0.000 C 
ENDROOT
BRANCH   1  11
ATOM      8  C   UNL     1       5.936   4.694  15.059  0.00  0.00    +0.000 A 
ATOM      9  C   UNL     1       5.480   3.642  15.853  0.00  0.00    +0.000 A 
ATOM     10  C   UNL     1       4.619   3.882  16.930  0.00  0.00    +0.000 A 
ATOM     11  C   UNL     1       4.227   5.190  17.231  0.00  0.00    +0.000 A 
ATOM     12  C   UNL     1       4.695   6.245  16.442  0.00  0.00    +0.000 A 
ATOM     13  C   UNL     1       5.543   5.999  15.360  0.00  0.00    +0.000 A 
BRANCH   8  15
ATOM     14  C   UNL     1       6.206   3.645  12.956  0.00  0.00    +0.000 C 
ATOM     15  O   UNL     1       6.791   4.343  14.051  0.00  0.00    +0.000 OA
ENDBRANCH   8  15
ENDBRANCH   1  11
BRANCH   6  16
ATOM     16  C   UNL     1       1.548   8.549  19.830  0.00  0.00    +0.000 A 
ATOM     17  C   UNL     1       1.363   9.271  18.648  0.00  0.00    +0.000 A 
ATOM     18  C   UNL     1       0.718  10.506  18.674  0.00  0.00    +0.000 A 
ATOM     19  C   UNL     1       0.251  11.060  19.874  0.00  0.00    +0.000 A 
ATOM     20  C   UNL     1       0.415  10.342  21.071  0.00  0.00    +0.000 A 
ATOM     21  C   UNL     1       1.046   9.086  21.029  0.00  0.00    +0.000 A 
BRANCH  19  22
ATOM     22  O   UNL     1      -0.325  12.290  19.679  0.00  0.00    +0.000 OA
ATOM     23  C   UNL     1      -1.046  12.529  18.482  0.00  0.00    +0.000 C 
ENDBRANCH  19  22
BRANCH  20  24
ATOM     24  O   UNL     1      -0.027  10.910  22.236  0.00  0.00    +0.000 OA
ATOM     25  C   UNL     1      -0.598  10.070  23.230  0.00  0.00    +0.000 C 
ENDBRANCH  20  24
ENDBRANCH   6  16
TORSDOF 5
ENDMDL
MODEL 4
REMARK VINA RESULT:      -8.0      0.343      1.023
REMARK  Name = 
REMARK  8 active torsions:
REMARK  status: ('A' for Active; 'I' for Inactive)
REMARK    1  A    between atoms: C_1  and  O_2
REMARK    2  A    between atoms: O_2  and  C_3
REMARK    3  A    between atoms: C_6  and  C_7
REMARK    4  A    between atoms: C_12  and  C_13
REMARK    5  A    between atoms: C_16  and  O_17
REMARK    6  A    between atoms: O_17  and  C_18
REMARK    7  A    between atoms: C_19  and  O_20
REMARK    8  A    between atoms: O_20  and  C_21
REMARK                            x       y       z     vdW  Elec       q    Type
REMARK                         _______ _______ _______ _____ _____    ______ ____
ROOT
ATOM      1  C   UNL     1       1.961   6.887  20.174  0.00  0.00    +0.000 C 
ATOM      2  C   UNL     1       1.504   5.830  20.860  0.00  0.00    +0.000 C 
ATOM      3  C   UNL     1       2.034   4.473  20.587  0.00  0.00    +0.000 C 
ATOM      4  O   UNL     1       1.601   3.524  21.230  0.00  0.00    +0.000 OA
ATOM      5  C   UNL     1       3.145   4.311  19.573  0.00  0.00    +0.000 C 
ATOM      6  C   UNL     1       3.072   5.381  18.482  0.00  0.00    +0.000 C 
ATOM      7  C   UNL     1       2.987   6.799  19.082  0.00  0.00    +0.000 C 
ENDROOT
BRANCH   1  11
ATOM      8  C   UNL     1       0.357  10.756  21.028  0.00  0.00    +0.000 A 
ATOM      9  C   UNL     1       0.759  10.437  19.731  0.00  0.00    +0.000 A 
ATOM     10  C   UNL     1       1.268   9.168  19.434  0.00  0.00    +0.000 A 
ATOM     11  C   UNL     1       1.400   8.214  20.448  0.00  0.00    +0.000 A 
ATOM     12  C   UNL     1       1.009   8.540  21.750  0.00  0.00    +0.000 A 
ATOM     13  C   UNL     1       0.488   9.803  22.039  0.00  0.00    +0.000 A 
BRANCH   8  15
ATOM     14  C   UNL     1      -1.511  12.207  21.083  0.00  0.00    +0.000 C 
ATOM     15  O   UNL     1      -0.102  12.032  21.204  0.00  0.00    +0.000 OA
ENDBRANCH   8  15
ENDBRANCH   1  11
BRANCH   6  16
ATOM     16  C   UNL     1       4.231   5.294  17.503  0.00  0.00    +0.000 A 
ATOM     17  C   UNL     1       4.417   4.172  16.691  0.00  0.00    +0.000 A 
ATOM     18  C   UNL     1       5.538   4.080  15.869  0.00  0.00    +0.000 A 
ATOM     19  C   UNL     1       6.507   5.092  15.840  0.00  0.00    +0.000 A 
ATOM     20  C   UNL     1       6.330   6.235  16.639  0.00  0.00    +0.000 A 
ATOM     21  C   UNL     1       5.183   6.327  17.447  0.00  0.00    +0.000 A 
BRANCH  19  22
ATOM     22  O   UNL     1       7.537   4.788  14.987  0.00  0.00    +0.000 OA
ATOM     23  C   UNL     1       7.297   4.790  13.590  0.00  0.00    +0.000 C 
ENDBRANCH  19  22
BRANCH  20  24
ATOM     24  O   UNL     1       7.300   7.202  16.615  0.00  0.00    +0.000 OA
ATOM     25  C   UNL     1       7.794   7.701  17.850  0.00  0.00    +0.000 C 
ENDBRANCH  20  24
ENDBRANCH   6  16
TORSDOF 5
ENDMDL
MODEL 5
REMARK VINA RESULT:      -7.7      1.191      7.917
REMARK  Name = 
REMARK  8 active torsions:
REMARK  status: ('A' for Active; 'I' for Inactive)
REMARK    1  A    between atoms: C_1  and  O_2
REMARK    2  A    between atoms: O_2  and  C_3
REMARK    3  A    between atoms: C_6  and  C_7
REMARK    4  A    between atoms: C_12  and  C_13
REMARK    5  A    between atoms: C_16  and  O_17
REMARK    6  A    between atoms: O_17  and  C_18
REMARK    7  A    between atoms: C_19  and  O_20
REMARK    8  A    between atoms: O_20  and  C_21
REMARK                            x       y       z     vdW  Elec       q    Type
REMARK                         _______ _______ _______ _____ _____    ______ ____
ROOT
ATOM      1  C   UNL     1       3.270   5.182  18.342  0.00  0.00    +0.000 C 
ATOM      2  C   UNL     1       3.010   4.048  19.009  0.00  0.00    +0.000 C 
ATOM      3  C   UNL     1       2.091   4.056  20.171  0.00  0.00    +0.000 C 
ATOM      4  O   UNL     1       1.868   3.005  20.761  0.00  0.00    +0.000 OA
ATOM      5  C   UNL     1       1.399   5.347  20.550  0.00  0.00    +0.000 C 
ATOM      6  C   UNL     1       2.248   6.567  20.185  0.00  0.00    +0.000 C 
ATOM      7  C   UNL     1       2.706   6.522  18.714  0.00  0.00    +0.000 C 
ENDROOT
BRANCH   1  11
ATOM      8  C   UNL     1       6.015   5.135  15.066  0.00  0.00    +0.000 A 
ATOM      9  C   UNL     1       5.622   3.938  15.665  0.00  0.00    +0.000 A 
ATOM     10  C   UNL     1       4.710   3.938  16.726  0.00  0.00    +0.000 A 
ATOM     11  C   UNL     1       4.203   5.148  17.210  0.00  0.00    +0.000 A 
ATOM     12  C   UNL     1       4.607   6.347  16.617  0.00  0.00    +0.000 A 
ATOM     13  C   UNL     1       5.507   6.342  15.549  0.00  0.00    +0.000 A 
BRANCH   8  15
ATOM     14  C   UNL     1       6.648   4.012  13.082  0.00  0.00    +0.000 C 
ATOM     15  O   UNL     1       6.929   5.014  14.055  0.00  0.00    +0.000 OA
ENDBRANCH   8  15
ENDBRANCH   1  11
BRANCH   6  16
ATOM     16  C   UNL     1       1.534   7.878  20.473  0.00  0.00    +0.000 A 
ATOM     17  C   UNL     1       0.840   8.084  21.668  0.00  0.00    +0.000 A 
ATOM     18  C   UNL     1       0.120   9.260  21.868  0.00  0.00    +0.000 A 
ATOM     19  C   UNL     1       0.061  10.255  20.883  0.00  0.00    +0.000 A 
ATOM     20  C   UNL     1       0.765  10.072  19.679  0.00  0.00    +0.000 A 
ATOM     21  C   UNL     1       1.507   8.891  19.499  0.00  0.00    +0.000 A 
BRANCH  19  22
ATOM     22  O   UNL     1      -0.721  11.312  21.271  0.00  0.00    +0.000 OA
ATOM     23  C   UNL     1      -1.006  11.487  22.649  0.00  0.00    +0.000 C 
ENDBRANCH  19  22
BRANCH  20  24
ATOM     24  O   UNL     1       0.676  11.045  18.720  0.00  0.00    +0.000 OA
ATOM     25  C   UNL     1       1.675  12.054  18.679  0.00  0.00    +0.000 C 
ENDBRANCH  20  24
ENDBRANCH   6  16
TORSDOF 5
ENDMDL
MODEL 6
REMARK VINA RESULT:      -7.7      1.209      8.027
REMARK  Name = 
REMARK  8 active torsions:
REMARK  status: ('A' for Active; 'I' for Inactive)
REMARK    1  A    between atoms: C_1  and  O_2
REMARK    2  A    between atoms: O_2  and  C_3
REMARK    3  A    between atoms: C_6  and  C_7
REMARK    4  A    between atoms: C_12  and  C_13
REMARK    5  A    between atoms: C_16  and  O_17
REMARK    6  A    between atoms: O_17  and  C_18
REMARK    7  A    between atoms: C_19  and  O_20
REMARK    8  A    between atoms: O_20  and  C_21
REMARK                            x       y       z     vdW  Elec       q    Type
REMARK                         _______ _______ _______ _____ _____    ______ ____
ROOT
ATOM      1  C   UNL     1       3.315   5.328  18.635  0.00  0.00    +0.000 C 
ATOM      2  C   UNL     1       3.160   4.276  19.453  0.00  0.00    +0.000 C 
ATOM      3  C   UNL     1       2.297   4.381  20.653  0.00  0.00    +0.000 C 
ATOM      4  O   UNL     1       2.170   3.405  21.383  0.00  0.00    +0.000 OA
ATOM      5  C   UNL     1       1.541   5.668  20.902  0.00  0.00    +0.000 C 
ATOM      6  C   UNL     1       2.290   6.878  20.340  0.00  0.00    +0.000 C 
ATOM      7  C   UNL     1       2.683   6.669  18.864  0.00  0.00    +0.000 C 
ENDROOT
BRANCH   1  11
ATOM      8  C   UNL     1       5.849   4.911  15.218  0.00  0.00    +0.000 A 
ATOM      9  C   UNL     1       5.425   6.177  15.624  0.00  0.00    +0.000 A 
ATOM     10  C   UNL     1       4.610   6.328  16.751  0.00  0.00    +0.000 A 
ATOM     11  C   UNL     1       4.195   5.202  17.468  0.00  0.00    +0.000 A 
ATOM     12  C   UNL     1       4.611   3.934  17.054  0.00  0.00    +0.000 A 
ATOM     13  C   UNL     1       5.435   3.788  15.936  0.00  0.00    +0.000 A 
BRANCH   8  15
ATOM     14  C   UNL     1       6.324   3.846  13.160  0.00  0.00    +0.000 C 
ATOM     15  O   UNL     1       6.622   4.883  14.090  0.00  0.00    +0.000 OA
ENDBRANCH   8  15
ENDBRANCH   1  11
BRANCH   6  16
ATOM     16  C   UNL     1       1.506   8.171  20.498  0.00  0.00    +0.000 A 
ATOM     17  C   UNL     1       1.104   8.632  21.753  0.00  0.00    +0.000 A 
ATOM     18  C   UNL     1       0.310   9.772  21.861  0.00  0.00    +0.000 A 
ATOM     19  C   UNL     1      -0.114  10.476  20.726  0.00  0.00    +0.000 A 
ATOM     20  C   UNL     1       0.293  10.035  19.454  0.00  0.00    +0.000 A 
ATOM     21  C   UNL     1       1.113   8.897  19.360  0.00  0.00    +0.000 A 
BRANCH  19  22
ATOM     22  O   UNL     1      -0.907  11.545  21.054  0.00  0.00    +0.000 OA
ATOM     23  C   UNL     1      -0.334  12.637  21.754  0.00  0.00    +0.000 C 
ENDBRANCH  19  22
BRANCH  20  24
ATOM     24  O   UNL     1      -0.151  10.722  18.355  0.00  0.00    +0.000 OA
ATOM     25  C   UNL     1      -1.388  10.341  17.768  0.00  0.00    +0.000 C 
ENDBRANCH  20  24
ENDBRANCH   6  16
TORSDOF 5
ENDMDL
MODEL 7
REMARK VINA RESULT:      -7.5      1.166      7.855
REMARK  Name = 
REMARK  8 active torsions:
REMARK  status: ('A' for Active; 'I' for Inactive)
REMARK    1  A    between atoms: C_1  and  O_2
REMARK    2  A    between atoms: O_2  and  C_3
REMARK    3  A    between atoms: C_6  and  C_7
REMARK    4  A    between atoms: C_12  and  C_13
REMARK    5  A    between atoms: C_16  and  O_17
REMARK    6  A    between atoms: O_17  and  C_18
REMARK    7  A    between atoms: C_19  and  O_20
REMARK    8  A    between atoms: O_20  and  C_21
REMARK                            x       y       z     vdW  Elec       q    Type
REMARK                         _______ _______ _______ _____ _____    ______ ____
ROOT
ATOM      1  C   UNL     1       3.764   5.034  18.176  0.00  0.00    +0.000 C 
ATOM      2  C   UNL     1       3.420   3.869  18.745  0.00  0.00    +0.000 C 
ATOM      3  C   UNL     1       2.347   3.822  19.765  0.00  0.00    +0.000 C 
ATOM      4  O   UNL     1       2.050   2.744  20.267  0.00  0.00    +0.000 OA
ATOM      5  C   UNL     1       1.600   5.094  20.103  0.00  0.00    +0.000 C 
ATOM      6  C   UNL     1       2.483   6.330  19.921  0.00  0.00    +0.000 C 
ATOM      7  C   UNL     1       3.145   6.355  18.528  0.00  0.00    +0.000 C 
ENDROOT
BRANCH   1  11
ATOM      8  C   UNL     1       6.879   5.079  15.248  0.00  0.00    +0.000 A 
ATOM      9  C   UNL     1       6.868   6.027  16.272  0.00  0.00    +0.000 A 
ATOM     10  C   UNL     1       5.864   6.012  17.247  0.00  0.00    +0.000 A 
ATOM     11  C   UNL     1       4.847   5.055  17.186  0.00  0.00    +0.000 A 
ATOM     12  C   UNL     1       4.852   4.113  16.153  0.00  0.00    +0.000 A 
ATOM     13  C   UNL     1       5.863   4.124  15.189  0.00  0.00    +0.000 A 
BRANCH   8  15
ATOM     14  C   UNL     1       7.518   5.091  12.971  0.00  0.00    +0.000 C 
ATOM     15  O   UNL     1       7.893   5.207  14.340  0.00  0.00    +0.000 OA
ENDBRANCH   8  15
ENDBRANCH   1  11
BRANCH   6  16
ATOM     16  C   UNL     1       1.728   7.626  20.167  0.00  0.00    +0.000 A 
ATOM     17  C   UNL     1       0.966   7.817  21.322  0.00  0.00    +0.000 A 
ATOM     18  C   UNL     1       0.212   8.978  21.480  0.00  0.00    +0.000 A 
ATOM     19  C   UNL     1       0.186   9.972  20.492  0.00  0.00    +0.000 A 
ATOM     20  C   UNL     1       0.958   9.803  19.329  0.00  0.00    +0.000 A 
ATOM     21  C   UNL     1       1.733   8.638  19.192  0.00  0.00    +0.000 A 
BRANCH  19  22
ATOM     22  O   UNL     1      -0.638  11.012  20.836  0.00  0.00    +0.000 OA
ATOM     23  C   UNL     1      -0.110  12.086  21.597  0.00  0.00    +0.000 C 
ENDBRANCH  19  22
BRANCH  20  24
ATOM     24  O   UNL     1       0.902  10.774  18.365  0.00  0.00    +0.000 OA
ATOM     25  C   UNL     1       1.852  11.830  18.405  0.00  0.00    +0.000 C 
ENDBRANCH  20  24
ENDBRANCH   6  16
TORSDOF 5
ENDMDL
MODEL 8
REMARK VINA RESULT:      -7.5      1.038      8.015
REMARK  Name = 
REMARK  8 active torsions:
REMARK  status: ('A' for Active; 'I' for Inactive)
REMARK    1  A    between atoms: C_1  and  O_2
REMARK    2  A    between atoms: O_2  and  C_3
REMARK    3  A    between atoms: C_6  and  C_7
REMARK    4  A    between atoms: C_12  and  C_13
REMARK    5  A    between atoms: C_16  and  O_17
REMARK    6  A    between atoms: O_17  and  C_18
REMARK    7  A    between atoms: C_19  and  O_20
REMARK    8  A    between atoms: O_20  and  C_21
REMARK                            x       y       z     vdW  Elec       q    Type
REMARK                         _______ _______ _______ _____ _____    ______ ____
ROOT
ATOM      1  C   UNL     1       3.412   5.490  18.807  0.00  0.00    +0.000 C 
ATOM      2  C   UNL     1       3.107   4.374  19.485  0.00  0.00    +0.000 C 
ATOM      3  C   UNL     1       2.079   4.402  20.551  0.00  0.00    +0.000 C 
ATOM      4  O   UNL     1       1.817   3.367  21.153  0.00  0.00    +0.000 OA
ATOM      5  C   UNL     1       1.332   5.691  20.815  0.00  0.00    +0.000 C 
ATOM      6  C   UNL     1       2.191   6.915  20.493  0.00  0.00    +0.000 C 
ATOM      7  C   UNL     1       2.792   6.830  19.076  0.00  0.00    +0.000 C 
ENDROOT
BRANCH   1  11
ATOM      8  C   UNL     1       6.445   5.400  15.796  0.00  0.00    +0.000 A 
ATOM      9  C   UNL     1       6.420   4.424  16.793  0.00  0.00    +0.000 A 
ATOM     10  C   UNL     1       5.422   4.431  17.773  0.00  0.00    +0.000 A 
ATOM     11  C   UNL     1       4.451   5.438  17.773  0.00  0.00    +0.000 A 
ATOM     12  C   UNL     1       4.485   6.423  16.782  0.00  0.00    +0.000 A 
ATOM     13  C   UNL     1       5.475   6.404  15.797  0.00  0.00    +0.000 A 
BRANCH   8  15
ATOM     14  C   UNL     1       7.151   4.776  13.626  0.00  0.00    +0.000 C 
ATOM     15  O   UNL     1       7.480   5.306  14.907  0.00  0.00    +0.000 OA
ENDBRANCH   8  15
ENDBRANCH   1  11
BRANCH   6  16
ATOM     16  C   UNL     1       1.431   8.220  20.664  0.00  0.00    +0.000 A 
ATOM     17  C   UNL     1       1.065   8.691  21.928  0.00  0.00    +0.000 A 
ATOM     18  C   UNL     1       0.291   9.842  22.050  0.00  0.00    +0.000 A 
ATOM     19  C   UNL     1      -0.149  10.549  20.922  0.00  0.00    +0.000 A 
ATOM     20  C   UNL     1       0.221  10.099  19.643  0.00  0.00    +0.000 A 
ATOM     21  C   UNL     1       1.022   8.948  19.533  0.00  0.00    +0.000 A 
BRANCH  19  22
ATOM     22  O   UNL     1      -0.918  11.631  21.265  0.00  0.00    +0.000 OA
ATOM     23  C   UNL     1      -1.383  11.750  22.600  0.00  0.00    +0.000 C 
ENDBRANCH  19  22
BRANCH  20  24
ATOM     24  O   UNL     1      -0.238  10.789  18.553  0.00  0.00    +0.000 OA
ATOM     25  C   UNL     1      -1.336  10.256  17.823  0.00  0.00    +0.000 C 
ENDBRANCH  20  24
ENDBRANCH   6  16
TORSDOF 5
ENDMDL
MODEL 9
REMARK VINA RESULT:      -7.3      1.422      2.649
REMARK  Name = 
REMARK  8 active torsions:
REMARK  status: ('A' for Active; 'I' for Inactive)
REMARK    1  A    between atoms: C_1  and  O_2
REMARK    2  A    between atoms: O_2  and  C_3
REMARK    3  A    between atoms: C_6  and  C_7
REMARK    4  A    between atoms: C_12  and  C_13
REMARK    5  A    between atoms: C_16  and  O_17
REMARK    6  A    between atoms: O_17  and  C_18
REMARK    7  A    between atoms: C_19  and  O_20
REMARK    8  A    between atoms: O_20  and  C_21
REMARK                            x       y       z     vdW  Elec       q    Type
REMARK                         _______ _______ _______ _____ _____    ______ ____
ROOT
ATOM      1  C   UNL     1       2.720   6.365  19.231  0.00  0.00    +0.000 C 
ATOM      2  C   UNL     1       2.369   5.288  19.948  0.00  0.00    +0.000 C 
ATOM      3  C   UNL     1       3.041   3.986  19.721  0.00  0.00    +0.000 C 
ATOM      4  O   UNL     1       2.704   3.018  20.392  0.00  0.00    +0.000 OA
ATOM      5  C   UNL     1       4.172   3.910  18.720  0.00  0.00    +0.000 C 
ATOM      6  C   UNL     1       3.997   4.932  17.595  0.00  0.00    +0.000 C 
ATOM      7  C   UNL     1       3.759   6.351  18.148  0.00  0.00    +0.000 C 
ENDROOT
BRANCH   1  11
ATOM      8  C   UNL     1       0.708  10.068  19.953  0.00  0.00    +0.000 A 
ATOM      9  C   UNL     1       1.236   9.793  18.691  0.00  0.00    +0.000 A 
ATOM     10  C   UNL     1       1.880   8.578  18.436  0.00  0.00    +0.000 A 
ATOM     11  C   UNL     1       2.021   7.635  19.459  0.00  0.00    +0.000 A 
ATOM     12  C   UNL     1       1.503   7.916  20.727  0.00  0.00    +0.000 A 
ATOM     13  C   UNL     1       0.848   9.125  20.973  0.00  0.00    +0.000 A 
BRANCH   8  15
ATOM     14  C   UNL     1       0.864  12.256  20.839  0.00  0.00    +0.000 C 
ATOM     15  O   UNL     1       0.123  11.296  20.092  0.00  0.00    +0.000 OA
ENDBRANCH   8  15
ENDBRANCH   1  11
BRANCH   6  16
ATOM     16  C   UNL     1       5.168   4.936  16.626  0.00  0.00    +0.000 A 
ATOM     17  C   UNL     1       6.221   5.844  16.757  0.00  0.00    +0.000 A 
ATOM     18  C   UNL     1       7.235   5.886  15.802  0.00  0.00    +0.000 A 
ATOM     19  C   UNL     1       7.224   5.034  14.689  0.00  0.00    +0.000 A 
ATOM     20  C   UNL     1       6.180   4.103  14.547  0.00  0.00    +0.000 A 
ATOM     21  C   UNL     1       5.175   4.056  15.529  0.00  0.00    +0.000 A 
BRANCH  19  22
ATOM     22  O   UNL     1       8.296   5.258  13.864  0.00  0.00    +0.000 OA
ATOM     23  C   UNL     1       8.072   5.823  12.583  0.00  0.00    +0.000 C 
ENDBRANCH  19  22
BRANCH  20  24
ATOM     24  O   UNL     1       6.174   3.296  13.441  0.00  0.00    +0.000 OA
ATOM     25  C   UNL     1       5.196   3.527  12.436  0.00  0.00    +0.000 C 
ENDBRANCH  20  24
ENDBRANCH   6  16
TORSDOF 5
ENDMDL
