MODEL 1
REMARK VINA RESULT:      -5.1      0.000      0.000
REMARK  Name = 
REMARK  10 active torsions:
REMARK  status: ('A' for Active; 'I' for Inactive)
REMARK    1  A    between atoms: C_1  and  C_2
REMARK    2  A    between atoms: C_2  and  C_3
REMARK    3  A    between atoms: C_2  and  N_5
REMARK    4  A    between atoms: C_3  and  O_4
REMARK    5  A    between atoms: C_7  and  C_8
REMARK    6  A    between atoms: C_9  and  C_10
REMARK    7  A    between atoms: C_10  and  N_11
REMARK    8  A    between atoms: N_11  and  C_12
REMARK    9  A    between atoms: N_11  and  S_13
REMARK   10  A    between atoms: S_13  and  C_14
REMARK                            x       y       z     vdW  Elec       q    Type
REMARK                         _______ _______ _______ _____ _____    ______ ____
ROOT
ATOM      1  N   UNL     1      -0.721  11.072  19.167  0.00  0.00    +0.000 N 
ATOM      2  C   UNL     1      -0.818  10.305  20.438  0.00  0.00    +0.000 C 
ATOM      3  C   UNL     1      -0.658  11.085  21.776  0.00  0.00    +0.000 C 
ATOM      4  C   UNL     1      -0.381  10.207  23.009  0.00  0.00    +0.000 C 
ATOM      5  C   UNL     1       0.239  12.368  21.761  0.00  0.00    +0.000 C 
ATOM      6  O   UNL     1      -0.515  13.611  21.507  0.00  0.00    +0.000 OA
ATOM      7  C   UNL     1      -1.835  13.464  21.145  0.00  0.00    +0.000 A 
ATOM      8  N   UNL     1      -2.728  13.797  22.105  0.00  0.00    +0.000 NA
ATOM      9  C   UNL     1      -4.024  13.430  21.892  0.00  0.00    +0.000 A 
ATOM     10  C   UNL     1      -4.463  12.738  20.767  0.00  0.00    +0.000 A 
ATOM     11 BR   UNL     1      -6.243  12.139  20.612  0.00  0.00    +0.000 Br
ATOM     12  C   UNL     1      -3.545  12.450  19.778  0.00  0.00    +0.000 A 
ATOM     13  C   UNL     1      -2.214  12.817  19.980  0.00  0.00    +0.000 A 
ATOM     14  C   UNL     1      -1.250  12.360  18.998  0.00  0.00    +0.000 C 
ATOM     15  O   UNL     1      -1.069  13.067  18.015  0.00  0.00    +0.000 OA
ENDROOT
BRANCH   1  17
ATOM     16  C   UNL     1       0.749   9.370  18.017  0.00  0.00    +0.000 C 
ATOM     17  C   UNL     1      -0.398  10.382  17.882  0.00  0.00    +0.000 C 
BRANCH  17  18
ATOM     18  C   UNL     1      -1.595   9.792  17.109  0.00  0.00    +0.000 C 
BRANCH  18  19
ATOM     19  O   UNL     1      -2.141  10.687  16.147  0.00  0.00    +0.000 OA
ATOM     20  H   UNL     1      -1.444  10.874  15.494  0.00  0.00    +0.000 HD
ENDBRANCH  18  19
ENDBRANCH  17  18
ENDBRANCH   1  17
BRANCH   5  21
ATOM     21  C   UNL     1       1.501  12.450  20.844  0.00  0.00    +0.000 C 
BRANCH  21  22
ATOM     22  N   UNL     1       2.124  13.807  20.587  0.00  0.00    +0.000 NA
ATOM     23  C   UNL     1       3.424  14.014  21.271  0.00  0.00    +0.000 C 
BRANCH  22  24
ATOM     24  S   UNL     1       2.315  14.133  18.884  0.00  0.00    +0.000 S 
ATOM     25  C   UNL     1       4.007  14.675  18.798  0.00  0.00    +0.000 C 
ATOM     26  O   UNL     1       2.242  12.876  18.170  0.00  0.00    +0.000 OA
ATOM     27  O   UNL     1       1.442  15.232  18.540  0.00  0.00    +0.000 OA
ENDBRANCH  22  24
ENDBRANCH  21  22
ENDBRANCH   5  21
TORSDOF 6
ENDMDL
MODEL 2
REMARK VINA RESULT:      -5.0      7.343      9.508
REMARK  Name = 
REMARK  10 active torsions:
REMARK  status: ('A' for Active; 'I' for Inactive)
REMARK    1  A    between atoms: C_1  and  C_2
REMARK    2  A    between atoms: C_2  and  C_3
REMARK    3  A    between atoms: C_2  and  N_5
REMARK    4  A    between atoms: C_3  and  O_4
REMARK    5  A    between atoms: C_7  and  C_8
REMARK    6  A    between atoms: C_9  and  C_10
REMARK    7  A    between atoms: C_10  and  N_11
REMARK    8  A    between atoms: N_11  and  C_12
REMARK    9  A    between atoms: N_11  and  S_13
REMARK   10  A    between atoms: S_13  and  C_14
REMARK                            x       y       z     vdW  Elec       q    Type
REMARK                         _______ _______ _______ _____ _____    ______ ____
ROOT
ATOM      1  N   UNL     1       3.232   3.819  19.286  0.00  0.00    +0.000 N 
ATOM      2  C   UNL     1       4.491   4.475  19.728  0.00  0.00    +0.000 C 
ATOM      3  C   UNL     1       5.077   5.608  18.835  0.00  0.00    +0.000 C 
ATOM      4  C   UNL     1       6.544   5.970  19.126  0.00  0.00    +0.000 C 
ATOM      5  C   UNL     1       4.788   5.539  17.298  0.00  0.00    +0.000 C 
ATOM      6  O   UNL     1       3.585   6.291  16.891  0.00  0.00    +0.000 OA
ATOM      7  C   UNL     1       2.797   6.783  17.906  0.00  0.00    +0.000 A 
ATOM      8  N   UNL     1       2.871   8.122  18.084  0.00  0.00    +0.000 NA
ATOM      9  C   UNL     1       2.318   8.622  19.226  0.00  0.00    +0.000 A 
ATOM     10  C   UNL     1       1.703   7.840  20.201  0.00  0.00    +0.000 A 
ATOM     11 BR   UNL     1       1.090   8.586  21.819  0.00  0.00    +0.000 Br
ATOM     12  C   UNL     1       1.596   6.483  19.976  0.00  0.00    +0.000 A 
ATOM     13  C   UNL     1       2.157   5.954  18.814  0.00  0.00    +0.000 A 
ATOM     14  C   UNL     1       2.167   4.510  18.686  0.00  0.00    +0.000 C 
ATOM     15  O   UNL     1       1.181   3.981  18.191  0.00  0.00    +0.000 OA
ENDROOT
BRANCH   1  17
ATOM     16  C   UNL     1       3.515   1.327  18.997  0.00  0.00    +0.000 C 
ATOM     17  C   UNL     1       2.858   2.464  19.792  0.00  0.00    +0.000 C 
BRANCH  17  18
ATOM     18  C   UNL     1       2.986   2.249  21.313  0.00  0.00    +0.000 C 
BRANCH  18  19
ATOM     19  O   UNL     1       1.806   2.589  22.032  0.00  0.00    +0.000 OA
ATOM     20  H   UNL     1       1.784   3.559  22.113  0.00  0.00    +0.000 HD
ENDBRANCH  18  19
ENDBRANCH  17  18
ENDBRANCH   1  17
BRANCH   5  21
ATOM     21  C   UNL     1       4.690   4.163  16.565  0.00  0.00    +0.000 C 
BRANCH  21  22
ATOM     22  N   UNL     1       5.632   3.889  15.409  0.00  0.00    +0.000 NA
ATOM     23  C   UNL     1       4.988   3.967  14.075  0.00  0.00    +0.000 C 
BRANCH  22  24
ATOM     24  S   UNL     1       7.027   4.936  15.433  0.00  0.00    +0.000 S 
ATOM     25  C   UNL     1       7.627   4.792  13.765  0.00  0.00    +0.000 C 
ATOM     26  O   UNL     1       6.569   6.300  15.596  0.00  0.00    +0.000 OA
ATOM     27  O   UNL     1       7.996   4.367  16.342  0.00  0.00    +0.000 OA
ENDBRANCH  22  24
ENDBRANCH  21  22
ENDBRANCH   5  21
TORSDOF 6
ENDMDL
MODEL 3
REMARK VINA RESULT:      -4.9      3.524      5.772
REMARK  Name = 
REMARK  10 active torsions:
REMARK  status: ('A' for Active; 'I' for Inactive)
REMARK    1  A    between atoms: C_1  and  C_2
REMARK    2  A    between atoms: C_2  and  C_3
REMARK    3  A    between atoms: C_2  and  N_5
REMARK    4  A    between atoms: C_3  and  O_4
REMARK    5  A    between atoms: C_7  and  C_8
REMARK    6  A    between atoms: C_9  and  C_10
REMARK    7  A    between atoms: C_10  and  N_11
REMARK    8  A    between atoms: N_11  and  C_12
REMARK    9  A    between atoms: N_11  and  S_13
REMARK   10  A    between atoms: S_13  and  C_14
REMARK                            x       y       z     vdW  Elec       q    Type
REMARK                         _______ _______ _______ _____ _____    ______ ____
ROOT
ATOM      1  N   UNL     1      -2.042  12.011  19.616  0.00  0.00    +0.000 N 
ATOM      2  C   UNL     1      -2.368  13.461  19.667  0.00  0.00    +0.000 C 
ATOM      3  C   UNL     1      -2.003  14.247  20.961  0.00  0.00    +0.000 C 
ATOM      4  C   UNL     1      -2.697  15.612  21.108  0.00  0.00    +0.000 C 
ATOM      5  C   UNL     1      -1.990  13.451  22.309  0.00  0.00    +0.000 C 
ATOM      6  O   UNL     1      -0.663  12.908  22.660  0.00  0.00    +0.000 OA
ATOM      7  C   UNL     1       0.315  13.010  21.696  0.00  0.00    +0.000 A 
ATOM      8  N   UNL     1       1.266  13.938  21.947  0.00  0.00    +0.000 NA
ATOM      9  C   UNL     1       2.101  14.256  20.918  0.00  0.00    +0.000 A 
ATOM     10  C   UNL     1       2.022  13.692  19.647  0.00  0.00    +0.000 A 
ATOM     11 BR   UNL     1       3.119  14.286  18.235  0.00  0.00    +0.000 Br
ATOM     12  C   UNL     1       1.075  12.712  19.426  0.00  0.00    +0.000 A 
ATOM     13  C   UNL     1       0.211  12.375  20.469  0.00  0.00    +0.000 A 
ATOM     14  C   UNL     1      -0.870  11.461  20.157  0.00  0.00    +0.000 C 
ATOM     15  O   UNL     1      -0.639  10.262  20.251  0.00  0.00    +0.000 OA
ENDROOT
BRANCH   1  17
ATOM     16  C   UNL     1      -4.203  11.516  18.406  0.00  0.00    +0.000 C 
ATOM     17  C   UNL     1      -2.746  11.103  18.661  0.00  0.00    +0.000 C 
BRANCH  17  18
ATOM     18  C   UNL     1      -2.001  10.791  17.348  0.00  0.00    +0.000 C 
BRANCH  18  19
ATOM     19  O   UNL     1      -1.910  11.908  16.472  0.00  0.00    +0.000 OA
ATOM     20  H   UNL     1      -2.599  12.542  16.736  0.00  0.00    +0.000 HD
ENDBRANCH  18  19
ENDBRANCH  17  18
ENDBRANCH   1  17
BRANCH   5  21
ATOM     21  C   UNL     1      -2.999  12.286  22.559  0.00  0.00    +0.000 C 
BRANCH  21  22
ATOM     22  N   UNL     1      -4.057  12.460  23.630  0.00  0.00    +0.000 NA
ATOM     23  C   UNL     1      -3.771  13.556  24.589  0.00  0.00    +0.000 C 
BRANCH  22  24
ATOM     24  S   UNL     1      -5.648  12.694  22.953  0.00  0.00    +0.000 S 
ATOM     25  C   UNL     1      -5.776  14.467  22.911  0.00  0.00    +0.000 C 
ATOM     26  O   UNL     1      -5.627  12.243  21.578  0.00  0.00    +0.000 OA
ATOM     27  O   UNL     1      -6.613  12.165  23.891  0.00  0.00    +0.000 OA
ENDBRANCH  22  24
ENDBRANCH  21  22
ENDBRANCH   5  21
TORSDOF 6
ENDMDL
MODEL 4
REMARK VINA RESULT:      -4.9      3.424      6.165
REMARK  Name = 
REMARK  10 active torsions:
REMARK  status: ('A' for Active; 'I' for Inactive)
REMARK    1  A    between atoms: C_1  and  C_2
REMARK    2  A    between atoms: C_2  and  C_3
REMARK    3  A    between atoms: C_2  and  N_5
REMARK    4  A    between atoms: C_3  and  O_4
REMARK    5  A    between atoms: C_7  and  C_8
REMARK    6  A    between atoms: C_9  and  C_10
REMARK    7  A    between atoms: C_10  and  N_11
REMARK    8  A    between atoms: N_11  and  C_12
REMARK    9  A    between atoms: N_11  and  S_13
REMARK   10  A    between atoms: S_13  and  C_14
REMARK                            x       y       z     vdW  Elec       q    Type
REMARK                         _______ _______ _______ _____ _____    ______ ____
ROOT
ATOM      1  N   UNL     1      -0.463  11.908  21.512  0.00  0.00    +0.000 N 
ATOM      2  C   UNL     1       0.300  10.960  20.656  0.00  0.00    +0.000 C 
ATOM      3  C   UNL     1       0.417  11.280  19.137  0.00  0.00    +0.000 C 
ATOM      4  C   UNL     1       0.867  10.099  18.258  0.00  0.00    +0.000 C 
ATOM      5  C   UNL     1      -0.752  12.086  18.476  0.00  0.00    +0.000 C 
ATOM      6  O   UNL     1      -0.527  13.545  18.464  0.00  0.00    +0.000 OA
ATOM      7  C   UNL     1       0.556  14.004  19.178  0.00  0.00    +0.000 A 
ATOM      8  N   UNL     1       1.600  14.417  18.423  0.00  0.00    +0.000 NA
ATOM      9  C   UNL     1       2.779  14.636  19.072  0.00  0.00    +0.000 A 
ATOM     10  C   UNL     1       2.962  14.451  20.440  0.00  0.00    +0.000 A 
ATOM     11 BR   UNL     1       4.657  14.635  21.241  0.00  0.00    +0.000 Br
ATOM     12  C   UNL     1       1.872  14.076  21.199  0.00  0.00    +0.000 A 
ATOM     13  C   UNL     1       0.657  13.847  20.551  0.00  0.00    +0.000 A 
ATOM     14  C   UNL     1      -0.422  13.302  21.351  0.00  0.00    +0.000 C 
ATOM     15  O   UNL     1      -1.138  14.096  21.947  0.00  0.00    +0.000 OA
ENDROOT
BRANCH   1  17
ATOM     16  C   UNL     1      -2.473  11.908  23.040  0.00  0.00    +0.000 C 
ATOM     17  C   UNL     1      -1.016  11.472  22.829  0.00  0.00    +0.000 C 
BRANCH  17  18
ATOM     18  C   UNL     1      -0.801   9.990  23.198  0.00  0.00    +0.000 C 
BRANCH  18  19
ATOM     19  O   UNL     1       0.443   9.744  23.842  0.00  0.00    +0.000 OA
ATOM     20  H   UNL     1       0.453  10.265  24.664  0.00  0.00    +0.000 HD
ENDBRANCH  18  19
ENDBRANCH  17  18
ENDBRANCH   1  17
BRANCH   5  21
ATOM     21  C   UNL     1      -2.226  11.892  18.954  0.00  0.00    +0.000 C 
BRANCH  21  22
ATOM     22  N   UNL     1      -3.254  11.407  17.953  0.00  0.00    +0.000 NA
ATOM     23  C   UNL     1      -3.106   9.978  17.580  0.00  0.00    +0.000 C 
BRANCH  22  24
ATOM     24  S   UNL     1      -4.888  11.689  18.496  0.00  0.00    +0.000 S 
ATOM     25  C   UNL     1      -5.636  12.418  17.057  0.00  0.00    +0.000 C 
ATOM     26  O   UNL     1      -5.528  10.406  18.696  0.00  0.00    +0.000 OA
ATOM     27  O   UNL     1      -4.841  12.667  19.560  0.00  0.00    +0.000 OA
ENDBRANCH  22  24
ENDBRANCH  21  22
ENDBRANCH   5  21
TORSDOF 6
ENDMDL
MODEL 5
REMARK VINA RESULT:      -4.9      3.496      6.043
REMARK  Name = 
REMARK  10 active torsions:
REMARK  status: ('A' for Active; 'I' for Inactive)
REMARK    1  A    between atoms: C_1  and  C_2
REMARK    2  A    between atoms: C_2  and  C_3
REMARK    3  A    between atoms: C_2  and  N_5
REMARK    4  A    between atoms: C_3  and  O_4
REMARK    5  A    between atoms: C_7  and  C_8
REMARK    6  A    between atoms: C_9  and  C_10
REMARK    7  A    between atoms: C_10  and  N_11
REMARK    8  A    between atoms: N_11  and  C_12
REMARK    9  A    between atoms: N_11  and  S_13
REMARK   10  A    between atoms: S_13  and  C_14
REMARK                            x       y       z     vdW  Elec       q    Type
REMARK                         _______ _______ _______ _____ _____    ______ ____
ROOT
ATOM      1  N   UNL     1      -0.669  10.905  20.875  0.00  0.00    +0.000 N 
ATOM      2  C   UNL     1      -1.083  10.809  19.449  0.00  0.00    +0.000 C 
ATOM      3  C   UNL     1      -1.905  11.986  18.847  0.00  0.00    +0.000 C 
ATOM      4  C   UNL     1      -2.623  11.666  17.524  0.00  0.00    +0.000 C 
ATOM      5  C   UNL     1      -2.818  12.803  19.823  0.00  0.00    +0.000 C 
ATOM      6  O   UNL     1      -2.154  13.992  20.393  0.00  0.00    +0.000 OA
ATOM      7  C   UNL     1      -0.806  14.119  20.147  0.00  0.00    +0.000 A 
ATOM      8  N   UNL     1      -0.480  15.078  19.251  0.00  0.00    +0.000 NA
ATOM      9  C   UNL     1       0.800  15.072  18.783  0.00  0.00    +0.000 A 
ATOM     10  C   UNL     1       1.766  14.144  19.165  0.00  0.00    +0.000 A 
ATOM     11 BR   UNL     1       3.472  14.112  18.367  0.00  0.00    +0.000 Br
ATOM     12  C   UNL     1       1.426  13.204  20.116  0.00  0.00    +0.000 A 
ATOM     13  C   UNL     1       0.119  13.195  20.605  0.00  0.00    +0.000 A 
ATOM     14  C   UNL     1      -0.248  12.098  21.481  0.00  0.00    +0.000 C 
ATOM     15  O   UNL     1      -0.032  12.237  22.678  0.00  0.00    +0.000 OA
ENDROOT
BRANCH   1  17
ATOM     16  C   UNL     1       1.148   9.242  21.434  0.00  0.00    +0.000 C 
ATOM     17  C   UNL     1      -0.308   9.679  21.649  0.00  0.00    +0.000 C 
BRANCH  17  18
ATOM     18  C   UNL     1      -0.690   9.683  23.143  0.00  0.00    +0.000 C 
BRANCH  18  19
ATOM     19  O   UNL     1       0.435   9.643  24.013  0.00  0.00    +0.000 OA
ATOM     20  H   UNL     1       0.098   9.532  24.919  0.00  0.00    +0.000 HD
ENDBRANCH  18  19
ENDBRANCH  17  18
ENDBRANCH   1  17
BRANCH   5  21
ATOM     21  C   UNL     1      -3.531  12.104  21.024  0.00  0.00    +0.000 C 
BRANCH  21  22
ATOM     22  N   UNL     1      -4.610  12.864  21.768  0.00  0.00    +0.000 NA
ATOM     23  C   UNL     1      -5.991  12.481  21.384  0.00  0.00    +0.000 C 
BRANCH  22  24
ATOM     24  S   UNL     1      -4.439  12.726  23.499  0.00  0.00    +0.000 S 
ATOM     25  C   UNL     1      -4.067  14.401  23.969  0.00  0.00    +0.000 C 
ATOM     26  O   UNL     1      -5.736  12.413  24.060  0.00  0.00    +0.000 OA
ATOM     27  O   UNL     1      -3.293  11.887  23.768  0.00  0.00    +0.000 OA
ENDBRANCH  22  24
ENDBRANCH  21  22
ENDBRANCH   5  21
TORSDOF 6
ENDMDL
MODEL 6
REMARK VINA RESULT:      -4.8      3.597      6.152
REMARK  Name = 
REMARK  10 active torsions:
REMARK  status: ('A' for Active; 'I' for Inactive)
REMARK    1  A    between atoms: C_1  and  C_2
REMARK    2  A    between atoms: C_2  and  C_3
REMARK    3  A    between atoms: C_2  and  N_5
REMARK    4  A    between atoms: C_3  and  O_4
REMARK    5  A    between atoms: C_7  and  C_8
REMARK    6  A    between atoms: C_9  and  C_10
REMARK    7  A    between atoms: C_10  and  N_11
REMARK    8  A    between atoms: N_11  and  C_12
REMARK    9  A    between atoms: N_11  and  S_13
REMARK   10  A    between atoms: S_13  and  C_14
REMARK                            x       y       z     vdW  Elec       q    Type
REMARK                         _______ _______ _______ _____ _____    ______ ____
ROOT
ATOM      1  N   UNL     1      -0.386  11.651  21.268  0.00  0.00    +0.000 N 
ATOM      2  C   UNL     1      -0.830  11.338  19.884  0.00  0.00    +0.000 C 
ATOM      3  C   UNL     1      -1.802  12.334  19.186  0.00  0.00    +0.000 C 
ATOM      4  C   UNL     1      -2.517  11.778  17.942  0.00  0.00    +0.000 C 
ATOM      5  C   UNL     1      -2.772  13.156  20.099  0.00  0.00    +0.000 C 
ATOM      6  O   UNL     1      -2.234  14.471  20.496  0.00  0.00    +0.000 OA
ATOM      7  C   UNL     1      -0.919  14.717  20.177  0.00  0.00    +0.000 A 
ATOM      8  N   UNL     1      -0.734  15.591  19.161  0.00  0.00    +0.000 NA
ATOM      9  C   UNL     1       0.524  15.672  18.641  0.00  0.00    +0.000 A 
ATOM     10  C   UNL     1       1.602  14.911  19.086  0.00  0.00    +0.000 A 
ATOM     11 BR   UNL     1       3.275  14.973  18.221  0.00  0.00    +0.000 Br
ATOM     12  C   UNL     1       1.403  14.061  20.154  0.00  0.00    +0.000 A 
ATOM     13  C   UNL     1       0.122  13.965  20.699  0.00  0.00    +0.000 A 
ATOM     14  C   UNL     1      -0.088  12.949  21.712  0.00  0.00    +0.000 C 
ATOM     15  O   UNL     1       0.147  13.255  22.873  0.00  0.00    +0.000 OA
ENDROOT
BRANCH   1  17
ATOM     16  C   UNL     1      -0.897  10.091  23.188  0.00  0.00    +0.000 C 
ATOM     17  C   UNL     1       0.139  10.576  22.164  0.00  0.00    +0.000 C 
BRANCH  17  18
ATOM     18  C   UNL     1       0.850   9.399  21.466  0.00  0.00    +0.000 C 
BRANCH  18  19
ATOM     19  O   UNL     1       1.804   8.745  22.295  0.00  0.00    +0.000 OA
ATOM     20  H   UNL     1       2.449   8.311  21.710  0.00  0.00    +0.000 HD
ENDBRANCH  18  19
ENDBRANCH  17  18
ENDBRANCH   1  17
BRANCH   5  21
ATOM     21  C   UNL     1      -3.362  12.532  21.404  0.00  0.00    +0.000 C 
BRANCH  21  22
ATOM     22  N   UNL     1      -4.643  13.111  21.969  0.00  0.00    +0.000 NA
ATOM     23  C   UNL     1      -5.876  12.475  21.443  0.00  0.00    +0.000 C 
BRANCH  22  24
ATOM     24  S   UNL     1      -4.674  13.064  23.713  0.00  0.00    +0.000 S 
ATOM     25  C   UNL     1      -6.399  12.783  24.045  0.00  0.00    +0.000 C 
ATOM     26  O   UNL     1      -3.966  11.879  24.148  0.00  0.00    +0.000 OA
ATOM     27  O   UNL     1      -4.299  14.372  24.201  0.00  0.00    +0.000 OA
ENDBRANCH  22  24
ENDBRANCH  21  22
ENDBRANCH   5  21
TORSDOF 6
ENDMDL
MODEL 7
REMARK VINA RESULT:      -4.8      4.327      7.306
REMARK  Name = 
REMARK  10 active torsions:
REMARK  status: ('A' for Active; 'I' for Inactive)
REMARK    1  A    between atoms: C_1  and  C_2
REMARK    2  A    between atoms: C_2  and  C_3
REMARK    3  A    between atoms: C_2  and  N_5
REMARK    4  A    between atoms: C_3  and  O_4
REMARK    5  A    between atoms: C_7  and  C_8
REMARK    6  A    between atoms: C_9  and  C_10
REMARK    7  A    between atoms: C_10  and  N_11
REMARK    8  A    between atoms: N_11  and  C_12
REMARK    9  A    between atoms: N_11  and  S_13
REMARK   10  A    between atoms: S_13  and  C_14
REMARK                            x       y       z     vdW  Elec       q    Type
REMARK                         _______ _______ _______ _____ _____    ______ ____
ROOT
ATOM      1  N   UNL     1      -1.860  15.046  23.261  0.00  0.00    +0.000 N 
ATOM      2  C   UNL     1      -1.297  13.697  23.537  0.00  0.00    +0.000 C 
ATOM      3  C   UNL     1      -1.583  12.562  22.511  0.00  0.00    +0.000 C 
ATOM      4  C   UNL     1      -1.318  11.138  23.028  0.00  0.00    +0.000 C 
ATOM      5  C   UNL     1      -2.916  12.647  21.693  0.00  0.00    +0.000 C 
ATOM      6  O   UNL     1      -2.768  13.334  20.395  0.00  0.00    +0.000 OA
ATOM      7  C   UNL     1      -1.560  13.953  20.163  0.00  0.00    +0.000 A 
ATOM      8  N   UNL     1      -0.761  13.324  19.271  0.00  0.00    +0.000 NA
ATOM      9  C   UNL     1       0.533  13.748  19.200  0.00  0.00    +0.000 A 
ATOM     10  C   UNL     1       1.064  14.766  19.987  0.00  0.00    +0.000 A 
ATOM     11 BR   UNL     1       2.897  15.198  19.933  0.00  0.00    +0.000 Br
ATOM     12  C   UNL     1       0.220  15.426  20.857  0.00  0.00    +0.000 A 
ATOM     13  C   UNL     1      -1.107  15.005  20.943  0.00  0.00    +0.000 A 
ATOM     14  C   UNL     1      -1.923  15.611  21.978  0.00  0.00    +0.000 C 
ATOM     15  O   UNL     1      -2.500  16.654  21.700  0.00  0.00    +0.000 OA
ENDROOT
BRANCH   1  17
ATOM     16  C   UNL     1      -3.431  15.966  25.010  0.00  0.00    +0.000 C 
ATOM     17  C   UNL     1      -2.041  16.038  24.362  0.00  0.00    +0.000 C 
BRANCH  17  18
ATOM     18  C   UNL     1      -0.919  16.092  25.418  0.00  0.00    +0.000 C 
BRANCH  18  19
ATOM     19  O   UNL     1      -1.298  15.538  26.673  0.00  0.00    +0.000 OA
ATOM     20  H   UNL     1      -2.181  15.145  26.563  0.00  0.00    +0.000 HD
ENDBRANCH  18  19
ENDBRANCH  17  18
ENDBRANCH   1  17
BRANCH   5  21
ATOM     21  C   UNL     1      -4.211  13.239  22.334  0.00  0.00    +0.000 C 
BRANCH  21  22
ATOM     22  N   UNL     1      -5.047  12.349  23.232  0.00  0.00    +0.000 NA
ATOM     23  C   UNL     1      -4.723  12.473  24.675  0.00  0.00    +0.000 C 
BRANCH  22  24
ATOM     24  S   UNL     1      -6.758  12.606  23.007  0.00  0.00    +0.000 S 
ATOM     25  C   UNL     1      -6.796  14.226  22.274  0.00  0.00    +0.000 C 
ATOM     26  O   UNL     1      -7.227  11.679  21.998  0.00  0.00    +0.000 OA
ATOM     27  O   UNL     1      -7.377  12.655  24.312  0.00  0.00    +0.000 OA
ENDBRANCH  22  24
ENDBRANCH  21  22
ENDBRANCH   5  21
TORSDOF 6
ENDMDL
MODEL 8
REMARK VINA RESULT:      -4.8      3.333      6.332
REMARK  Name = 
REMARK  10 active torsions:
REMARK  status: ('A' for Active; 'I' for Inactive)
REMARK    1  A    between atoms: C_1  and  C_2
REMARK    2  A    between atoms: C_2  and  C_3
REMARK    3  A    between atoms: C_2  and  N_5
REMARK    4  A    between atoms: C_3  and  O_4
REMARK    5  A    between atoms: C_7  and  C_8
REMARK    6  A    between atoms: C_9  and  C_10
REMARK    7  A    between atoms: C_10  and  N_11
REMARK    8  A    between atoms: N_11  and  C_12
REMARK    9  A    between atoms: N_11  and  S_13
REMARK   10  A    between atoms: S_13  and  C_14
REMARK                            x       y       z     vdW  Elec       q    Type
REMARK                         _______ _______ _______ _____ _____    ______ ____
ROOT
ATOM      1  N   UNL     1      -1.368  13.246  21.432  0.00  0.00    +0.000 N 
ATOM      2  C   UNL     1      -0.731  11.905  21.529  0.00  0.00    +0.000 C 
ATOM      3  C   UNL     1      -0.292  11.208  20.209  0.00  0.00    +0.000 C 
ATOM      4  C   UNL     1      -0.007   9.701  20.335  0.00  0.00    +0.000 C 
ATOM      5  C   UNL     1      -1.102  11.542  18.911  0.00  0.00    +0.000 C 
ATOM      6  O   UNL     1      -0.528  12.654  18.128  0.00  0.00    +0.000 OA
ATOM      7  C   UNL     1       0.503  13.350  18.717  0.00  0.00    +0.000 A 
ATOM      8  N   UNL     1       1.725  13.109  18.191  0.00  0.00    +0.000 NA
ATOM      9  C   UNL     1       2.799  13.568  18.895  0.00  0.00    +0.000 A 
ATOM     10  C   UNL     1       2.704  14.249  20.106  0.00  0.00    +0.000 A 
ATOM     11 BR   UNL     1       4.238  14.725  21.091  0.00  0.00    +0.000 Br
ATOM     12  C   UNL     1       1.446  14.527  20.601  0.00  0.00    +0.000 A 
ATOM     13  C   UNL     1       0.336  14.064  19.894  0.00  0.00    +0.000 A 
ATOM     14  C   UNL     1      -0.961  14.233  20.521  0.00  0.00    +0.000 C 
ATOM     15  O   UNL     1      -1.548  15.288  20.324  0.00  0.00    +0.000 OA
ENDROOT
BRANCH   1  17
ATOM     16  C   UNL     1      -3.470  12.914  22.792  0.00  0.00    +0.000 C 
ATOM     17  C   UNL     1      -2.219  13.769  22.542  0.00  0.00    +0.000 C 
BRANCH  17  18
ATOM     18  C   UNL     1      -1.487  14.111  23.856  0.00  0.00    +0.000 C 
BRANCH  18  19
ATOM     19  O   UNL     1      -0.385  14.992  23.674  0.00  0.00    +0.000 OA
ATOM     20  H   UNL     1       0.427  14.462  23.754  0.00  0.00    +0.000 HD
ENDBRANCH  18  19
ENDBRANCH  17  18
ENDBRANCH   1  17
BRANCH   5  21
ATOM     21  C   UNL     1      -2.636  11.825  18.978  0.00  0.00    +0.000 C 
BRANCH  21  22
ATOM     22  N   UNL     1      -3.517  11.315  17.856  0.00  0.00    +0.000 NA
ATOM     23  C   UNL     1      -3.353   9.868  17.570  0.00  0.00    +0.000 C 
BRANCH  22  24
ATOM     24  S   UNL     1      -5.205  11.654  18.136  0.00  0.00    +0.000 S 
ATOM     25  C   UNL     1      -5.138  12.723  19.555  0.00  0.00    +0.000 C 
ATOM     26  O   UNL     1      -5.697  12.453  17.033  0.00  0.00    +0.000 OA
ATOM     27  O   UNL     1      -5.855  10.415  18.499  0.00  0.00    +0.000 OA
ENDBRANCH  22  24
ENDBRANCH  21  22
ENDBRANCH   5  21
TORSDOF 6
ENDMDL
MODEL 9
REMARK VINA RESULT:      -4.7      3.615      5.791
REMARK  Name = 
REMARK  10 active torsions:
REMARK  status: ('A' for Active; 'I' for Inactive)
REMARK    1  A    between atoms: C_1  and  C_2
REMARK    2  A    between atoms: C_2  and  C_3
REMARK    3  A    between atoms: C_2  and  N_5
REMARK    4  A    between atoms: C_3  and  O_4
REMARK    5  A    between atoms: C_7  and  C_8
REMARK    6  A    between atoms: C_9  and  C_10
REMARK    7  A    between atoms: C_10  and  N_11
REMARK    8  A    between atoms: N_11  and  C_12
REMARK    9  A    between atoms: N_11  and  S_13
REMARK   10  A    between atoms: S_13  and  C_14
REMARK                            x       y       z     vdW  Elec       q    Type
REMARK                         _______ _______ _______ _____ _____    ______ ____
ROOT
ATOM      1  N   UNL     1      -2.185  11.485  17.518  0.00  0.00    +0.000 N 
ATOM      2  C   UNL     1      -1.185  12.579  17.645  0.00  0.00    +0.000 C 
ATOM      3  C   UNL     1      -0.653  12.920  19.068  0.00  0.00    +0.000 C 
ATOM      4  C   UNL     1       0.060  14.279  19.185  0.00  0.00    +0.000 C 
ATOM      5  C   UNL     1      -1.610  12.658  20.279  0.00  0.00    +0.000 C 
ATOM      6  O   UNL     1      -1.434  11.326  20.891  0.00  0.00    +0.000 OA
ATOM      7  C   UNL     1      -0.610  10.449  20.224  0.00  0.00    +0.000 A 
ATOM      8  N   UNL     1       0.593  10.242  20.808  0.00  0.00    +0.000 NA
ATOM      9  C   UNL     1       1.534   9.593  20.065  0.00  0.00    +0.000 A 
ATOM     10  C   UNL     1       1.328   9.150  18.761  0.00  0.00    +0.000 A 
ATOM     11 BR   UNL     1       2.722   8.389  17.748  0.00  0.00    +0.000 Br
ATOM     12  C   UNL     1       0.079   9.328  18.201  0.00  0.00    +0.000 A 
ATOM     13  C   UNL     1      -0.895   9.992  18.947  0.00  0.00    +0.000 A 
ATOM     14  C   UNL     1      -2.141  10.303  18.272  0.00  0.00    +0.000 C 
ATOM     15  O   UNL     1      -3.019   9.450  18.289  0.00  0.00    +0.000 OA
ENDROOT
BRANCH   1  17
ATOM     16  C   UNL     1      -2.669  10.281  15.351  0.00  0.00    +0.000 C 
ATOM     17  C   UNL     1      -3.075  11.400  16.321  0.00  0.00    +0.000 C 
BRANCH  17  18
ATOM     18  C   UNL     1      -4.591  11.393  16.602  0.00  0.00    +0.000 C 
BRANCH  18  19
ATOM     19  O   UNL     1      -5.119  12.684  16.882  0.00  0.00    +0.000 OA
ATOM     20  H   UNL     1      -5.488  12.659  17.782  0.00  0.00    +0.000 HD
ENDBRANCH  18  19
ENDBRANCH  17  18
ENDBRANCH   1  17
BRANCH   5  21
ATOM     21  C   UNL     1      -3.153  12.851  20.135  0.00  0.00    +0.000 C 
BRANCH  21  22
ATOM     22  N   UNL     1      -4.023  12.686  21.364  0.00  0.00    +0.000 NA
ATOM     23  C   UNL     1      -3.677  13.605  22.476  0.00  0.00    +0.000 C 
BRANCH  22  24
ATOM     24  S   UNL     1      -5.721  12.845  20.997  0.00  0.00    +0.000 S 
ATOM     25  C   UNL     1      -6.096  14.449  21.667  0.00  0.00    +0.000 C 
ATOM     26  O   UNL     1      -5.868  12.946  19.560  0.00  0.00    +0.000 OA
ATOM     27  O   UNL     1      -6.435  11.835  21.745  0.00  0.00    +0.000 OA
ENDBRANCH  22  24
ENDBRANCH  21  22
ENDBRANCH   5  21
TORSDOF 6
ENDMDL
