MODEL 1
REMARK VINA RESULT:      -7.5      0.000      0.000
REMARK  Name = 
REMARK  5 active torsions:
REMARK  status: ('A' for Active; 'I' for Inactive)
REMARK    1  A    between atoms: C_2  and  O_3
REMARK    2  A    between atoms: C_2  and  C_4
REMARK    3  A    between atoms: C_4  and  C_5
REMARK    4  A    between atoms: N_7  and  C_8
REMARK    5  A    between atoms: C_8  and  C_9
REMARK                            x       y       z     vdW  Elec       q    Type
REMARK                         _______ _______ _______ _____ _____    ______ ____
ROOT
ATOM      1  C   UNL     1       5.131   5.438  18.292  0.00  0.00    +0.000 A 
ATOM      2  N   UNL     1       4.702   6.676  18.011  0.00  0.00    +0.000 NA
ATOM      3  N   UNL     1       3.357   6.531  17.877  0.00  0.00    +0.000 N 
ATOM      4  C   UNL     1       2.935   5.223  17.951  0.00  0.00    +0.000 A 
ATOM      5  C   UNL     1       1.674   4.625  17.817  0.00  0.00    +0.000 A 
ATOM      6  C   UNL     1       1.600   3.233  17.941  0.00  0.00    +0.000 A 
ATOM      7  C   UNL     1       2.739   2.472  18.198  0.00  0.00    +0.000 A 
ATOM      8  C   UNL     1       3.988   3.084  18.350  0.00  0.00    +0.000 A 
ATOM      9  C   UNL     1       4.083   4.482  18.220  0.00  0.00    +0.000 A 
ENDROOT
BRANCH   1  10
ATOM     10  C   UNL     1       6.568   5.201  18.604  0.00  0.00    +0.000 C 
BRANCH  10  12
ATOM     11  O   UNL     1       8.109   4.217  17.030  0.00  0.00    +0.000 OA
ATOM     12  C   UNL     1       7.417   5.172  17.359  0.00  0.00    +0.000 C 
BRANCH  12  13
ATOM     13  O   UNL     1       7.391   6.324  16.646  0.00  0.00    +0.000 OA
ATOM     14  H   UNL     1       8.279   6.613  16.355  0.00  0.00    +0.000 HD
ENDBRANCH  12  13
ENDBRANCH  10  12
ENDBRANCH   1  10
BRANCH   3  15
ATOM     15  C   UNL     1       2.530   7.705  17.602  0.00  0.00    +0.000 C 
BRANCH  15  16
ATOM     16  C   UNL     1       1.910   8.272  18.860  0.00  0.00    +0.000 A 
ATOM     17  C   UNL     1       1.981   7.567  20.072  0.00  0.00    +0.000 A 
ATOM     18  C   UNL     1       1.363   8.064  21.222  0.00  0.00    +0.000 A 
ATOM     19  C   UNL     1       0.685   9.278  21.175  0.00  0.00    +0.000 A 
ATOM     20 CL   UNL     1      -0.118   9.866  22.578  0.00  0.00    +0.000 Cl
ATOM     21  C   UNL     1       0.644  10.014  19.992  0.00  0.00    +0.000 A 
ATOM     22  C   UNL     1       1.258   9.516  18.839  0.00  0.00    +0.000 A 
ENDBRANCH  15  16
ENDBRANCH   3  15
TORSDOF 5
ENDMDL
MODEL 2
REMARK VINA RESULT:      -7.4      0.201      1.275
REMARK  Name = 
REMARK  5 active torsions:
REMARK  status: ('A' for Active; 'I' for Inactive)
REMARK    1  A    between atoms: C_2  and  O_3
REMARK    2  A    between atoms: C_2  and  C_4
REMARK    3  A    between atoms: C_4  and  C_5
REMARK    4  A    between atoms: N_7  and  C_8
REMARK    5  A    between atoms: C_8  and  C_9
REMARK                            x       y       z     vdW  Elec       q    Type
REMARK                         _______ _______ _______ _____ _____    ______ ____
ROOT
ATOM      1  C   UNL     1       5.133   5.641  18.249  0.00  0.00    +0.000 A 
ATOM      2  N   UNL     1       4.678   6.879  18.019  0.00  0.00    +0.000 NA
ATOM      3  N   UNL     1       3.335   6.716  17.898  0.00  0.00    +0.000 N 
ATOM      4  C   UNL     1       2.936   5.400  17.932  0.00  0.00    +0.000 A 
ATOM      5  C   UNL     1       1.684   4.784  17.795  0.00  0.00    +0.000 A 
ATOM      6  C   UNL     1       1.635   3.388  17.870  0.00  0.00    +0.000 A 
ATOM      7  C   UNL     1       2.790   2.639  18.084  0.00  0.00    +0.000 A 
ATOM      8  C   UNL     1       4.031   3.266  18.239  0.00  0.00    +0.000 A 
ATOM      9  C   UNL     1       4.100   4.670  18.158  0.00  0.00    +0.000 A 
ENDROOT
BRANCH   1  10
ATOM     10  C   UNL     1       6.578   5.417  18.532  0.00  0.00    +0.000 C 
BRANCH  10  12
ATOM     11  O   UNL     1       7.423   6.147  16.394  0.00  0.00    +0.000 OA
ATOM     12  C   UNL     1       7.387   5.289  17.266  0.00  0.00    +0.000 C 
BRANCH  12  13
ATOM     13  O   UNL     1       8.042   4.109  17.146  0.00  0.00    +0.000 OA
ATOM     14  H   UNL     1       7.438   3.346  17.048  0.00  0.00    +0.000 HD
ENDBRANCH  12  13
ENDBRANCH  10  12
ENDBRANCH   1  10
BRANCH   3  15
ATOM     15  C   UNL     1       2.484   7.884  17.677  0.00  0.00    +0.000 C 
BRANCH  15  16
ATOM     16  C   UNL     1       1.799   8.339  18.947  0.00  0.00    +0.000 A 
ATOM     17  C   UNL     1       1.012   9.502  18.957  0.00  0.00    +0.000 A 
ATOM     18  C   UNL     1       0.422   9.953  20.140  0.00  0.00    +0.000 A 
ATOM     19  C   UNL     1       0.601   9.237  21.320  0.00  0.00    +0.000 A 
ATOM     20 CL   UNL     1      -0.083   9.819  22.787  0.00  0.00    +0.000 Cl
ATOM     21  C   UNL     1       1.341   8.055  21.320  0.00  0.00    +0.000 A 
ATOM     22  C   UNL     1       1.935   7.605  20.136  0.00  0.00    +0.000 A 
ENDBRANCH  15  16
ENDBRANCH   3  15
TORSDOF 5
ENDMDL
MODEL 3
REMARK VINA RESULT:      -7.2      0.994      1.576
REMARK  Name = 
REMARK  5 active torsions:
REMARK  status: ('A' for Active; 'I' for Inactive)
REMARK    1  A    between atoms: C_2  and  O_3
REMARK    2  A    between atoms: C_2  and  C_4
REMARK    3  A    between atoms: C_4  and  C_5
REMARK    4  A    between atoms: N_7  and  C_8
REMARK    5  A    between atoms: C_8  and  C_9
REMARK                            x       y       z     vdW  Elec       q    Type
REMARK                         _______ _______ _______ _____ _____    ______ ____
ROOT
ATOM      1  C   UNL     1       5.369   5.318  17.825  0.00  0.00    +0.000 A 
ATOM      2  N   UNL     1       4.994   6.582  17.593  0.00  0.00    +0.000 NA
ATOM      3  N   UNL     1       3.637   6.532  17.635  0.00  0.00    +0.000 N 
ATOM      4  C   UNL     1       3.138   5.257  17.774  0.00  0.00    +0.000 A 
ATOM      5  C   UNL     1       1.832   4.747  17.810  0.00  0.00    +0.000 A 
ATOM      6  C   UNL     1       1.679   3.364  17.953  0.00  0.00    +0.000 A 
ATOM      7  C   UNL     1       2.786   2.526  18.067  0.00  0.00    +0.000 A 
ATOM      8  C   UNL     1       4.084   3.048  18.050  0.00  0.00    +0.000 A 
ATOM      9  C   UNL     1       4.258   4.437  17.898  0.00  0.00    +0.000 A 
ENDROOT
BRANCH   1  10
ATOM     10  C   UNL     1       6.815   4.980  17.950  0.00  0.00    +0.000 C 
BRANCH  10  12
ATOM     11  O   UNL     1       8.097   6.915  18.608  0.00  0.00    +0.000 OA
ATOM     12  C   UNL     1       7.521   5.884  18.929  0.00  0.00    +0.000 C 
BRANCH  12  13
ATOM     13  O   UNL     1       7.510   5.431  20.206  0.00  0.00    +0.000 OA
ATOM     14  H   UNL     1       7.032   6.027  20.818  0.00  0.00    +0.000 HD
ENDBRANCH  12  13
ENDBRANCH  10  12
ENDBRANCH   1  10
BRANCH   3  15
ATOM     15  C   UNL     1       2.864   7.760  17.461  0.00  0.00    +0.000 C 
BRANCH  15  16
ATOM     16  C   UNL     1       2.126   8.154  18.721  0.00  0.00    +0.000 A 
ATOM     17  C   UNL     1       1.323   9.305  18.749  0.00  0.00    +0.000 A 
ATOM     18  C   UNL     1       0.683   9.699  19.927  0.00  0.00    +0.000 A 
ATOM     19  C   UNL     1       0.828   8.937  21.082  0.00  0.00    +0.000 A 
ATOM     20 CL   UNL     1       0.082   9.448  22.546  0.00  0.00    +0.000 Cl
ATOM     21  C   UNL     1       1.584   7.766  21.061  0.00  0.00    +0.000 A 
ATOM     22  C   UNL     1       2.227   7.373  19.884  0.00  0.00    +0.000 A 
ENDBRANCH  15  16
ENDBRANCH   3  15
TORSDOF 5
ENDMDL
MODEL 4
REMARK VINA RESULT:      -7.2      3.846      6.196
REMARK  Name = 
REMARK  5 active torsions:
REMARK  status: ('A' for Active; 'I' for Inactive)
REMARK    1  A    between atoms: C_2  and  O_3
REMARK    2  A    between atoms: C_2  and  C_4
REMARK    3  A    between atoms: C_4  and  C_5
REMARK    4  A    between atoms: N_7  and  C_8
REMARK    5  A    between atoms: C_8  and  C_9
REMARK                            x       y       z     vdW  Elec       q    Type
REMARK                         _______ _______ _______ _____ _____    ______ ____
ROOT
ATOM      1  C   UNL     1       2.791   6.311  19.590  0.00  0.00    +0.000 A 
ATOM      2  N   UNL     1       4.090   6.248  19.271  0.00  0.00    +0.000 NA
ATOM      3  N   UNL     1       4.362   4.917  19.272  0.00  0.00    +0.000 N 
ATOM      4  C   UNL     1       3.306   4.141  19.693  0.00  0.00    +0.000 A 
ATOM      5  C   UNL     1       3.165   2.761  19.894  0.00  0.00    +0.000 A 
ATOM      6  C   UNL     1       1.927   2.295  20.352  0.00  0.00    +0.000 A 
ATOM      7  C   UNL     1       0.872   3.173  20.588  0.00  0.00    +0.000 A 
ATOM      8  C   UNL     1       1.019   4.546  20.364  0.00  0.00    +0.000 A 
ATOM      9  C   UNL     1       2.260   5.034  19.912  0.00  0.00    +0.000 A 
ENDROOT
BRANCH   1  10
ATOM     10  C   UNL     1       2.087   7.624  19.599  0.00  0.00    +0.000 C 
BRANCH  10  12
ATOM     11  O   UNL     1       1.258   9.098  17.879  0.00  0.00    +0.000 OA
ATOM     12  C   UNL     1       2.086   8.271  18.237  0.00  0.00    +0.000 C 
BRANCH  12  13
ATOM     13  O   UNL     1       3.062   7.822  17.411  0.00  0.00    +0.000 OA
ATOM     14  H   UNL     1       3.665   8.532  17.113  0.00  0.00    +0.000 HD
ENDBRANCH  12  13
ENDBRANCH  10  12
ENDBRANCH   1  10
BRANCH   3  15
ATOM     15  C   UNL     1       5.704   4.455  18.922  0.00  0.00    +0.000 C 
BRANCH  15  16
ATOM     16  C   UNL     1       5.928   4.437  17.426  0.00  0.00    +0.000 A 
ATOM     17  C   UNL     1       4.926   3.972  16.560  0.00  0.00    +0.000 A 
ATOM     18  C   UNL     1       5.149   3.904  15.182  0.00  0.00    +0.000 A 
ATOM     19  C   UNL     1       6.371   4.317  14.658  0.00  0.00    +0.000 A 
ATOM     20 CL   UNL     1       6.666   4.187  12.968  0.00  0.00    +0.000 Cl
ATOM     21  C   UNL     1       7.360   4.825  15.498  0.00  0.00    +0.000 A 
ATOM     22  C   UNL     1       7.139   4.889  16.877  0.00  0.00    +0.000 A 
ENDBRANCH  15  16
ENDBRANCH   3  15
TORSDOF 5
ENDMDL
MODEL 5
REMARK VINA RESULT:      -7.1      3.810      6.177
REMARK  Name = 
REMARK  5 active torsions:
REMARK  status: ('A' for Active; 'I' for Inactive)
REMARK    1  A    between atoms: C_2  and  O_3
REMARK    2  A    between atoms: C_2  and  C_4
REMARK    3  A    between atoms: C_4  and  C_5
REMARK    4  A    between atoms: N_7  and  C_8
REMARK    5  A    between atoms: C_8  and  C_9
REMARK                            x       y       z     vdW  Elec       q    Type
REMARK                         _______ _______ _______ _____ _____    ______ ____
ROOT
ATOM      1  C   UNL     1       2.743   6.377  19.651  0.00  0.00    +0.000 A 
ATOM      2  N   UNL     1       4.054   6.350  19.376  0.00  0.00    +0.000 NA
ATOM      3  N   UNL     1       4.361   5.027  19.382  0.00  0.00    +0.000 N 
ATOM      4  C   UNL     1       3.312   4.221  19.763  0.00  0.00    +0.000 A 
ATOM      5  C   UNL     1       3.200   2.837  19.955  0.00  0.00    +0.000 A 
ATOM      6  C   UNL     1       1.960   2.337  20.368  0.00  0.00    +0.000 A 
ATOM      7  C   UNL     1       0.874   3.186  20.572  0.00  0.00    +0.000 A 
ATOM      8  C   UNL     1       0.993   4.563  20.358  0.00  0.00    +0.000 A 
ATOM      9  C   UNL     1       2.236   5.085  19.950  0.00  0.00    +0.000 A 
ENDROOT
BRANCH   1  10
ATOM     10  C   UNL     1       2.006   7.672  19.641  0.00  0.00    +0.000 C 
BRANCH  10  12
ATOM     11  O   UNL     1       1.278   9.237  17.956  0.00  0.00    +0.000 OA
ATOM     12  C   UNL     1       2.014   8.314  18.277  0.00  0.00    +0.000 C 
BRANCH  12  13
ATOM     13  O   UNL     1       2.882   7.746  17.405  0.00  0.00    +0.000 OA
ATOM     14  H   UNL     1       2.593   7.825  16.474  0.00  0.00    +0.000 HD
ENDBRANCH  12  13
ENDBRANCH  10  12
ENDBRANCH   1  10
BRANCH   3  15
ATOM     15  C   UNL     1       5.725   4.601  19.076  0.00  0.00    +0.000 C 
BRANCH  15  16
ATOM     16  C   UNL     1       5.960   4.466  17.588  0.00  0.00    +0.000 A 
ATOM     17  C   UNL     1       7.199   4.811  17.026  0.00  0.00    +0.000 A 
ATOM     18  C   UNL     1       7.401   4.737  15.645  0.00  0.00    +0.000 A 
ATOM     19  C   UNL     1       6.370   4.302  14.817  0.00  0.00    +0.000 A 
ATOM     20 CL   UNL     1       6.601   4.259  13.112  0.00  0.00    +0.000 Cl
ATOM     21  C   UNL     1       5.148   3.912  15.362  0.00  0.00    +0.000 A 
ATOM     22  C   UNL     1       4.944   3.990  16.743  0.00  0.00    +0.000 A 
ENDBRANCH  15  16
ENDBRANCH   3  15
TORSDOF 5
ENDMDL
MODEL 6
REMARK VINA RESULT:      -7.1      4.405      6.815
REMARK  Name = 
REMARK  5 active torsions:
REMARK  status: ('A' for Active; 'I' for Inactive)
REMARK    1  A    between atoms: C_2  and  O_3
REMARK    2  A    between atoms: C_2  and  C_4
REMARK    3  A    between atoms: C_4  and  C_5
REMARK    4  A    between atoms: N_7  and  C_8
REMARK    5  A    between atoms: C_8  and  C_9
REMARK                            x       y       z     vdW  Elec       q    Type
REMARK                         _______ _______ _______ _____ _____    ______ ____
ROOT
ATOM      1  C   UNL     1       3.680   4.146  19.763  0.00  0.00    +0.000 A 
ATOM      2  N   UNL     1       4.871   3.710  19.333  0.00  0.00    +0.000 NA
ATOM      3  N   UNL     1       5.326   4.725  18.553  0.00  0.00    +0.000 N 
ATOM      4  C   UNL     1       4.413   5.741  18.385  0.00  0.00    +0.000 A 
ATOM      5  C   UNL     1       4.441   6.927  17.637  0.00  0.00    +0.000 A 
ATOM      6  C   UNL     1       3.309   7.748  17.680  0.00  0.00    +0.000 A 
ATOM      7  C   UNL     1       2.199   7.402  18.448  0.00  0.00    +0.000 A 
ATOM      8  C   UNL     1       2.191   6.226  19.206  0.00  0.00    +0.000 A 
ATOM      9  C   UNL     1       3.319   5.383  19.168  0.00  0.00    +0.000 A 
ENDROOT
BRANCH   1  10
ATOM     10  C   UNL     1       2.896   3.334  20.736  0.00  0.00    +0.000 C 
BRANCH  10  12
ATOM     11  O   UNL     1       1.793   1.785  19.252  0.00  0.00    +0.000 OA
ATOM     12  C   UNL     1       1.706   2.674  20.088  0.00  0.00    +0.000 C 
BRANCH  12  13
ATOM     13  O   UNL     1       0.512   3.184  20.476  0.00  0.00    +0.000 OA
ATOM     14  H   UNL     1       0.125   2.712  21.240  0.00  0.00    +0.000 HD
ENDBRANCH  12  13
ENDBRANCH  10  12
ENDBRANCH   1  10
BRANCH   3  15
ATOM     15  C   UNL     1       6.645   4.621  17.931  0.00  0.00    +0.000 C 
BRANCH  15  16
ATOM     16  C   UNL     1       6.556   4.457  16.430  0.00  0.00    +0.000 A 
ATOM     17  C   UNL     1       5.587   3.615  15.860  0.00  0.00    +0.000 A 
ATOM     18  C   UNL     1       5.537   3.422  14.477  0.00  0.00    +0.000 A 
ATOM     19  C   UNL     1       6.443   4.081  13.652  0.00  0.00    +0.000 A 
ATOM     20 CL   UNL     1       6.414   3.804  11.954  0.00  0.00    +0.000 Cl
ATOM     21  C   UNL     1       7.382   4.956  14.196  0.00  0.00    +0.000 A 
ATOM     22  C   UNL     1       7.436   5.147  15.581  0.00  0.00    +0.000 A 
ENDBRANCH  15  16
ENDBRANCH   3  15
TORSDOF 5
ENDMDL
MODEL 7
REMARK VINA RESULT:      -7.0      4.312      6.745
REMARK  Name = 
REMARK  5 active torsions:
REMARK  status: ('A' for Active; 'I' for Inactive)
REMARK    1  A    between atoms: C_2  and  O_3
REMARK    2  A    between atoms: C_2  and  C_4
REMARK    3  A    between atoms: C_4  and  C_5
REMARK    4  A    between atoms: N_7  and  C_8
REMARK    5  A    between atoms: C_8  and  C_9
REMARK                            x       y       z     vdW  Elec       q    Type
REMARK                         _______ _______ _______ _____ _____    ______ ____
ROOT
ATOM      1  C   UNL     1       2.590   4.907  19.870  0.00  0.00    +0.000 A 
ATOM      2  N   UNL     1       3.696   4.172  19.696  0.00  0.00    +0.000 NA
ATOM      3  N   UNL     1       4.487   4.952  18.915  0.00  0.00    +0.000 N 
ATOM      4  C   UNL     1       3.873   6.110  18.495  0.00  0.00    +0.000 A 
ATOM      5  C   UNL     1       4.288   7.153  17.654  0.00  0.00    +0.000 A 
ATOM      6  C   UNL     1       3.387   8.197  17.422  0.00  0.00    +0.000 A 
ATOM      7  C   UNL     1       2.126   8.204  18.015  0.00  0.00    +0.000 A 
ATOM      8  C   UNL     1       1.731   7.168  18.867  0.00  0.00    +0.000 A 
ATOM      9  C   UNL     1       2.621   6.104  19.106  0.00  0.00    +0.000 A 
ENDROOT
BRANCH   1  10
ATOM     10  C   UNL     1       1.502   4.419  20.764  0.00  0.00    +0.000 C 
BRANCH  10  12
ATOM     11  O   UNL     1       1.784   2.460  22.143  0.00  0.00    +0.000 OA
ATOM     12  C   UNL     1       1.614   2.940  21.030  0.00  0.00    +0.000 C 
BRANCH  12  13
ATOM     13  O   UNL     1       1.558   2.172  19.915  0.00  0.00    +0.000 OA
ATOM     14  H   UNL     1       1.093   2.610  19.174  0.00  0.00    +0.000 HD
ENDBRANCH  12  13
ENDBRANCH  10  12
ENDBRANCH   1  10
BRANCH   3  15
ATOM     15  C   UNL     1       5.821   4.484  18.544  0.00  0.00    +0.000 C 
BRANCH  15  16
ATOM     16  C   UNL     1       6.002   4.408  17.044  0.00  0.00    +0.000 A 
ATOM     17  C   UNL     1       5.049   3.760  16.242  0.00  0.00    +0.000 A 
ATOM     18  C   UNL     1       5.240   3.642  14.863  0.00  0.00    +0.000 A 
ATOM     19  C   UNL     1       6.377   4.186  14.272  0.00  0.00    +0.000 A 
ATOM     20 CL   UNL     1       6.638   3.998  12.582  0.00  0.00    +0.000 Cl
ATOM     21  C   UNL     1       7.311   4.873  15.046  0.00  0.00    +0.000 A 
ATOM     22  C   UNL     1       7.122   4.988  16.427  0.00  0.00    +0.000 A 
ENDBRANCH  15  16
ENDBRANCH   3  15
TORSDOF 5
ENDMDL
MODEL 8
REMARK VINA RESULT:      -7.0      4.212      6.460
REMARK  Name = 
REMARK  5 active torsions:
REMARK  status: ('A' for Active; 'I' for Inactive)
REMARK    1  A    between atoms: C_2  and  O_3
REMARK    2  A    between atoms: C_2  and  C_4
REMARK    3  A    between atoms: C_4  and  C_5
REMARK    4  A    between atoms: N_7  and  C_8
REMARK    5  A    between atoms: C_8  and  C_9
REMARK                            x       y       z     vdW  Elec       q    Type
REMARK                         _______ _______ _______ _____ _____    ______ ____
ROOT
ATOM      1  C   UNL     1       2.555   6.541  19.703  0.00  0.00    +0.000 A 
ATOM      2  N   UNL     1       3.860   6.625  19.413  0.00  0.00    +0.000 NA
ATOM      3  N   UNL     1       4.287   5.336  19.450  0.00  0.00    +0.000 N 
ATOM      4  C   UNL     1       3.319   4.449  19.865  0.00  0.00    +0.000 A 
ATOM      5  C   UNL     1       3.336   3.066  20.093  0.00  0.00    +0.000 A 
ATOM      6  C   UNL     1       2.151   2.467  20.535  0.00  0.00    +0.000 A 
ATOM      7  C   UNL     1       0.995   3.218  20.729  0.00  0.00    +0.000 A 
ATOM      8  C   UNL     1       0.985   4.594  20.478  0.00  0.00    +0.000 A 
ATOM      9  C   UNL     1       2.171   5.216  20.042  0.00  0.00    +0.000 A 
ENDROOT
BRANCH   1  10
ATOM     10  C   UNL     1       1.703   7.762  19.669  0.00  0.00    +0.000 C 
BRANCH  10  12
ATOM     11  O   UNL     1      -0.057   8.011  21.300  0.00  0.00    +0.000 OA
ATOM     12  C   UNL     1       1.133   8.089  21.026  0.00  0.00    +0.000 C 
BRANCH  12  13
ATOM     13  O   UNL     1       2.052   8.530  21.918  0.00  0.00    +0.000 OA
ATOM     14  H   UNL     1       2.924   8.707  21.512  0.00  0.00    +0.000 HD
ENDBRANCH  12  13
ENDBRANCH  10  12
ENDBRANCH   1  10
BRANCH   3  15
ATOM     15  C   UNL     1       5.681   5.028  19.138  0.00  0.00    +0.000 C 
BRANCH  15  16
ATOM     16  C   UNL     1       5.881   4.711  17.673  0.00  0.00    +0.000 A 
ATOM     17  C   UNL     1       7.123   4.934  17.056  0.00  0.00    +0.000 A 
ATOM     18  C   UNL     1       7.294   4.691  15.691  0.00  0.00    +0.000 A 
ATOM     19  C   UNL     1       6.231   4.208  14.935  0.00  0.00    +0.000 A 
ATOM     20 CL   UNL     1       6.426   3.956  13.244  0.00  0.00    +0.000 Cl
ATOM     21  C   UNL     1       5.004   3.937  15.539  0.00  0.00    +0.000 A 
ATOM     22  C   UNL     1       4.830   4.183  16.904  0.00  0.00    +0.000 A 
ENDBRANCH  15  16
ENDBRANCH   3  15
TORSDOF 5
ENDMDL
MODEL 9
REMARK VINA RESULT:      -6.9      4.379      6.834
REMARK  Name = 
REMARK  5 active torsions:
REMARK  status: ('A' for Active; 'I' for Inactive)
REMARK    1  A    between atoms: C_2  and  O_3
REMARK    2  A    between atoms: C_2  and  C_4
REMARK    3  A    between atoms: C_4  and  C_5
REMARK    4  A    between atoms: N_7  and  C_8
REMARK    5  A    between atoms: C_8  and  C_9
REMARK                            x       y       z     vdW  Elec       q    Type
REMARK                         _______ _______ _______ _____ _____    ______ ____
ROOT
ATOM      1  C   UNL     1       3.753   4.192  19.721  0.00  0.00    +0.000 A 
ATOM      2  N   UNL     1       4.954   3.789  19.287  0.00  0.00    +0.000 NA
ATOM      3  N   UNL     1       5.375   4.813  18.499  0.00  0.00    +0.000 N 
ATOM      4  C   UNL     1       4.432   5.801  18.330  0.00  0.00    +0.000 A 
ATOM      5  C   UNL     1       4.421   6.983  17.576  0.00  0.00    +0.000 A 
ATOM      6  C   UNL     1       3.265   7.770  17.621  0.00  0.00    +0.000 A 
ATOM      7  C   UNL     1       2.170   7.397  18.397  0.00  0.00    +0.000 A 
ATOM      8  C   UNL     1       2.201   6.225  19.161  0.00  0.00    +0.000 A 
ATOM      9  C   UNL     1       3.352   5.415  19.121  0.00  0.00    +0.000 A 
ENDROOT
BRANCH   1  10
ATOM     10  C   UNL     1       2.998   3.363  20.702  0.00  0.00    +0.000 C 
BRANCH  10  12
ATOM     11  O   UNL     1       1.877   1.787  19.261  0.00  0.00    +0.000 OA
ATOM     12  C   UNL     1       1.800   2.698  20.074  0.00  0.00    +0.000 C 
BRANCH  12  13
ATOM     13  O   UNL     1       0.612   3.232  20.450  0.00  0.00    +0.000 OA
ATOM     14  H   UNL     1       0.712   4.010  21.034  0.00  0.00    +0.000 HD
ENDBRANCH  12  13
ENDBRANCH  10  12
ENDBRANCH   1  10
BRANCH   3  15
ATOM     15  C   UNL     1       6.693   4.744  17.870  0.00  0.00    +0.000 C 
BRANCH  15  16
ATOM     16  C   UNL     1       6.603   4.460  16.387  0.00  0.00    +0.000 A 
ATOM     17  C   UNL     1       7.458   5.110  15.482  0.00  0.00    +0.000 A 
ATOM     18  C   UNL     1       7.341   4.890  14.108  0.00  0.00    +0.000 A 
ATOM     19  C   UNL     1       6.379   4.006  13.628  0.00  0.00    +0.000 A 
ATOM     20 CL   UNL     1       6.201   3.772  11.932  0.00  0.00    +0.000 Cl
ATOM     21  C   UNL     1       5.553   3.317  14.514  0.00  0.00    +0.000 A 
ATOM     22  C   UNL     1       5.667   3.540  15.889  0.00  0.00    +0.000 A 
ENDBRANCH  15  16
ENDBRANCH   3  15
TORSDOF 5
ENDMDL
