MODEL 1
REMARK VINA RESULT:      -7.6      0.000      0.000
REMARK  Name = 
REMARK  14 active torsions:
REMARK  status: ('A' for Active; 'I' for Inactive)
REMARK    1  A    between atoms: C_1  and  O_2
REMARK    2  A    between atoms: O_2  and  C_3
REMARK    3  A    between atoms: C_6  and  C_7
REMARK    4  A    between atoms: C_7  and  C_8
REMARK    5  A    between atoms: C_8  and  N_9
REMARK    6  A    between atoms: C_10  and  C_12
REMARK    7  A    between atoms: C_12  and  N_13
REMARK    8  A    between atoms: N_13  and  C_14
REMARK    9  A    between atoms: N_13  and  S_22
REMARK   10  A    between atoms: C_19  and  O_20
REMARK   11  A    between atoms: O_20  and  C_21
REMARK   12  A    between atoms: S_22  and  C_23
REMARK   13  A    between atoms: C_27  and  O_28
REMARK   14  A    between atoms: O_28  and  C_29
REMARK                            x       y       z     vdW  Elec       q    Type
REMARK                         _______ _______ _______ _____ _____    ______ ____
ROOT
ATOM      1  N   UNL     1       2.283   7.060  18.061  0.00  0.00    +0.000 N 
ATOM      2  C   UNL     1       2.653   5.993  18.854  0.00  0.00    +0.000 C 
ATOM      3  O   UNL     1       3.018   6.131  20.021  0.00  0.00    +0.000 OA
ATOM      4  H   UNL     1       1.718   6.850  17.234  0.00  0.00    +0.000 HD
ENDROOT
BRANCH   1   5
ATOM      5  C   UNL     1       2.195   8.414  18.589  0.00  0.00    +0.000 C 
BRANCH   5   6
ATOM      6  C   UNL     1       1.139   9.268  17.879  0.00  0.00    +0.000 C 
BRANCH   6  10
ATOM      7  C   UNL     1      -1.235  11.633  20.634  0.00  0.00    +0.000 A 
ATOM      8  C   UNL     1      -1.470  11.681  19.250  0.00  0.00    +0.000 A 
ATOM      9  C   UNL     1      -0.701  10.925  18.360  0.00  0.00    +0.000 A 
ATOM     10  C   UNL     1       0.338  10.123  18.832  0.00  0.00    +0.000 A 
ATOM     11  C   UNL     1       0.617  10.128  20.204  0.00  0.00    +0.000 A 
ATOM     12  C   UNL     1      -0.154  10.874  21.114  0.00  0.00    +0.000 A 
BRANCH   7  14
ATOM     13  C   UNL     1      -2.209  13.712  21.232  0.00  0.00    +0.000 C 
ATOM     14  O   UNL     1      -2.018  12.328  21.518  0.00  0.00    +0.000 OA
ENDBRANCH   7  14
BRANCH  12  15
ATOM     15  O   UNL     1       0.283  10.717  22.403  0.00  0.00    +0.000 OA
ATOM     16  C   UNL     1      -0.230   9.649  23.183  0.00  0.00    +0.000 C 
ENDBRANCH  12  15
ENDBRANCH   6  10
ENDBRANCH   5   6
ENDBRANCH   1   5
BRANCH   2  17
ATOM     17  C   UNL     1       2.693   4.639  18.162  0.00  0.00    +0.000 C 
BRANCH  17  18
ATOM     18  N   UNL     1       3.933   3.858  18.383  0.00  0.00    +0.000 N 
BRANCH  18  19
ATOM     19  C   UNL     1       5.021   4.072  17.457  0.00  0.00    +0.000 A 
ATOM     20  C   UNL     1       4.764   3.933  16.081  0.00  0.00    +0.000 A 
ATOM     21  C   UNL     1       5.762   4.164  15.130  0.00  0.00    +0.000 A 
ATOM     22  C   UNL     1       7.032   4.543  15.543  0.00  0.00    +0.000 A 
ATOM     23  C   UNL     1       7.294   4.708  16.901  0.00  0.00    +0.000 A 
ATOM     24  C   UNL     1       6.304   4.476  17.870  0.00  0.00    +0.000 A 
BRANCH  24  25
ATOM     25  O   UNL     1       6.726   4.799  19.131  0.00  0.00    +0.000 OA
ATOM     26  C   UNL     1       7.760   5.759  19.260  0.00  0.00    +0.000 C 
ENDBRANCH  24  25
ENDBRANCH  18  19
BRANCH  18  27
ATOM     27  S   UNL     1       3.823   2.349  19.127  0.00  0.00    +0.000 S 
ATOM     28  C   UNL     1       2.219   2.343  19.907  0.00  0.00    +0.000 C 
ATOM     29  O   UNL     1       3.815   1.301  18.131  0.00  0.00    +0.000 OA
ATOM     30  O   UNL     1       4.800   2.339  20.201  0.00  0.00    +0.000 OA
ENDBRANCH  18  27
ENDBRANCH  17  18
ENDBRANCH   2  17
TORSDOF 10
ENDMDL
MODEL 2
REMARK VINA RESULT:      -7.3      1.436      2.191
REMARK  Name = 
REMARK  14 active torsions:
REMARK  status: ('A' for Active; 'I' for Inactive)
REMARK    1  A    between atoms: C_1  and  O_2
REMARK    2  A    between atoms: O_2  and  C_3
REMARK    3  A    between atoms: C_6  and  C_7
REMARK    4  A    between atoms: C_7  and  C_8
REMARK    5  A    between atoms: C_8  and  N_9
REMARK    6  A    between atoms: C_10  and  C_12
REMARK    7  A    between atoms: C_12  and  N_13
REMARK    8  A    between atoms: N_13  and  C_14
REMARK    9  A    between atoms: N_13  and  S_22
REMARK   10  A    between atoms: C_19  and  O_20
REMARK   11  A    between atoms: O_20  and  C_21
REMARK   12  A    between atoms: S_22  and  C_23
REMARK   13  A    between atoms: C_27  and  O_28
REMARK   14  A    between atoms: O_28  and  C_29
REMARK                            x       y       z     vdW  Elec       q    Type
REMARK                         _______ _______ _______ _____ _____    ______ ____
ROOT
ATOM      1  N   UNL     1       1.985   6.798  19.834  0.00  0.00    +0.000 N 
ATOM      2  C   UNL     1       2.571   6.692  18.589  0.00  0.00    +0.000 C 
ATOM      3  O   UNL     1       2.915   7.676  17.934  0.00  0.00    +0.000 OA
ATOM      4  H   UNL     1       2.009   5.966  20.429  0.00  0.00    +0.000 HD
ENDROOT
BRANCH   1   5
ATOM      5  C   UNL     1       1.833   8.081  20.504  0.00  0.00    +0.000 C 
BRANCH   5   6
ATOM      6  C   UNL     1       0.748   8.069  21.586  0.00  0.00    +0.000 C 
BRANCH   6  10
ATOM      7  C   UNL     1      -1.187  11.929  21.996  0.00  0.00    +0.000 A 
ATOM      8  C   UNL     1      -1.125  11.032  23.075  0.00  0.00    +0.000 A 
ATOM      9  C   UNL     1      -0.509   9.785  22.942  0.00  0.00    +0.000 A 
ATOM     10  C   UNL     1       0.038   9.395  21.720  0.00  0.00    +0.000 A 
ATOM     11  C   UNL     1      -0.084  10.261  20.626  0.00  0.00    +0.000 A 
ATOM     12  C   UNL     1      -0.692  11.523  20.746  0.00  0.00    +0.000 A 
BRANCH   7  14
ATOM     13  C   UNL     1      -1.765  13.711  23.453  0.00  0.00    +0.000 C 
ATOM     14  O   UNL     1      -1.742  13.175  22.132  0.00  0.00    +0.000 OA
ENDBRANCH   7  14
BRANCH  12  15
ATOM     15  O   UNL     1      -0.686  12.209  19.559  0.00  0.00    +0.000 OA
ATOM     16  C   UNL     1       0.546  12.421  18.888  0.00  0.00    +0.000 C 
ENDBRANCH  12  15
ENDBRANCH   6  10
ENDBRANCH   5   6
ENDBRANCH   1   5
BRANCH   2  17
ATOM     17  C   UNL     1       2.665   5.285  18.020  0.00  0.00    +0.000 C 
BRANCH  17  18
ATOM     18  N   UNL     1       3.836   4.500  18.476  0.00  0.00    +0.000 N 
BRANCH  18  19
ATOM     19  C   UNL     1       4.975   4.441  17.591  0.00  0.00    +0.000 A 
ATOM     20  C   UNL     1       4.750   4.163  16.230  0.00  0.00    +0.000 A 
ATOM     21  C   UNL     1       5.804   4.130  15.312  0.00  0.00    +0.000 A 
ATOM     22  C   UNL     1       7.100   4.381  15.742  0.00  0.00    +0.000 A 
ATOM     23  C   UNL     1       7.335   4.682  17.082  0.00  0.00    +0.000 A 
ATOM     24  C   UNL     1       6.287   4.715  18.018  0.00  0.00    +0.000 A 
BRANCH  24  25
ATOM     25  O   UNL     1       6.707   5.136  19.251  0.00  0.00    +0.000 OA
ATOM     26  C   UNL     1       7.910   5.882  19.324  0.00  0.00    +0.000 C 
ENDBRANCH  24  25
ENDBRANCH  18  19
BRANCH  18  27
ATOM     27  S   UNL     1       3.589   3.200  19.521  0.00  0.00    +0.000 S 
ATOM     28  C   UNL     1       2.491   2.107  18.635  0.00  0.00    +0.000 C 
ATOM     29  O   UNL     1       4.827   2.483  19.727  0.00  0.00    +0.000 OA
ATOM     30  O   UNL     1       2.833   3.709  20.652  0.00  0.00    +0.000 OA
ENDBRANCH  18  27
ENDBRANCH  17  18
ENDBRANCH   2  17
TORSDOF 10
ENDMDL
MODEL 3
REMARK VINA RESULT:      -7.3      1.421      2.122
REMARK  Name = 
REMARK  14 active torsions:
REMARK  status: ('A' for Active; 'I' for Inactive)
REMARK    1  A    between atoms: C_1  and  O_2
REMARK    2  A    between atoms: O_2  and  C_3
REMARK    3  A    between atoms: C_6  and  C_7
REMARK    4  A    between atoms: C_7  and  C_8
REMARK    5  A    between atoms: C_8  and  N_9
REMARK    6  A    between atoms: C_10  and  C_12
REMARK    7  A    between atoms: C_12  and  N_13
REMARK    8  A    between atoms: N_13  and  C_14
REMARK    9  A    between atoms: N_13  and  S_22
REMARK   10  A    between atoms: C_19  and  O_20
REMARK   11  A    between atoms: O_20  and  C_21
REMARK   12  A    between atoms: S_22  and  C_23
REMARK   13  A    between atoms: C_27  and  O_28
REMARK   14  A    between atoms: O_28  and  C_29
REMARK                            x       y       z     vdW  Elec       q    Type
REMARK                         _______ _______ _______ _____ _____    ______ ____
ROOT
ATOM      1  N   UNL     1       2.256   7.133  18.295  0.00  0.00    +0.000 N 
ATOM      2  C   UNL     1       2.358   5.986  19.056  0.00  0.00    +0.000 C 
ATOM      3  O   UNL     1       2.324   6.005  20.287  0.00  0.00    +0.000 OA
ATOM      4  H   UNL     1       1.991   7.015  17.313  0.00  0.00    +0.000 HD
ENDROOT
BRANCH   1   5
ATOM      5  C   UNL     1       1.989   8.432  18.896  0.00  0.00    +0.000 C 
BRANCH   5   6
ATOM      6  C   UNL     1       1.392   9.439  17.907  0.00  0.00    +0.000 C 
BRANCH   6  10
ATOM      7  C   UNL     1      -1.482  12.175  19.659  0.00  0.00    +0.000 A 
ATOM      8  C   UNL     1      -0.155  12.129  20.115  0.00  0.00    +0.000 A 
ATOM      9  C   UNL     1       0.771  11.243  19.557  0.00  0.00    +0.000 A 
ATOM     10  C   UNL     1       0.384  10.363  18.547  0.00  0.00    +0.000 A 
ATOM     11  C   UNL     1      -0.956  10.361  18.139  0.00  0.00    +0.000 A 
ATOM     12  C   UNL     1      -1.897  11.253  18.683  0.00  0.00    +0.000 A 
BRANCH   7  14
ATOM     13  C   UNL     1      -3.043  12.696  21.368  0.00  0.00    +0.000 C 
ATOM     14  O   UNL     1      -2.382  13.077  20.163  0.00  0.00    +0.000 OA
ENDBRANCH   7  14
BRANCH  12  15
ATOM     15  O   UNL     1      -3.139  11.089  18.127  0.00  0.00    +0.000 OA
ATOM     16  C   UNL     1      -3.266  11.050  16.715  0.00  0.00    +0.000 C 
ENDBRANCH  12  15
ENDBRANCH   6  10
ENDBRANCH   5   6
ENDBRANCH   1   5
BRANCH   2  17
ATOM     17  C   UNL     1       2.633   4.704  18.286  0.00  0.00    +0.000 C 
BRANCH  17  18
ATOM     18  N   UNL     1       3.894   4.014  18.646  0.00  0.00    +0.000 N 
BRANCH  18  19
ATOM     19  C   UNL     1       5.009   4.162  17.741  0.00  0.00    +0.000 A 
ATOM     20  C   UNL     1       4.805   3.880  16.378  0.00  0.00    +0.000 A 
ATOM     21  C   UNL     1       5.830   4.041  15.442  0.00  0.00    +0.000 A 
ATOM     22  C   UNL     1       7.076   4.492  15.856  0.00  0.00    +0.000 A 
ATOM     23  C   UNL     1       7.286   4.800  17.199  0.00  0.00    +0.000 A 
ATOM     24  C   UNL     1       6.267   4.640  18.153  0.00  0.00    +0.000 A 
BRANCH  24  25
ATOM     25  O   UNL     1       6.636   5.098  19.388  0.00  0.00    +0.000 OA
ATOM     26  C   UNL     1       7.890   5.749  19.508  0.00  0.00    +0.000 C 
ENDBRANCH  24  25
ENDBRANCH  18  19
BRANCH  18  27
ATOM     27  S   UNL     1       3.816   2.604  19.567  0.00  0.00    +0.000 S 
ATOM     28  C   UNL     1       3.550   1.299  18.380  0.00  0.00    +0.000 C 
ATOM     29  O   UNL     1       5.091   2.350  20.199  0.00  0.00    +0.000 OA
ATOM     30  O   UNL     1       2.602   2.687  20.361  0.00  0.00    +0.000 OA
ENDBRANCH  18  27
ENDBRANCH  17  18
ENDBRANCH   2  17
TORSDOF 10
ENDMDL
MODEL 4
REMARK VINA RESULT:      -7.1      1.319      2.019
REMARK  Name = 
REMARK  14 active torsions:
REMARK  status: ('A' for Active; 'I' for Inactive)
REMARK    1  A    between atoms: C_1  and  O_2
REMARK    2  A    between atoms: O_2  and  C_3
REMARK    3  A    between atoms: C_6  and  C_7
REMARK    4  A    between atoms: C_7  and  C_8
REMARK    5  A    between atoms: C_8  and  N_9
REMARK    6  A    between atoms: C_10  and  C_12
REMARK    7  A    between atoms: C_12  and  N_13
REMARK    8  A    between atoms: N_13  and  C_14
REMARK    9  A    between atoms: N_13  and  S_22
REMARK   10  A    between atoms: C_19  and  O_20
REMARK   11  A    between atoms: O_20  and  C_21
REMARK   12  A    between atoms: S_22  and  C_23
REMARK   13  A    between atoms: C_27  and  O_28
REMARK   14  A    between atoms: O_28  and  C_29
REMARK                            x       y       z     vdW  Elec       q    Type
REMARK                         _______ _______ _______ _____ _____    ______ ____
ROOT
ATOM      1  N   UNL     1       2.645   7.272  17.624  0.00  0.00    +0.000 N 
ATOM      2  C   UNL     1       2.549   6.386  18.678  0.00  0.00    +0.000 C 
ATOM      3  O   UNL     1       2.520   6.756  19.851  0.00  0.00    +0.000 OA
ATOM      4  H   UNL     1       2.363   6.928  16.702  0.00  0.00    +0.000 HD
ENDROOT
BRANCH   1   5
ATOM      5  C   UNL     1       2.605   8.713  17.827  0.00  0.00    +0.000 C 
BRANCH   5   6
ATOM      6  C   UNL     1       1.182   9.259  17.984  0.00  0.00    +0.000 C 
BRANCH   6  10
ATOM      7  C   UNL     1       0.777  12.393  20.956  0.00  0.00    +0.000 A 
ATOM      8  C   UNL     1       1.195  12.685  19.648  0.00  0.00    +0.000 A 
ATOM      9  C   UNL     1       1.334  11.676  18.691  0.00  0.00    +0.000 A 
ATOM     10  C   UNL     1       1.082  10.346  19.028  0.00  0.00    +0.000 A 
ATOM     11  C   UNL     1       0.731  10.046  20.350  0.00  0.00    +0.000 A 
ATOM     12  C   UNL     1       0.577  11.051  21.321  0.00  0.00    +0.000 A 
BRANCH   7  14
ATOM     13  C   UNL     1      -0.737  13.902  21.984  0.00  0.00    +0.000 C 
ATOM     14  O   UNL     1       0.587  13.382  21.885  0.00  0.00    +0.000 OA
ENDBRANCH   7  14
BRANCH  12  15
ATOM     15  O   UNL     1       0.214  10.535  22.538  0.00  0.00    +0.000 OA
ATOM     16  C   UNL     1      -0.362   9.240  22.597  0.00  0.00    +0.000 C 
ENDBRANCH  12  15
ENDBRANCH   6  10
ENDBRANCH   5   6
ENDBRANCH   1   5
BRANCH   2  17
ATOM     17  C   UNL     1       2.600   4.912  18.308  0.00  0.00    +0.000 C 
BRANCH  17  18
ATOM     18  N   UNL     1       3.789   4.181  18.803  0.00  0.00    +0.000 N 
BRANCH  18  19
ATOM     19  C   UNL     1       5.085   4.693  18.422  0.00  0.00    +0.000 A 
ATOM     20  C   UNL     1       5.919   5.214  19.428  0.00  0.00    +0.000 A 
ATOM     21  C   UNL     1       7.200   5.689  19.133  0.00  0.00    +0.000 A 
ATOM     22  C   UNL     1       7.667   5.646  17.827  0.00  0.00    +0.000 A 
ATOM     23  C   UNL     1       6.862   5.110  16.824  0.00  0.00    +0.000 A 
ATOM     24  C   UNL     1       5.570   4.632  17.103  0.00  0.00    +0.000 A 
BRANCH  24  25
ATOM     25  O   UNL     1       4.987   4.047  16.011  0.00  0.00    +0.000 OA
ATOM     26  C   UNL     1       5.674   4.118  14.773  0.00  0.00    +0.000 C 
ENDBRANCH  24  25
ENDBRANCH  18  19
BRANCH  18  27
ATOM     27  S   UNL     1       3.660   2.528  19.109  0.00  0.00    +0.000 S 
ATOM     28  C   UNL     1       2.126   2.349  20.001  0.00  0.00    +0.000 C 
ATOM     29  O   UNL     1       3.518   1.801  17.868  0.00  0.00    +0.000 OA
ATOM     30  O   UNL     1       4.719   2.191  20.045  0.00  0.00    +0.000 OA
ENDBRANCH  18  27
ENDBRANCH  17  18
ENDBRANCH   2  17
TORSDOF 10
ENDMDL
MODEL 5
REMARK VINA RESULT:      -7.1      1.590      2.788
REMARK  Name = 
REMARK  14 active torsions:
REMARK  status: ('A' for Active; 'I' for Inactive)
REMARK    1  A    between atoms: C_1  and  O_2
REMARK    2  A    between atoms: O_2  and  C_3
REMARK    3  A    between atoms: C_6  and  C_7
REMARK    4  A    between atoms: C_7  and  C_8
REMARK    5  A    between atoms: C_8  and  N_9
REMARK    6  A    between atoms: C_10  and  C_12
REMARK    7  A    between atoms: C_12  and  N_13
REMARK    8  A    between atoms: N_13  and  C_14
REMARK    9  A    between atoms: N_13  and  S_22
REMARK   10  A    between atoms: C_19  and  O_20
REMARK   11  A    between atoms: O_20  and  C_21
REMARK   12  A    between atoms: S_22  and  C_23
REMARK   13  A    between atoms: C_27  and  O_28
REMARK   14  A    between atoms: O_28  and  C_29
REMARK                            x       y       z     vdW  Elec       q    Type
REMARK                         _______ _______ _______ _____ _____    ______ ____
ROOT
ATOM      1  N   UNL     1       2.056   6.703  19.764  0.00  0.00    +0.000 N 
ATOM      2  C   UNL     1       2.568   6.538  18.493  0.00  0.00    +0.000 C 
ATOM      3  O   UNL     1       2.727   7.480  17.717  0.00  0.00    +0.000 OA
ATOM      4  H   UNL     1       2.234   5.952  20.436  0.00  0.00    +0.000 HD
ENDROOT
BRANCH   1   5
ATOM      5  C   UNL     1       1.771   8.021  20.312  0.00  0.00    +0.000 C 
BRANCH   5   6
ATOM      6  C   UNL     1       0.772   7.986  21.473  0.00  0.00    +0.000 C 
BRANCH   6  10
ATOM      7  C   UNL     1      -1.225  11.798  22.022  0.00  0.00    +0.000 A 
ATOM      8  C   UNL     1      -1.064  10.903  23.092  0.00  0.00    +0.000 A 
ATOM      9  C   UNL     1      -0.429   9.671  22.916  0.00  0.00    +0.000 A 
ATOM     10  C   UNL     1       0.040   9.294  21.657  0.00  0.00    +0.000 A 
ATOM     11  C   UNL     1      -0.180  10.155  20.576  0.00  0.00    +0.000 A 
ATOM     12  C   UNL     1      -0.809  11.403  20.739  0.00  0.00    +0.000 A 
BRANCH   7  14
ATOM     13  C   UNL     1      -1.428  13.730  23.382  0.00  0.00    +0.000 C 
ATOM     14  O   UNL     1      -1.799  13.030  22.197  0.00  0.00    +0.000 OA
ENDBRANCH   7  14
BRANCH  12  15
ATOM     15  O   UNL     1      -0.903  12.087  19.555  0.00  0.00    +0.000 OA
ATOM     16  C   UNL     1      -1.750  11.587  18.532  0.00  0.00    +0.000 C 
ENDBRANCH  12  15
ENDBRANCH   6  10
ENDBRANCH   5   6
ENDBRANCH   1   5
BRANCH   2  17
ATOM     17  C   UNL     1       2.819   5.101  18.063  0.00  0.00    +0.000 C 
BRANCH  17  18
ATOM     18  N   UNL     1       3.879   4.395  18.820  0.00  0.00    +0.000 N 
BRANCH  18  19
ATOM     19  C   UNL     1       5.248   4.733  18.509  0.00  0.00    +0.000 A 
ATOM     20  C   UNL     1       6.025   5.354  19.504  0.00  0.00    +0.000 A 
ATOM     21  C   UNL     1       7.368   5.672  19.282  0.00  0.00    +0.000 A 
ATOM     22  C   UNL     1       7.956   5.368  18.062  0.00  0.00    +0.000 A 
ATOM     23  C   UNL     1       7.206   4.731  17.076  0.00  0.00    +0.000 A 
ATOM     24  C   UNL     1       5.853   4.408  17.281  0.00  0.00    +0.000 A 
BRANCH  24  25
ATOM     25  O   UNL     1       5.328   3.691  16.241  0.00  0.00    +0.000 OA
ATOM     26  C   UNL     1       5.970   3.781  14.980  0.00  0.00    +0.000 C 
ENDBRANCH  24  25
ENDBRANCH  18  19
BRANCH  18  27
ATOM     27  S   UNL     1       3.569   2.843  19.402  0.00  0.00    +0.000 S 
ATOM     28  C   UNL     1       3.029   1.922  17.973  0.00  0.00    +0.000 C 
ATOM     29  O   UNL     1       4.793   2.231  19.866  0.00  0.00    +0.000 OA
ATOM     30  O   UNL     1       2.416   2.948  20.280  0.00  0.00    +0.000 OA
ENDBRANCH  18  27
ENDBRANCH  17  18
ENDBRANCH   2  17
TORSDOF 10
ENDMDL
MODEL 6
REMARK VINA RESULT:      -7.1      1.142      2.062
REMARK  Name = 
REMARK  14 active torsions:
REMARK  status: ('A' for Active; 'I' for Inactive)
REMARK    1  A    between atoms: C_1  and  O_2
REMARK    2  A    between atoms: O_2  and  C_3
REMARK    3  A    between atoms: C_6  and  C_7
REMARK    4  A    between atoms: C_7  and  C_8
REMARK    5  A    between atoms: C_8  and  N_9
REMARK    6  A    between atoms: C_10  and  C_12
REMARK    7  A    between atoms: C_12  and  N_13
REMARK    8  A    between atoms: N_13  and  C_14
REMARK    9  A    between atoms: N_13  and  S_22
REMARK   10  A    between atoms: C_19  and  O_20
REMARK   11  A    between atoms: O_20  and  C_21
REMARK   12  A    between atoms: S_22  and  C_23
REMARK   13  A    between atoms: C_27  and  O_28
REMARK   14  A    between atoms: O_28  and  C_29
REMARK                            x       y       z     vdW  Elec       q    Type
REMARK                         _______ _______ _______ _____ _____    ______ ____
ROOT
ATOM      1  N   UNL     1       2.085   7.199  18.076  0.00  0.00    +0.000 N 
ATOM      2  C   UNL     1       2.628   6.115  18.735  0.00  0.00    +0.000 C 
ATOM      3  O   UNL     1       3.229   6.224  19.803  0.00  0.00    +0.000 OA
ATOM      4  H   UNL     1       1.361   7.003  17.379  0.00  0.00    +0.000 HD
ENDROOT
BRANCH   1   5
ATOM      5  C   UNL     1       2.092   8.533  18.658  0.00  0.00    +0.000 C 
BRANCH   5   6
ATOM      6  C   UNL     1       1.211   9.527  17.893  0.00  0.00    +0.000 C 
BRANCH   6  10
ATOM      7  C   UNL     1      -1.573  11.690  20.421  0.00  0.00    +0.000 A 
ATOM      8  C   UNL     1      -0.375  11.174  20.940  0.00  0.00    +0.000 A 
ATOM      9  C   UNL     1       0.520  10.470  20.129  0.00  0.00    +0.000 A 
ATOM     10  C   UNL     1       0.225  10.243  18.785  0.00  0.00    +0.000 A 
ATOM     11  C   UNL     1      -1.001  10.699  18.283  0.00  0.00    +0.000 A 
ATOM     12  C   UNL     1      -1.907  11.418  19.083  0.00  0.00    +0.000 A 
BRANCH   7  14
ATOM     13  C   UNL     1      -2.298  12.265  22.605  0.00  0.00    +0.000 C 
ATOM     14  O   UNL     1      -2.430  12.428  21.195  0.00  0.00    +0.000 OA
ENDBRANCH   7  14
BRANCH  12  15
ATOM     15  O   UNL     1      -3.030  11.780  18.386  0.00  0.00    +0.000 OA
ATOM     16  C   UNL     1      -3.241  11.248  17.088  0.00  0.00    +0.000 C 
ENDBRANCH  12  15
ENDBRANCH   6  10
ENDBRANCH   5   6
ENDBRANCH   1   5
BRANCH   2  17
ATOM     17  C   UNL     1       2.540   4.785  18.003  0.00  0.00    +0.000 C 
BRANCH  17  18
ATOM     18  N   UNL     1       3.683   3.869  18.226  0.00  0.00    +0.000 N 
BRANCH  18  19
ATOM     19  C   UNL     1       4.857   4.067  17.408  0.00  0.00    +0.000 A 
ATOM     20  C   UNL     1       4.730   3.930  16.013  0.00  0.00    +0.000 A 
ATOM     21  C   UNL     1       5.817   4.147  15.162  0.00  0.00    +0.000 A 
ATOM     22  C   UNL     1       7.047   4.510  15.693  0.00  0.00    +0.000 A 
ATOM     23  C   UNL     1       7.181   4.674  17.070  0.00  0.00    +0.000 A 
ATOM     24  C   UNL     1       6.100   4.455  17.941  0.00  0.00    +0.000 A 
BRANCH  24  25
ATOM     25  O   UNL     1       6.404   4.775  19.236  0.00  0.00    +0.000 OA
ATOM     26  C   UNL     1       7.467   5.684  19.464  0.00  0.00    +0.000 C 
ENDBRANCH  24  25
ENDBRANCH  18  19
BRANCH  18  27
ATOM     27  S   UNL     1       3.379   2.311  18.793  0.00  0.00    +0.000 S 
ATOM     28  C   UNL     1       4.387   2.156  20.257  0.00  0.00    +0.000 C 
ATOM     29  O   UNL     1       2.001   2.192  19.211  0.00  0.00    +0.000 OA
ATOM     30  O   UNL     1       3.935   1.392  17.815  0.00  0.00    +0.000 OA
ENDBRANCH  18  27
ENDBRANCH  17  18
ENDBRANCH   2  17
TORSDOF 10
ENDMDL
MODEL 7
REMARK VINA RESULT:      -7.1      1.547      2.690
REMARK  Name = 
REMARK  14 active torsions:
REMARK  status: ('A' for Active; 'I' for Inactive)
REMARK    1  A    between atoms: C_1  and  O_2
REMARK    2  A    between atoms: O_2  and  C_3
REMARK    3  A    between atoms: C_6  and  C_7
REMARK    4  A    between atoms: C_7  and  C_8
REMARK    5  A    between atoms: C_8  and  N_9
REMARK    6  A    between atoms: C_10  and  C_12
REMARK    7  A    between atoms: C_12  and  N_13
REMARK    8  A    between atoms: N_13  and  C_14
REMARK    9  A    between atoms: N_13  and  S_22
REMARK   10  A    between atoms: C_19  and  O_20
REMARK   11  A    between atoms: O_20  and  C_21
REMARK   12  A    between atoms: S_22  and  C_23
REMARK   13  A    between atoms: C_27  and  O_28
REMARK   14  A    between atoms: O_28  and  C_29
REMARK                            x       y       z     vdW  Elec       q    Type
REMARK                         _______ _______ _______ _____ _____    ______ ____
ROOT
ATOM      1  N   UNL     1       2.189   6.504  19.878  0.00  0.00    +0.000 N 
ATOM      2  C   UNL     1       2.439   6.502  18.521  0.00  0.00    +0.000 C 
ATOM      3  O   UNL     1       2.370   7.521  17.834  0.00  0.00    +0.000 OA
ATOM      4  H   UNL     1       2.553   5.714  20.418  0.00  0.00    +0.000 HD
ENDROOT
BRANCH   1   5
ATOM      5  C   UNL     1       1.933   7.736  20.609  0.00  0.00    +0.000 C 
BRANCH   5   6
ATOM      6  C   UNL     1       0.658   7.678  21.457  0.00  0.00    +0.000 C 
BRANCH   6  10
ATOM      7  C   UNL     1      -1.129  11.601  21.933  0.00  0.00    +0.000 A 
ATOM      8  C   UNL     1      -0.945  10.751  23.035  0.00  0.00    +0.000 A 
ATOM      9  C   UNL     1      -0.377   9.484  22.883  0.00  0.00    +0.000 A 
ATOM     10  C   UNL     1      -0.002   9.026  21.620  0.00  0.00    +0.000 A 
ATOM     11  C   UNL     1      -0.248   9.846  20.512  0.00  0.00    +0.000 A 
ATOM     12  C   UNL     1      -0.810  11.128  20.649  0.00  0.00    +0.000 A 
BRANCH   7  14
ATOM     13  C   UNL     1      -3.057  12.968  22.146  0.00  0.00    +0.000 C 
ATOM     14  O   UNL     1      -1.636  12.866  22.080  0.00  0.00    +0.000 OA
ENDBRANCH   7  14
BRANCH  12  15
ATOM     15  O   UNL     1      -0.944  11.760  19.440  0.00  0.00    +0.000 OA
ATOM     16  C   UNL     1       0.086  12.626  18.993  0.00  0.00    +0.000 C 
ENDBRANCH  12  15
ENDBRANCH   6  10
ENDBRANCH   5   6
ENDBRANCH   1   5
BRANCH   2  17
ATOM     17  C   UNL     1       2.695   5.138  17.899  0.00  0.00    +0.000 C 
BRANCH  17  18
ATOM     18  N   UNL     1       3.709   4.311  18.593  0.00  0.00    +0.000 N 
BRANCH  18  19
ATOM     19  C   UNL     1       5.096   4.664  18.395  0.00  0.00    +0.000 A 
ATOM     20  C   UNL     1       5.797   5.245  19.468  0.00  0.00    +0.000 A 
ATOM     21  C   UNL     1       7.151   5.574  19.356  0.00  0.00    +0.000 A 
ATOM     22  C   UNL     1       7.825   5.322  18.170  0.00  0.00    +0.000 A 
ATOM     23  C   UNL     1       7.151   4.724  17.107  0.00  0.00    +0.000 A 
ATOM     24  C   UNL     1       5.789   4.391  17.201  0.00  0.00    +0.000 A 
BRANCH  24  25
ATOM     25  O   UNL     1       5.342   3.716  16.098  0.00  0.00    +0.000 OA
ATOM     26  C   UNL     1       6.093   3.830  14.901  0.00  0.00    +0.000 C 
ENDBRANCH  24  25
ENDBRANCH  18  19
BRANCH  18  27
ATOM     27  S   UNL     1       3.353   2.698  18.932  0.00  0.00    +0.000 S 
ATOM     28  C   UNL     1       1.977   2.766  20.065  0.00  0.00    +0.000 C 
ATOM     29  O   UNL     1       2.889   2.029  17.739  0.00  0.00    +0.000 OA
ATOM     30  O   UNL     1       4.477   2.170  19.686  0.00  0.00    +0.000 OA
ENDBRANCH  18  27
ENDBRANCH  17  18
ENDBRANCH   2  17
TORSDOF 10
ENDMDL
MODEL 8
REMARK VINA RESULT:      -7.0      1.423      2.144
REMARK  Name = 
REMARK  14 active torsions:
REMARK  status: ('A' for Active; 'I' for Inactive)
REMARK    1  A    between atoms: C_1  and  O_2
REMARK    2  A    between atoms: O_2  and  C_3
REMARK    3  A    between atoms: C_6  and  C_7
REMARK    4  A    between atoms: C_7  and  C_8
REMARK    5  A    between atoms: C_8  and  N_9
REMARK    6  A    between atoms: C_10  and  C_12
REMARK    7  A    between atoms: C_12  and  N_13
REMARK    8  A    between atoms: N_13  and  C_14
REMARK    9  A    between atoms: N_13  and  S_22
REMARK   10  A    between atoms: C_19  and  O_20
REMARK   11  A    between atoms: O_20  and  C_21
REMARK   12  A    between atoms: S_22  and  C_23
REMARK   13  A    between atoms: C_27  and  O_28
REMARK   14  A    between atoms: O_28  and  C_29
REMARK                            x       y       z     vdW  Elec       q    Type
REMARK                         _______ _______ _______ _____ _____    ______ ____
ROOT
ATOM      1  N   UNL     1       2.227   7.101  19.320  0.00  0.00    +0.000 N 
ATOM      2  C   UNL     1       2.333   5.741  19.529  0.00  0.00    +0.000 C 
ATOM      3  O   UNL     1       2.317   5.242  20.655  0.00  0.00    +0.000 OA
ATOM      4  H   UNL     1       1.947   7.404  18.383  0.00  0.00    +0.000 HD
ENDROOT
BRANCH   1   5
ATOM      5  C   UNL     1       1.977   8.029  20.413  0.00  0.00    +0.000 C 
BRANCH   5   6
ATOM      6  C   UNL     1       0.615   7.815  21.082  0.00  0.00    +0.000 C 
BRANCH   6  10
ATOM      7  C   UNL     1      -1.188  11.581  22.257  0.00  0.00    +0.000 A 
ATOM      8  C   UNL     1      -0.998  10.548  23.189  0.00  0.00    +0.000 A 
ATOM      9  C   UNL     1      -0.424   9.331  22.811  0.00  0.00    +0.000 A 
ATOM     10  C   UNL     1      -0.050   9.109  21.485  0.00  0.00    +0.000 A 
ATOM     11  C   UNL     1      -0.302  10.114  20.543  0.00  0.00    +0.000 A 
ATOM     12  C   UNL     1      -0.869  11.348  20.909  0.00  0.00    +0.000 A 
BRANCH   7  14
ATOM     13  C   UNL     1      -3.030  12.785  23.145  0.00  0.00    +0.000 C 
ATOM     14  O   UNL     1      -1.700  12.797  22.630  0.00  0.00    +0.000 OA
ENDBRANCH   7  14
BRANCH  12  15
ATOM     15  O   UNL     1      -1.009  12.186  19.834  0.00  0.00    +0.000 OA
ATOM     16  C   UNL     1       0.048  13.074  19.505  0.00  0.00    +0.000 C 
ENDBRANCH  12  15
ENDBRANCH   6  10
ENDBRANCH   5   6
ENDBRANCH   1   5
BRANCH   2  17
ATOM     17  C   UNL     1       2.589   4.899  18.289  0.00  0.00    +0.000 C 
BRANCH  17  18
ATOM     18  N   UNL     1       3.707   3.934  18.404  0.00  0.00    +0.000 N 
BRANCH  18  19
ATOM     19  C   UNL     1       4.848   4.141  17.543  0.00  0.00    +0.000 A 
ATOM     20  C   UNL     1       4.664   4.027  16.153  0.00  0.00    +0.000 A 
ATOM     21  C   UNL     1       5.716   4.253  15.261  0.00  0.00    +0.000 A 
ATOM     22  C   UNL     1       6.969   4.602  15.747  0.00  0.00    +0.000 A 
ATOM     23  C   UNL     1       7.160   4.743  17.120  0.00  0.00    +0.000 A 
ATOM     24  C   UNL     1       6.114   4.515  18.030  0.00  0.00    +0.000 A 
BRANCH  24  25
ATOM     25  O   UNL     1       6.472   4.812  19.317  0.00  0.00    +0.000 OA
ATOM     26  C   UNL     1       7.568   5.689  19.516  0.00  0.00    +0.000 C 
ENDBRANCH  24  25
ENDBRANCH  18  19
BRANCH  18  27
ATOM     27  S   UNL     1       3.375   2.357  18.898  0.00  0.00    +0.000 S 
ATOM     28  C   UNL     1       4.416   2.099  20.324  0.00  0.00    +0.000 C 
ATOM     29  O   UNL     1       2.006   2.253  19.347  0.00  0.00    +0.000 OA
ATOM     30  O   UNL     1       3.881   1.477  17.859  0.00  0.00    +0.000 OA
ENDBRANCH  18  27
ENDBRANCH  17  18
ENDBRANCH   2  17
TORSDOF 10
ENDMDL
MODEL 9
REMARK VINA RESULT:      -7.0      1.347      2.115
REMARK  Name = 
REMARK  14 active torsions:
REMARK  status: ('A' for Active; 'I' for Inactive)
REMARK    1  A    between atoms: C_1  and  O_2
REMARK    2  A    between atoms: O_2  and  C_3
REMARK    3  A    between atoms: C_6  and  C_7
REMARK    4  A    between atoms: C_7  and  C_8
REMARK    5  A    between atoms: C_8  and  N_9
REMARK    6  A    between atoms: C_10  and  C_12
REMARK    7  A    between atoms: C_12  and  N_13
REMARK    8  A    between atoms: N_13  and  C_14
REMARK    9  A    between atoms: N_13  and  S_22
REMARK   10  A    between atoms: C_19  and  O_20
REMARK   11  A    between atoms: O_20  and  C_21
REMARK   12  A    between atoms: S_22  and  C_23
REMARK   13  A    between atoms: C_27  and  O_28
REMARK   14  A    between atoms: O_28  and  C_29
REMARK                            x       y       z     vdW  Elec       q    Type
REMARK                         _______ _______ _______ _____ _____    ______ ____
ROOT
ATOM      1  N   UNL     1       2.125   7.107  19.861  0.00  0.00    +0.000 N 
ATOM      2  C   UNL     1       2.297   5.742  19.962  0.00  0.00    +0.000 C 
ATOM      3  O   UNL     1       2.304   5.154  21.043  0.00  0.00    +0.000 OA
ATOM      4  H   UNL     1       1.832   7.472  18.951  0.00  0.00    +0.000 HD
ENDROOT
BRANCH   1   5
ATOM      5  C   UNL     1       1.830   7.931  21.024  0.00  0.00    +0.000 C 
BRANCH   5   6
ATOM      6  C   UNL     1       0.332   8.021  21.332  0.00  0.00    +0.000 C 
BRANCH   6  10
ATOM      7  C   UNL     1      -0.895  12.119  22.048  0.00  0.00    +0.000 A 
ATOM      8  C   UNL     1      -0.974  11.152  23.063  0.00  0.00    +0.000 A 
ATOM      9  C   UNL     1      -0.586   9.829  22.833  0.00  0.00    +0.000 A 
ATOM     10  C   UNL     1      -0.135   9.437  21.572  0.00  0.00    +0.000 A 
ATOM     11  C   UNL     1      -0.121  10.385  20.542  0.00  0.00    +0.000 A 
ATOM     12  C   UNL     1      -0.498  11.722  20.761  0.00  0.00    +0.000 A 
BRANCH   7  14
ATOM     13  C   UNL     1      -0.129  14.341  22.374  0.00  0.00    +0.000 C 
ATOM     14  O   UNL     1      -1.222  13.430  22.280  0.00  0.00    +0.000 OA
ENDBRANCH   7  14
BRANCH  12  15
ATOM     15  O   UNL     1      -0.390  12.476  19.621  0.00  0.00    +0.000 OA
ATOM     16  C   UNL     1      -1.109  12.087  18.462  0.00  0.00    +0.000 C 
ENDBRANCH  12  15
ENDBRANCH   6  10
ENDBRANCH   5   6
ENDBRANCH   1   5
BRANCH   2  17
ATOM     17  C   UNL     1       2.594   5.015  18.659  0.00  0.00    +0.000 C 
BRANCH  17  18
ATOM     18  N   UNL     1       3.688   4.019  18.730  0.00  0.00    +0.000 N 
BRANCH  18  19
ATOM     19  C   UNL     1       4.794   4.187  17.816  0.00  0.00    +0.000 A 
ATOM     20  C   UNL     1       4.546   4.049  16.438  0.00  0.00    +0.000 A 
ATOM     21  C   UNL     1       5.562   4.237  15.496  0.00  0.00    +0.000 A 
ATOM     22  C   UNL     1       6.841   4.572  15.921  0.00  0.00    +0.000 A 
ATOM     23  C   UNL     1       7.095   4.737  17.281  0.00  0.00    +0.000 A 
ATOM     24  C   UNL     1       6.086   4.547  18.240  0.00  0.00    +0.000 A 
BRANCH  24  25
ATOM     25  O   UNL     1       6.506   4.862  19.504  0.00  0.00    +0.000 OA
ATOM     26  C   UNL     1       7.650   5.688  19.636  0.00  0.00    +0.000 C 
ENDBRANCH  24  25
ENDBRANCH  18  19
BRANCH  18  27
ATOM     27  S   UNL     1       3.334   2.455  19.251  0.00  0.00    +0.000 S 
ATOM     28  C   UNL     1       1.555   2.345  19.181  0.00  0.00    +0.000 C 
ATOM     29  O   UNL     1       3.857   1.487  18.315  0.00  0.00    +0.000 OA
ATOM     30  O   UNL     1       3.692   2.391  20.658  0.00  0.00    +0.000 OA
ENDBRANCH  18  27
ENDBRANCH  17  18
ENDBRANCH   2  17
TORSDOF 10
ENDMDL
