MODEL 1
REMARK VINA RESULT:      -7.8      0.000      0.000
REMARK  Name = 
REMARK  7 active torsions:
REMARK  status: ('A' for Active; 'I' for Inactive)
REMARK    1  A    between atoms: C_1  and  C_2
REMARK    2  A    between atoms: C_7  and  C_8
REMARK    3  A    between atoms: C_11  and  C_13
REMARK    4  A    between atoms: C_17  and  C_18
REMARK    5  A    between atoms: C_21  and  C_22
REMARK    6  A    between atoms: C_22  and  O_23
REMARK    7  A    between atoms: O_23  and  C_24
REMARK                            x       y       z     vdW  Elec       q    Type
REMARK                         _______ _______ _______ _____ _____    ______ ____
ROOT
ATOM      1  C   UNL     1       3.197   6.312  18.458  0.00  0.00    +0.000 C 
ATOM      2  C   UNL     1       3.507   7.786  18.200  0.00  0.00    +0.000 C 
ATOM      3  N   UNL     1       2.355   8.462  18.755  0.00  0.00    +0.000 N 
ATOM      4  C   UNL     1       1.776   9.584  18.170  0.00  0.00    +0.000 C 
ATOM      5  O   UNL     1       2.201  10.075  17.122  0.00  0.00    +0.000 OA
ATOM      6  C   UNL     1       1.835   7.709  19.892  0.00  0.00    +0.000 C 
ATOM      7  C   UNL     1       2.556   6.352  19.867  0.00  0.00    +0.000 C 
ENDROOT
BRANCH   1  14
ATOM      8  C   UNL     1       6.247   4.021  13.609  0.00  0.00    +0.000 C 
ATOM      9  C   UNL     1       6.724   4.908  14.732  0.00  0.00    +0.000 C 
ATOM     10  O   UNL     1       7.874   5.349  14.716  0.00  0.00    +0.000 OA
ATOM     11  N   UNL     1       5.820   5.201  15.745  0.00  0.00    +0.000 N 
ATOM     12  C   UNL     1       6.186   6.204  16.740  0.00  0.00    +0.000 C 
ATOM     13  C   UNL     1       5.774   5.787  18.150  0.00  0.00    +0.000 C 
ATOM     14  C   UNL     1       4.330   5.268  18.281  0.00  0.00    +0.000 C 
ATOM     15  C   UNL     1       4.026   4.275  17.142  0.00  0.00    +0.000 C 
ATOM     16  C   UNL     1       4.426   4.774  15.758  0.00  0.00    +0.000 C 
ENDBRANCH   1  14
BRANCH   4  17
ATOM     17  C   UNL     1       0.547  10.180  18.817  0.00  0.00    +0.000 A 
ATOM     18  C   UNL     1       0.660  10.956  19.959  0.00  0.00    +0.000 A 
ATOM     19  C   UNL     1      -0.486  11.585  20.445  0.00  0.00    +0.000 A 
ATOM     20  C   UNL     1      -1.696  11.434  19.762  0.00  0.00    +0.000 A 
ATOM     21  C   UNL     1      -1.728  10.635  18.629  0.00  0.00    +0.000 A 
ATOM     22  C   UNL     1      -2.952  10.513  17.775  0.00  0.00    +0.000 C 
ATOM     23  N   UNL     1      -0.638   9.986  18.182  0.00  0.00    +0.000 NA
ENDBRANCH   4  17
BRANCH   7  24
ATOM     24  C   UNL     1       1.553   5.229  20.160  0.00  0.00    +0.000 C 
BRANCH  24  25
ATOM     25  O   UNL     1       2.227   4.252  20.960  0.00  0.00    +0.000 OA
BRANCH  25  26
ATOM     26  C   UNL     1       2.786   3.183  20.322  0.00  0.00    +0.000 A 
ATOM     27  C   UNL     1       1.975   2.605  19.340  0.00  0.00    +0.000 A 
ATOM     28  C   UNL     1       2.421   1.510  18.597  0.00  0.00    +0.000 A 
ATOM     29  C   UNL     1       3.696   0.998  18.819  0.00  0.00    +0.000 A 
ATOM     30  C   UNL     1       4.519   1.583  19.778  0.00  0.00    +0.000 A 
ATOM     31  C   UNL     1       4.067   2.677  20.533  0.00  0.00    +0.000 A 
ENDBRANCH  25  26
ENDBRANCH  24  25
ENDBRANCH   7  24
TORSDOF 5
ENDMDL
MODEL 2
REMARK VINA RESULT:      -7.6      3.585      8.304
REMARK  Name = 
REMARK  7 active torsions:
REMARK  status: ('A' for Active; 'I' for Inactive)
REMARK    1  A    between atoms: C_1  and  C_2
REMARK    2  A    between atoms: C_7  and  C_8
REMARK    3  A    between atoms: C_11  and  C_13
REMARK    4  A    between atoms: C_17  and  C_18
REMARK    5  A    between atoms: C_21  and  C_22
REMARK    6  A    between atoms: C_22  and  O_23
REMARK    7  A    between atoms: O_23  and  C_24
REMARK                            x       y       z     vdW  Elec       q    Type
REMARK                         _______ _______ _______ _____ _____    ______ ____
ROOT
ATOM      1  C   UNL     1      -0.675  10.676  19.271  0.00  0.00    +0.000 C 
ATOM      2  C   UNL     1      -1.212  10.714  17.841  0.00  0.00    +0.000 C 
ATOM      3  N   UNL     1      -2.569  11.183  18.017  0.00  0.00    +0.000 N 
ATOM      4  C   UNL     1      -3.642  10.706  17.271  0.00  0.00    +0.000 C 
ATOM      5  O   UNL     1      -3.511   9.831  16.411  0.00  0.00    +0.000 OA
ATOM      6  C   UNL     1      -2.639  12.087  19.161  0.00  0.00    +0.000 C 
ATOM      7  C   UNL     1      -1.293  11.954  19.890  0.00  0.00    +0.000 C 
ENDROOT
BRANCH   1  14
ATOM      8  C   UNL     1       3.117   5.840  19.823  0.00  0.00    +0.000 C 
ATOM      9  C   UNL     1       3.004   6.872  18.728  0.00  0.00    +0.000 C 
ATOM     10  O   UNL     1       3.693   6.764  17.713  0.00  0.00    +0.000 OA
ATOM     11  N   UNL     1       2.100   7.909  18.917  0.00  0.00    +0.000 N 
ATOM     12  C   UNL     1       1.829   8.811  17.803  0.00  0.00    +0.000 C 
ATOM     13  C   UNL     1       1.736  10.267  18.256  0.00  0.00    +0.000 C 
ATOM     14  C   UNL     1       0.851  10.511  19.492  0.00  0.00    +0.000 C 
ATOM     15  C   UNL     1       1.167   9.461  20.576  0.00  0.00    +0.000 C 
ATOM     16  C   UNL     1       1.202   8.026  20.061  0.00  0.00    +0.000 C 
ENDBRANCH   1  14
BRANCH   4  17
ATOM     17  C   UNL     1      -5.023  11.240  17.573  0.00  0.00    +0.000 A 
ATOM     18  C   UNL     1      -5.809  10.645  18.547  0.00  0.00    +0.000 A 
ATOM     19  C   UNL     1      -7.022  11.250  18.875  0.00  0.00    +0.000 A 
ATOM     20  C   UNL     1      -7.395  12.435  18.235  0.00  0.00    +0.000 A 
ATOM     21  C   UNL     1      -6.557  12.964  17.267  0.00  0.00    +0.000 A 
ATOM     22  C   UNL     1      -6.824  14.287  16.617  0.00  0.00    +0.000 C 
ATOM     23  N   UNL     1      -5.408  12.361  16.910  0.00  0.00    +0.000 NA
ENDBRANCH   4  17
BRANCH   7  24
ATOM     24  C   UNL     1      -1.528  11.899  21.405  0.00  0.00    +0.000 C 
BRANCH  24  25
ATOM     25  O   UNL     1      -2.264  13.072  21.766  0.00  0.00    +0.000 OA
BRANCH  25  26
ATOM     26  C   UNL     1      -3.328  12.921  22.606  0.00  0.00    +0.000 A 
ATOM     27  C   UNL     1      -4.576  13.109  22.003  0.00  0.00    +0.000 A 
ATOM     28  C   UNL     1      -5.755  12.975  22.739  0.00  0.00    +0.000 A 
ATOM     29  C   UNL     1      -5.692  12.630  24.086  0.00  0.00    +0.000 A 
ATOM     30  C   UNL     1      -4.455  12.417  24.689  0.00  0.00    +0.000 A 
ATOM     31  C   UNL     1      -3.269  12.562  23.952  0.00  0.00    +0.000 A 
ENDBRANCH  25  26
ENDBRANCH  24  25
ENDBRANCH   7  24
TORSDOF 5
ENDMDL
MODEL 3
REMARK VINA RESULT:      -7.5      0.579      1.274
REMARK  Name = 
REMARK  7 active torsions:
REMARK  status: ('A' for Active; 'I' for Inactive)
REMARK    1  A    between atoms: C_1  and  C_2
REMARK    2  A    between atoms: C_7  and  C_8
REMARK    3  A    between atoms: C_11  and  C_13
REMARK    4  A    between atoms: C_17  and  C_18
REMARK    5  A    between atoms: C_21  and  C_22
REMARK    6  A    between atoms: C_22  and  O_23
REMARK    7  A    between atoms: O_23  and  C_24
REMARK                            x       y       z     vdW  Elec       q    Type
REMARK                         _______ _______ _______ _____ _____    ______ ____
ROOT
ATOM      1  C   UNL     1       3.181   6.379  18.415  0.00  0.00    +0.000 C 
ATOM      2  C   UNL     1       3.516   7.855  18.204  0.00  0.00    +0.000 C 
ATOM      3  N   UNL     1       2.346   8.531  18.722  0.00  0.00    +0.000 N 
ATOM      4  C   UNL     1       1.805   9.672  18.137  0.00  0.00    +0.000 C 
ATOM      5  O   UNL     1       2.281  10.181  17.120  0.00  0.00    +0.000 OA
ATOM      6  C   UNL     1       1.769   7.758  19.818  0.00  0.00    +0.000 C 
ATOM      7  C   UNL     1       2.477   6.395  19.794  0.00  0.00    +0.000 C 
ENDROOT
BRANCH   1  14
ATOM      8  C   UNL     1       6.251   3.983  13.630  0.00  0.00    +0.000 C 
ATOM      9  C   UNL     1       6.725   4.890  14.739  0.00  0.00    +0.000 C 
ATOM     10  O   UNL     1       7.877   5.325  14.722  0.00  0.00    +0.000 OA
ATOM     11  N   UNL     1       5.816   5.205  15.740  0.00  0.00    +0.000 N 
ATOM     12  C   UNL     1       6.180   6.226  16.718  0.00  0.00    +0.000 C 
ATOM     13  C   UNL     1       5.757   5.838  18.133  0.00  0.00    +0.000 C 
ATOM     14  C   UNL     1       4.310   5.328  18.265  0.00  0.00    +0.000 C 
ATOM     15  C   UNL     1       4.009   4.314  17.143  0.00  0.00    +0.000 C 
ATOM     16  C   UNL     1       4.419   4.785  15.753  0.00  0.00    +0.000 C 
ENDBRANCH   1  14
BRANCH   4  17
ATOM     17  C   UNL     1       0.554  10.266  18.742  0.00  0.00    +0.000 A 
ATOM     18  C   UNL     1      -0.670  10.122  18.107  0.00  0.00    +0.000 A 
ATOM     19  C   UNL     1      -1.811  10.579  18.766  0.00  0.00    +0.000 A 
ATOM     20  C   UNL     1      -1.692  11.142  20.039  0.00  0.00    +0.000 A 
ATOM     21  C   UNL     1      -0.431  11.256  20.604  0.00  0.00    +0.000 A 
ATOM     22  C   UNL     1      -0.227  11.739  22.007  0.00  0.00    +0.000 C 
ATOM     23  N   UNL     1       0.680  10.862  19.955  0.00  0.00    +0.000 NA
ENDBRANCH   4  17
BRANCH   7  24
ATOM     24  C   UNL     1       1.451   5.276  20.017  0.00  0.00    +0.000 C 
BRANCH  24  25
ATOM     25  O   UNL     1       2.063   4.298  20.864  0.00  0.00    +0.000 OA
BRANCH  25  26
ATOM     26  C   UNL     1       2.673   3.233  20.267  0.00  0.00    +0.000 A 
ATOM     27  C   UNL     1       1.920   2.622  19.260  0.00  0.00    +0.000 A 
ATOM     28  C   UNL     1       2.424   1.527  18.554  0.00  0.00    +0.000 A 
ATOM     29  C   UNL     1       3.699   1.048  18.840  0.00  0.00    +0.000 A 
ATOM     30  C   UNL     1       4.465   1.666  19.825  0.00  0.00    +0.000 A 
ATOM     31  C   UNL     1       3.955   2.761  20.542  0.00  0.00    +0.000 A 
ENDBRANCH  25  26
ENDBRANCH  24  25
ENDBRANCH   7  24
TORSDOF 5
ENDMDL
MODEL 4
REMARK VINA RESULT:      -7.4      1.291      1.606
REMARK  Name = 
REMARK  7 active torsions:
REMARK  status: ('A' for Active; 'I' for Inactive)
REMARK    1  A    between atoms: C_1  and  C_2
REMARK    2  A    between atoms: C_7  and  C_8
REMARK    3  A    between atoms: C_11  and  C_13
REMARK    4  A    between atoms: C_17  and  C_18
REMARK    5  A    between atoms: C_21  and  C_22
REMARK    6  A    between atoms: C_22  and  O_23
REMARK    7  A    between atoms: O_23  and  C_24
REMARK                            x       y       z     vdW  Elec       q    Type
REMARK                         _______ _______ _______ _____ _____    ______ ____
ROOT
ATOM      1  C   UNL     1       3.530   6.130  17.397  0.00  0.00    +0.000 C 
ATOM      2  C   UNL     1       3.773   7.529  17.960  0.00  0.00    +0.000 C 
ATOM      3  N   UNL     1       2.435   8.008  18.228  0.00  0.00    +0.000 N 
ATOM      4  C   UNL     1       2.040   9.325  18.012  0.00  0.00    +0.000 C 
ATOM      5  O   UNL     1       2.807  10.178  17.560  0.00  0.00    +0.000 OA
ATOM      6  C   UNL     1       1.571   6.891  18.599  0.00  0.00    +0.000 C 
ATOM      7  C   UNL     1       2.367   5.616  18.282  0.00  0.00    +0.000 C 
ENDROOT
BRANCH   1  14
ATOM      8  C   UNL     1       6.892   4.040  12.665  0.00  0.00    +0.000 C 
ATOM      9  C   UNL     1       7.272   4.954  13.804  0.00  0.00    +0.000 C 
ATOM     10  O   UNL     1       8.391   5.466  13.829  0.00  0.00    +0.000 OA
ATOM     11  N   UNL     1       6.315   5.188  14.782  0.00  0.00    +0.000 N 
ATOM     12  C   UNL     1       6.580   6.211  15.789  0.00  0.00    +0.000 C 
ATOM     13  C   UNL     1       6.144   5.767  17.184  0.00  0.00    +0.000 C 
ATOM     14  C   UNL     1       4.731   5.159  17.263  0.00  0.00    +0.000 C 
ATOM     15  C   UNL     1       4.532   4.150  16.114  0.00  0.00    +0.000 C 
ATOM     16  C   UNL     1       4.950   4.675  14.745  0.00  0.00    +0.000 C 
ENDBRANCH   1  14
BRANCH   4  17
ATOM     17  C   UNL     1       0.603   9.700  18.288  0.00  0.00    +0.000 A 
ATOM     18  C   UNL     1       0.247  10.283  19.494  0.00  0.00    +0.000 A 
ATOM     19  C   UNL     1      -1.067  10.724  19.651  0.00  0.00    +0.000 A 
ATOM     20  C   UNL     1      -1.969  10.587  18.593  0.00  0.00    +0.000 A 
ATOM     21  C   UNL     1      -1.538   9.988  17.420  0.00  0.00    +0.000 A 
ATOM     22  C   UNL     1      -2.405   9.907  16.201  0.00  0.00    +0.000 C 
ATOM     23  N   UNL     1      -0.286   9.516  17.278  0.00  0.00    +0.000 NA
ENDBRANCH   4  17
BRANCH   7  24
ATOM     24  C   UNL     1       1.446   4.585  17.616  0.00  0.00    +0.000 C 
BRANCH  24  25
ATOM     25  O   UNL     1       1.962   3.287  17.931  0.00  0.00    +0.000 OA
BRANCH  25  26
ATOM     26  C   UNL     1       2.209   3.002  19.243  0.00  0.00    +0.000 A 
ATOM     27  C   UNL     1       1.094   3.110  20.080  0.00  0.00    +0.000 A 
ATOM     28  C   UNL     1       1.195   2.836  21.445  0.00  0.00    +0.000 A 
ATOM     29  C   UNL     1       2.414   2.431  21.980  0.00  0.00    +0.000 A 
ATOM     30  C   UNL     1       3.523   2.298  21.149  0.00  0.00    +0.000 A 
ATOM     31  C   UNL     1       3.425   2.583  19.778  0.00  0.00    +0.000 A 
ENDBRANCH  25  26
ENDBRANCH  24  25
ENDBRANCH   7  24
TORSDOF 5
ENDMDL
MODEL 5
REMARK VINA RESULT:      -7.4      3.472      8.198
REMARK  Name = 
REMARK  7 active torsions:
REMARK  status: ('A' for Active; 'I' for Inactive)
REMARK    1  A    between atoms: C_1  and  C_2
REMARK    2  A    between atoms: C_7  and  C_8
REMARK    3  A    between atoms: C_11  and  C_13
REMARK    4  A    between atoms: C_17  and  C_18
REMARK    5  A    between atoms: C_21  and  C_22
REMARK    6  A    between atoms: C_22  and  O_23
REMARK    7  A    between atoms: O_23  and  C_24
REMARK                            x       y       z     vdW  Elec       q    Type
REMARK                         _______ _______ _______ _____ _____    ______ ____
ROOT
ATOM      1  C   UNL     1      -0.550  10.460  19.246  0.00  0.00    +0.000 C 
ATOM      2  C   UNL     1      -1.085  10.597  17.821  0.00  0.00    +0.000 C 
ATOM      3  N   UNL     1      -2.446  11.042  18.028  0.00  0.00    +0.000 N 
ATOM      4  C   UNL     1      -3.514  10.611  17.247  0.00  0.00    +0.000 C 
ATOM      5  O   UNL     1      -3.375   9.802  16.327  0.00  0.00    +0.000 OA
ATOM      6  C   UNL     1      -2.526  11.860  19.234  0.00  0.00    +0.000 C 
ATOM      7  C   UNL     1      -1.180  11.686  19.954  0.00  0.00    +0.000 C 
ENDROOT
BRANCH   1  14
ATOM      8  C   UNL     1       3.235   5.617  19.772  0.00  0.00    +0.000 C 
ATOM      9  C   UNL     1       3.118   6.650  18.678  0.00  0.00    +0.000 C 
ATOM     10  O   UNL     1       3.800   6.541  17.659  0.00  0.00    +0.000 OA
ATOM     11  N   UNL     1       2.217   7.688  18.873  0.00  0.00    +0.000 N 
ATOM     12  C   UNL     1       1.941   8.592  17.761  0.00  0.00    +0.000 C 
ATOM     13  C   UNL     1       1.854  10.048  18.215  0.00  0.00    +0.000 C 
ATOM     14  C   UNL     1       0.977  10.292  19.457  0.00  0.00    +0.000 C 
ATOM     15  C   UNL     1       1.297   9.241  20.539  0.00  0.00    +0.000 C 
ATOM     16  C   UNL     1       1.326   7.807  20.022  0.00  0.00    +0.000 C 
ENDBRANCH   1  14
BRANCH   4  17
ATOM     17  C   UNL     1      -4.900  11.110  17.584  0.00  0.00    +0.000 A 
ATOM     18  C   UNL     1      -5.662  10.473  18.551  0.00  0.00    +0.000 A 
ATOM     19  C   UNL     1      -6.881  11.045  18.913  0.00  0.00    +0.000 A 
ATOM     20  C   UNL     1      -7.284  12.242  18.315  0.00  0.00    +0.000 A 
ATOM     21  C   UNL     1      -6.468  12.815  17.352  0.00  0.00    +0.000 A 
ATOM     22  C   UNL     1      -6.768  14.152  16.746  0.00  0.00    +0.000 C 
ATOM     23  N   UNL     1      -5.315  12.244  16.961  0.00  0.00    +0.000 NA
ENDBRANCH   4  17
BRANCH   7  24
ATOM     24  C   UNL     1      -1.416  11.519  21.461  0.00  0.00    +0.000 C 
BRANCH  24  25
ATOM     25  O   UNL     1      -0.822  12.646  22.113  0.00  0.00    +0.000 OA
BRANCH  25  26
ATOM     26  C   UNL     1      -1.569  13.308  23.044  0.00  0.00    +0.000 A 
ATOM     27  C   UNL     1      -2.821  12.738  23.296  0.00  0.00    +0.000 A 
ATOM     28  C   UNL     1      -3.688  13.302  24.234  0.00  0.00    +0.000 A 
ATOM     29  C   UNL     1      -3.297  14.434  24.943  0.00  0.00    +0.000 A 
ATOM     30  C   UNL     1      -2.043  14.994  24.715  0.00  0.00    +0.000 A 
ATOM     31  C   UNL     1      -1.175  14.433  23.765  0.00  0.00    +0.000 A 
ENDBRANCH  25  26
ENDBRANCH  24  25
ENDBRANCH   7  24
TORSDOF 5
ENDMDL
MODEL 6
REMARK VINA RESULT:      -7.3      3.413      8.150
REMARK  Name = 
REMARK  7 active torsions:
REMARK  status: ('A' for Active; 'I' for Inactive)
REMARK    1  A    between atoms: C_1  and  C_2
REMARK    2  A    between atoms: C_7  and  C_8
REMARK    3  A    between atoms: C_11  and  C_13
REMARK    4  A    between atoms: C_17  and  C_18
REMARK    5  A    between atoms: C_21  and  C_22
REMARK    6  A    between atoms: C_22  and  O_23
REMARK    7  A    between atoms: O_23  and  C_24
REMARK                            x       y       z     vdW  Elec       q    Type
REMARK                         _______ _______ _______ _____ _____    ______ ____
ROOT
ATOM      1  C   UNL     1      -0.429  10.443  19.355  0.00  0.00    +0.000 C 
ATOM      2  C   UNL     1      -0.998  10.477  17.937  0.00  0.00    +0.000 C 
ATOM      3  N   UNL     1      -2.324  11.022  18.132  0.00  0.00    +0.000 N 
ATOM      4  C   UNL     1      -3.438  10.586  17.423  0.00  0.00    +0.000 C 
ATOM      5  O   UNL     1      -3.375   9.687  16.582  0.00  0.00    +0.000 OA
ATOM      6  C   UNL     1      -2.318  11.954  19.256  0.00  0.00    +0.000 C 
ATOM      7  C   UNL     1      -0.964  11.766  19.956  0.00  0.00    +0.000 C 
ENDROOT
BRANCH   1  14
ATOM      8  C   UNL     1       3.124   5.422  19.836  0.00  0.00    +0.000 C 
ATOM      9  C   UNL     1       3.041   6.458  18.742  0.00  0.00    +0.000 C 
ATOM     10  O   UNL     1       3.703   6.315  17.713  0.00  0.00    +0.000 OA
ATOM     11  N   UNL     1       2.194   7.539  18.948  0.00  0.00    +0.000 N 
ATOM     12  C   UNL     1       1.946   8.454  17.838  0.00  0.00    +0.000 C 
ATOM     13  C   UNL     1       1.936   9.913  18.290  0.00  0.00    +0.000 C 
ATOM     14  C   UNL     1       1.090  10.201  19.544  0.00  0.00    +0.000 C 
ATOM     15  C   UNL     1       1.375   9.137  20.623  0.00  0.00    +0.000 C 
ATOM     16  C   UNL     1       1.327   7.702  20.109  0.00  0.00    +0.000 C 
ENDBRANCH   1  14
BRANCH   4  17
ATOM     17  C   UNL     1      -4.781  11.201  17.743  0.00  0.00    +0.000 A 
ATOM     18  C   UNL     1      -5.339  12.151  16.902  0.00  0.00    +0.000 A 
ATOM     19  C   UNL     1      -6.632  12.594  17.175  0.00  0.00    +0.000 A 
ATOM     20  C   UNL     1      -7.329  12.059  18.261  0.00  0.00    +0.000 A 
ATOM     21  C   UNL     1      -6.700  11.116  19.059  0.00  0.00    +0.000 A 
ATOM     22  C   UNL     1      -7.412  10.409  20.171  0.00  0.00    +0.000 C 
ATOM     23  N   UNL     1      -5.434  10.719  18.832  0.00  0.00    +0.000 NA
ENDBRANCH   4  17
BRANCH   7  24
ATOM     24  C   UNL     1      -1.165  11.758  21.477  0.00  0.00    +0.000 C 
BRANCH  24  25
ATOM     25  O   UNL     1      -1.819  12.982  21.827  0.00  0.00    +0.000 OA
BRANCH  25  26
ATOM     26  C   UNL     1      -3.050  12.900  22.411  0.00  0.00    +0.000 A 
ATOM     27  C   UNL     1      -3.026  12.589  23.774  0.00  0.00    +0.000 A 
ATOM     28  C   UNL     1      -4.211  12.484  24.506  0.00  0.00    +0.000 A 
ATOM     29  C   UNL     1      -5.432  12.712  23.878  0.00  0.00    +0.000 A 
ATOM     30  C   UNL     1      -5.463  13.047  22.527  0.00  0.00    +0.000 A 
ATOM     31  C   UNL     1      -4.273  13.142  21.789  0.00  0.00    +0.000 A 
ENDBRANCH  25  26
ENDBRANCH  24  25
ENDBRANCH   7  24
TORSDOF 5
ENDMDL
MODEL 7
REMARK VINA RESULT:      -7.2      3.483      8.251
REMARK  Name = 
REMARK  7 active torsions:
REMARK  status: ('A' for Active; 'I' for Inactive)
REMARK    1  A    between atoms: C_1  and  C_2
REMARK    2  A    between atoms: C_7  and  C_8
REMARK    3  A    between atoms: C_11  and  C_13
REMARK    4  A    between atoms: C_17  and  C_18
REMARK    5  A    between atoms: C_21  and  C_22
REMARK    6  A    between atoms: C_22  and  O_23
REMARK    7  A    between atoms: O_23  and  C_24
REMARK                            x       y       z     vdW  Elec       q    Type
REMARK                         _______ _______ _______ _____ _____    ______ ____
ROOT
ATOM      1  C   UNL     1      -0.426  10.429  19.375  0.00  0.00    +0.000 C 
ATOM      2  C   UNL     1      -0.999  10.561  17.965  0.00  0.00    +0.000 C 
ATOM      3  N   UNL     1      -2.336  11.059  18.203  0.00  0.00    +0.000 N 
ATOM      4  C   UNL     1      -3.442  10.655  17.463  0.00  0.00    +0.000 C 
ATOM      5  O   UNL     1      -3.361   9.825  16.554  0.00  0.00    +0.000 OA
ATOM      6  C   UNL     1      -2.349  11.900  19.396  0.00  0.00    +0.000 C 
ATOM      7  C   UNL     1      -0.989  11.689  20.079  0.00  0.00    +0.000 C 
ENDROOT
BRANCH   1  14
ATOM      8  C   UNL     1       3.200   5.457  19.812  0.00  0.00    +0.000 C 
ATOM      9  C   UNL     1       3.088   6.490  18.719  0.00  0.00    +0.000 C 
ATOM     10  O   UNL     1       3.738   6.355  17.681  0.00  0.00    +0.000 OA
ATOM     11  N   UNL     1       2.230   7.560  18.935  0.00  0.00    +0.000 N 
ATOM     12  C   UNL     1       1.955   8.470  17.828  0.00  0.00    +0.000 C 
ATOM     13  C   UNL     1       1.931   9.930  18.280  0.00  0.00    +0.000 C 
ATOM     14  C   UNL     1       1.099  10.208  19.545  0.00  0.00    +0.000 C 
ATOM     15  C   UNL     1       1.413   9.149  20.620  0.00  0.00    +0.000 C 
ATOM     16  C   UNL     1       1.377   7.713  20.108  0.00  0.00    +0.000 C 
ENDBRANCH   1  14
BRANCH   4  17
ATOM     17  C   UNL     1      -4.798  11.211  17.831  0.00  0.00    +0.000 A 
ATOM     18  C   UNL     1      -5.379  12.211  17.067  0.00  0.00    +0.000 A 
ATOM     19  C   UNL     1      -6.682  12.602  17.375  0.00  0.00    +0.000 A 
ATOM     20  C   UNL     1      -7.363  11.968  18.417  0.00  0.00    +0.000 A 
ATOM     21  C   UNL     1      -6.710  10.981  19.139  0.00  0.00    +0.000 A 
ATOM     22  C   UNL     1      -7.404  10.174  20.193  0.00  0.00    +0.000 C 
ATOM     23  N   UNL     1      -5.437  10.632  18.880  0.00  0.00    +0.000 NA
ENDBRANCH   4  17
BRANCH   7  24
ATOM     24  C   UNL     1      -1.186  11.558  21.595  0.00  0.00    +0.000 C 
BRANCH  24  25
ATOM     25  O   UNL     1      -0.810  12.807  22.183  0.00  0.00    +0.000 OA
BRANCH  25  26
ATOM     26  C   UNL     1      -1.637  13.337  23.131  0.00  0.00    +0.000 A 
ATOM     27  C   UNL     1      -1.126  14.464  23.782  0.00  0.00    +0.000 A 
ATOM     28  C   UNL     1      -1.868  15.119  24.768  0.00  0.00    +0.000 A 
ATOM     29  C   UNL     1      -3.141  14.659  25.094  0.00  0.00    +0.000 A 
ATOM     30  C   UNL     1      -3.667  13.553  24.433  0.00  0.00    +0.000 A 
ATOM     31  C   UNL     1      -2.917  12.887  23.449  0.00  0.00    +0.000 A 
ENDBRANCH  25  26
ENDBRANCH  24  25
ENDBRANCH   7  24
TORSDOF 5
ENDMDL
MODEL 8
REMARK VINA RESULT:      -7.2      3.557      8.369
REMARK  Name = 
REMARK  7 active torsions:
REMARK  status: ('A' for Active; 'I' for Inactive)
REMARK    1  A    between atoms: C_1  and  C_2
REMARK    2  A    between atoms: C_7  and  C_8
REMARK    3  A    between atoms: C_11  and  C_13
REMARK    4  A    between atoms: C_17  and  C_18
REMARK    5  A    between atoms: C_21  and  C_22
REMARK    6  A    between atoms: C_22  and  O_23
REMARK    7  A    between atoms: O_23  and  C_24
REMARK                            x       y       z     vdW  Elec       q    Type
REMARK                         _______ _______ _______ _____ _____    ______ ____
ROOT
ATOM      1  C   UNL     1      -0.754  11.009  19.451  0.00  0.00    +0.000 C 
ATOM      2  C   UNL     1      -1.407  10.616  18.127  0.00  0.00    +0.000 C 
ATOM      3  N   UNL     1      -2.723  11.207  18.226  0.00  0.00    +0.000 N 
ATOM      4  C   UNL     1      -3.874  10.587  17.750  0.00  0.00    +0.000 C 
ATOM      5  O   UNL     1      -3.853   9.473  17.220  0.00  0.00    +0.000 OA
ATOM      6  C   UNL     1      -2.659  12.437  19.010  0.00  0.00    +0.000 C 
ATOM      7  C   UNL     1      -1.264  12.458  19.652  0.00  0.00    +0.000 C 
ENDROOT
BRANCH   1  14
ATOM      8  C   UNL     1       3.003   6.123  19.708  0.00  0.00    +0.000 C 
ATOM      9  C   UNL     1       2.864   7.193  18.654  0.00  0.00    +0.000 C 
ATOM     10  O   UNL     1       3.518   7.114  17.613  0.00  0.00    +0.000 OA
ATOM     11  N   UNL     1       1.978   8.231  18.909  0.00  0.00    +0.000 N 
ATOM     12  C   UNL     1       1.679   9.174  17.836  0.00  0.00    +0.000 C 
ATOM     13  C   UNL     1       1.616  10.614  18.341  0.00  0.00    +0.000 C 
ATOM     14  C   UNL     1       0.776  10.823  19.615  0.00  0.00    +0.000 C 
ATOM     15  C   UNL     1       1.117   9.733  20.650  0.00  0.00    +0.000 C 
ATOM     16  C   UNL     1       1.120   8.317  20.085  0.00  0.00    +0.000 C 
ENDBRANCH   1  14
BRANCH   4  17
ATOM     17  C   UNL     1      -5.201  11.282  17.948  0.00  0.00    +0.000 A 
ATOM     18  C   UNL     1      -6.029  10.931  19.003  0.00  0.00    +0.000 A 
ATOM     19  C   UNL     1      -7.182  11.685  19.215  0.00  0.00    +0.000 A 
ATOM     20  C   UNL     1      -7.456  12.773  18.382  0.00  0.00    +0.000 A 
ATOM     21  C   UNL     1      -6.581  13.057  17.345  0.00  0.00    +0.000 A 
ATOM     22  C   UNL     1      -6.738  14.270  16.480  0.00  0.00    +0.000 C 
ATOM     23  N   UNL     1      -5.492  12.305  17.103  0.00  0.00    +0.000 NA
ENDBRANCH   4  17
BRANCH   7  24
ATOM     24  C   UNL     1      -1.374  12.915  21.113  0.00  0.00    +0.000 C 
BRANCH  24  25
ATOM     25  O   UNL     1      -2.101  11.906  21.822  0.00  0.00    +0.000 OA
BRANCH  25  26
ATOM     26  C   UNL     1      -3.248  12.279  22.460  0.00  0.00    +0.000 A 
ATOM     27  C   UNL     1      -3.202  12.160  23.853  0.00  0.00    +0.000 A 
ATOM     28  C   UNL     1      -4.300  12.517  24.638  0.00  0.00    +0.000 A 
ATOM     29  C   UNL     1      -5.448  13.017  24.033  0.00  0.00    +0.000 A 
ATOM     30  C   UNL     1      -5.494  13.162  22.649  0.00  0.00    +0.000 A 
ATOM     31  C   UNL     1      -4.394  12.793  21.857  0.00  0.00    +0.000 A 
ENDBRANCH  25  26
ENDBRANCH  24  25
ENDBRANCH   7  24
TORSDOF 5
ENDMDL
MODEL 9
REMARK VINA RESULT:      -7.0      5.545      8.765
REMARK  Name = 
REMARK  7 active torsions:
REMARK  status: ('A' for Active; 'I' for Inactive)
REMARK    1  A    between atoms: C_1  and  C_2
REMARK    2  A    between atoms: C_7  and  C_8
REMARK    3  A    between atoms: C_11  and  C_13
REMARK    4  A    between atoms: C_17  and  C_18
REMARK    5  A    between atoms: C_21  and  C_22
REMARK    6  A    between atoms: C_22  and  O_23
REMARK    7  A    between atoms: O_23  and  C_24
REMARK                            x       y       z     vdW  Elec       q    Type
REMARK                         _______ _______ _______ _____ _____    ______ ____
ROOT
ATOM      1  C   UNL     1      -0.616  13.384  21.467  0.00  0.00    +0.000 C 
ATOM      2  C   UNL     1      -1.706  14.437  21.661  0.00  0.00    +0.000 C 
ATOM      3  N   UNL     1      -2.907  13.642  21.790  0.00  0.00    +0.000 N 
ATOM      4  C   UNL     1      -4.132  14.018  21.247  0.00  0.00    +0.000 C 
ATOM      5  O   UNL     1      -4.275  15.058  20.599  0.00  0.00    +0.000 OA
ATOM      6  C   UNL     1      -2.593  12.365  22.424  0.00  0.00    +0.000 C 
ATOM      7  C   UNL     1      -1.060  12.267  22.444  0.00  0.00    +0.000 C 
ENDROOT
BRANCH   1  14
ATOM      8  C   UNL     1       3.580  15.617  17.534  0.00  0.00    +0.000 C 
ATOM      9  C   UNL     1       2.899  16.271  18.711  0.00  0.00    +0.000 C 
ATOM     10  O   UNL     1       3.104  17.462  18.951  0.00  0.00    +0.000 OA
ATOM     11  N   UNL     1       2.047  15.485  19.475  0.00  0.00    +0.000 N 
ATOM     12  C   UNL     1       1.231  16.131  20.498  0.00  0.00    +0.000 C 
ATOM     13  C   UNL     1       1.171  15.310  21.785  0.00  0.00    +0.000 C 
ATOM     14  C   UNL     1       0.868  13.813  21.590  0.00  0.00    +0.000 C 
ATOM     15  C   UNL     1       1.729  13.250  20.441  0.00  0.00    +0.000 C 
ATOM     16  C   UNL     1       1.707  14.099  19.175  0.00  0.00    +0.000 C 
ENDBRANCH   1  14
BRANCH   4  17
ATOM     17  C   UNL     1      -5.309  13.084  21.409  0.00  0.00    +0.000 A 
ATOM     18  C   UNL     1      -6.149  13.196  22.505  0.00  0.00    +0.000 A 
ATOM     19  C   UNL     1      -7.290  12.395  22.545  0.00  0.00    +0.000 A 
ATOM     20  C   UNL     1      -7.561  11.530  21.482  0.00  0.00    +0.000 A 
ATOM     21  C   UNL     1      -6.668  11.471  20.424  0.00  0.00    +0.000 A 
ATOM     22  C   UNL     1      -6.940  10.659  19.195  0.00  0.00    +0.000 C 
ATOM     23  N   UNL     1      -5.540  12.205  20.400  0.00  0.00    +0.000 NA
ENDBRANCH   4  17
BRANCH   7  24
ATOM     24  C   UNL     1      -0.628  10.848  22.054  0.00  0.00    +0.000 C 
BRANCH  24  25
ATOM     25  O   UNL     1      -0.837  10.710  20.645  0.00  0.00    +0.000 OA
BRANCH  25  26
ATOM     26  C   UNL     1       0.085  10.000  19.932  0.00  0.00    +0.000 A 
ATOM     27  C   UNL     1       0.754   9.016  20.666  0.00  0.00    +0.000 A 
ATOM     28  C   UNL     1       1.716   8.203  20.063  0.00  0.00    +0.000 A 
ATOM     29  C   UNL     1       2.000   8.357  18.710  0.00  0.00    +0.000 A 
ATOM     30  C   UNL     1       1.321   9.317  17.965  0.00  0.00    +0.000 A 
ATOM     31  C   UNL     1       0.361  10.143  18.573  0.00  0.00    +0.000 A 
ENDBRANCH  25  26
ENDBRANCH  24  25
ENDBRANCH   7  24
TORSDOF 5
ENDMDL
