MODEL 1
REMARK VINA RESULT:      -7.0      0.000      0.000
REMARK  Name = 
REMARK  5 active torsions:
REMARK  status: ('A' for Active; 'I' for Inactive)
REMARK    1  A    between atoms: C_1  and  N_2
REMARK    2  A    between atoms: C_3  and  S_4
REMARK    3  A    between atoms: S_4  and  C_5
REMARK    4  A    between atoms: C_5  and  C_6
REMARK    5  A    between atoms: N_8  and  C_9
REMARK                            x       y       z     vdW  Elec       q    Type
REMARK                         _______ _______ _______ _____ _____    ______ ____
ROOT
ATOM      1  S   UNL     1       3.418   2.205  20.587  0.00  0.00    +0.000 S 
ENDROOT
BRANCH   1   4
ATOM      2  C   UNL     1       2.684   2.370  17.584  0.00  0.00    +0.000 C 
ATOM      3  N   UNL     1       3.766   3.202  18.094  0.00  0.00    +0.000 N 
ATOM      4  C   UNL     1       4.219   3.236  19.408  0.00  0.00    +0.000 A 
ATOM      5  N   UNL     1       5.199   3.982  19.824  0.00  0.00    +0.000 NA
ATOM      6  C   UNL     1       5.799   4.779  18.893  0.00  0.00    +0.000 A 
ATOM      7  C   UNL     1       5.462   4.851  17.605  0.00  0.00    +0.000 A 
ATOM      8  C   UNL     1       4.357   4.015  17.114  0.00  0.00    +0.000 A 
ATOM      9  O   UNL     1       4.002   4.036  15.937  0.00  0.00    +0.000 OA
ATOM     10  S   UNL     1       6.380   5.932  16.643  0.00  0.00    +0.000 S 
ATOM     11  C   UNL     1       7.622   6.123  17.975  0.00  0.00    +0.000 C 
ATOM     12  C   UNL     1       6.934   5.682  19.273  0.00  0.00    +0.000 C 
ENDBRANCH   1   4
BRANCH   1  13
ATOM     13  C   UNL     1       2.418   3.407  21.541  0.00  0.00    +0.000 C 
BRANCH  13  14
ATOM     14  C   UNL     1       1.741   4.458  20.648  0.00  0.00    +0.000 C 
ATOM     15  O   UNL     1       0.760   4.191  19.959  0.00  0.00    +0.000 OA
ATOM     16  N   UNL     1       2.360   5.681  20.626  0.00  0.00    +0.000 N 
ATOM     17  H   UNL     1       3.117   5.794  21.291  0.00  0.00    +0.000 HD
BRANCH  16  18
ATOM     18  C   UNL     1       1.971   6.871  19.894  0.00  0.00    +0.000 C 
ATOM     19  C   UNL     1       2.844   7.231  18.691  0.00  0.00    +0.000 C 
ATOM     20  C   UNL     1       2.043   8.177  17.792  0.00  0.00    +0.000 C 
ATOM     21  C   UNL     1       1.515   9.410  18.539  0.00  0.00    +0.000 C 
ATOM     22  C   UNL     1       0.928   9.117  19.926  0.00  0.00    +0.000 C 
ATOM     23  C   UNL     1       1.771   8.129  20.740  0.00  0.00    +0.000 C 
ENDBRANCH  16  18
ENDBRANCH  13  14
ENDBRANCH   1  13
TORSDOF 4
ENDMDL
MODEL 2
REMARK VINA RESULT:      -6.7      0.309      1.123
REMARK  Name = 
REMARK  5 active torsions:
REMARK  status: ('A' for Active; 'I' for Inactive)
REMARK    1  A    between atoms: C_1  and  N_2
REMARK    2  A    between atoms: C_3  and  S_4
REMARK    3  A    between atoms: S_4  and  C_5
REMARK    4  A    between atoms: C_5  and  C_6
REMARK    5  A    between atoms: N_8  and  C_9
REMARK                            x       y       z     vdW  Elec       q    Type
REMARK                         _______ _______ _______ _____ _____    ______ ____
ROOT
ATOM      1  S   UNL     1       3.365   2.196  20.511  0.00  0.00    +0.000 S 
ENDROOT
BRANCH   1   4
ATOM      2  C   UNL     1       2.721   2.399  17.490  0.00  0.00    +0.000 C 
ATOM      3  N   UNL     1       3.800   3.211  18.039  0.00  0.00    +0.000 N 
ATOM      4  C   UNL     1       4.215   3.226  19.366  0.00  0.00    +0.000 A 
ATOM      5  N   UNL     1       5.193   3.954  19.817  0.00  0.00    +0.000 NA
ATOM      6  C   UNL     1       5.830   4.750  18.912  0.00  0.00    +0.000 A 
ATOM      7  C   UNL     1       5.532   4.839  17.616  0.00  0.00    +0.000 A 
ATOM      8  C   UNL     1       4.430   4.024  17.085  0.00  0.00    +0.000 A 
ATOM      9  O   UNL     1       4.110   4.061  15.898  0.00  0.00    +0.000 OA
ATOM     10  S   UNL     1       6.492   5.916  16.691  0.00  0.00    +0.000 S 
ATOM     11  C   UNL     1       7.698   6.077  18.060  0.00  0.00    +0.000 C 
ATOM     12  C   UNL     1       6.967   5.634  19.333  0.00  0.00    +0.000 C 
ENDBRANCH   1   4
BRANCH   1  13
ATOM     13  C   UNL     1       2.471   3.415  21.545  0.00  0.00    +0.000 C 
BRANCH  13  14
ATOM     14  C   UNL     1       1.875   4.568  20.722  0.00  0.00    +0.000 C 
ATOM     15  O   UNL     1       0.796   4.464  20.146  0.00  0.00    +0.000 OA
ATOM     16  N   UNL     1       2.673   5.679  20.624  0.00  0.00    +0.000 N 
ATOM     17  H   UNL     1       3.505   5.665  21.203  0.00  0.00    +0.000 HD
BRANCH  16  18
ATOM     18  C   UNL     1       2.399   6.922  19.929  0.00  0.00    +0.000 C 
ATOM     19  C   UNL     1       1.170   7.698  20.407  0.00  0.00    +0.000 C 
ATOM     20  C   UNL     1       1.308   9.145  19.926  0.00  0.00    +0.000 C 
ATOM     21  C   UNL     1       1.534   9.255  18.412  0.00  0.00    +0.000 C 
ATOM     22  C   UNL     1       2.532   8.240  17.837  0.00  0.00    +0.000 C 
ATOM     23  C   UNL     1       2.348   6.827  18.403  0.00  0.00    +0.000 C 
ENDBRANCH  16  18
ENDBRANCH  13  14
ENDBRANCH   1  13
TORSDOF 4
ENDMDL
MODEL 3
REMARK VINA RESULT:      -6.6      3.791      6.299
REMARK  Name = 
REMARK  5 active torsions:
REMARK  status: ('A' for Active; 'I' for Inactive)
REMARK    1  A    between atoms: C_1  and  N_2
REMARK    2  A    between atoms: C_3  and  S_4
REMARK    3  A    between atoms: S_4  and  C_5
REMARK    4  A    between atoms: C_5  and  C_6
REMARK    5  A    between atoms: N_8  and  C_9
REMARK                            x       y       z     vdW  Elec       q    Type
REMARK                         _______ _______ _______ _____ _____    ______ ____
ROOT
ATOM      1  S   UNL     1       7.133   5.263  17.523  0.00  0.00    +0.000 S 
ENDROOT
BRANCH   1   4
ATOM      2  C   UNL     1       4.564   6.898  16.966  0.00  0.00    +0.000 C 
ATOM      3  N   UNL     1       4.485   5.731  17.835  0.00  0.00    +0.000 N 
ATOM      4  C   UNL     1       5.545   4.903  18.188  0.00  0.00    +0.000 A 
ATOM      5  N   UNL     1       5.439   3.878  18.980  0.00  0.00    +0.000 NA
ATOM      6  C   UNL     1       4.196   3.615  19.476  0.00  0.00    +0.000 A 
ATOM      7  C   UNL     1       3.095   4.319  19.216  0.00  0.00    +0.000 A 
ATOM      8  C   UNL     1       3.193   5.483  18.323  0.00  0.00    +0.000 A 
ATOM      9  O   UNL     1       2.213   6.173  18.047  0.00  0.00    +0.000 OA
ATOM     10  S   UNL     1       1.654   3.779  19.972  0.00  0.00    +0.000 S 
ATOM     11  C   UNL     1       2.604   2.660  21.067  0.00  0.00    +0.000 C 
ATOM     12  C   UNL     1       3.966   2.450  20.393  0.00  0.00    +0.000 C 
ENDBRANCH   1   4
BRANCH   1  13
ATOM     13  C   UNL     1       7.844   6.378  18.790  0.00  0.00    +0.000 C 
BRANCH  13  14
ATOM     14  C   UNL     1       8.178   7.772  18.235  0.00  0.00    +0.000 C 
ATOM     15  O   UNL     1       7.939   8.082  17.071  0.00  0.00    +0.000 OA
ATOM     16  N   UNL     1       8.827   8.601  19.112  0.00  0.00    +0.000 N 
ATOM     17  H   UNL     1       8.902   8.252  20.061  0.00  0.00    +0.000 HD
BRANCH  16  18
ATOM     18  C   UNL     1       9.270   9.965  18.897  0.00  0.00    +0.000 C 
ATOM     19  C   UNL     1       9.819  10.691  20.127  0.00  0.00    +0.000 C 
ATOM     20  C   UNL     1      10.654  11.879  19.641  0.00  0.00    +0.000 C 
ATOM     21  C   UNL     1       9.881  12.807  18.694  0.00  0.00    +0.000 C 
ATOM     22  C   UNL     1       9.033  12.084  17.638  0.00  0.00    +0.000 C 
ATOM     23  C   UNL     1       8.264  10.884  18.203  0.00  0.00    +0.000 C 
ENDBRANCH  16  18
ENDBRANCH  13  14
ENDBRANCH   1  13
TORSDOF 4
ENDMDL
MODEL 4
REMARK VINA RESULT:      -6.3      3.963      6.375
REMARK  Name = 
REMARK  5 active torsions:
REMARK  status: ('A' for Active; 'I' for Inactive)
REMARK    1  A    between atoms: C_1  and  N_2
REMARK    2  A    between atoms: C_3  and  S_4
REMARK    3  A    between atoms: S_4  and  C_5
REMARK    4  A    between atoms: C_5  and  C_6
REMARK    5  A    between atoms: N_8  and  C_9
REMARK                            x       y       z     vdW  Elec       q    Type
REMARK                         _______ _______ _______ _____ _____    ______ ____
ROOT
ATOM      1  S   UNL     1       6.968   5.864  16.981  0.00  0.00    +0.000 S 
ENDROOT
BRANCH   1   4
ATOM      2  C   UNL     1       4.282   7.400  17.071  0.00  0.00    +0.000 C 
ATOM      3  N   UNL     1       4.407   6.153  17.813  0.00  0.00    +0.000 N 
ATOM      4  C   UNL     1       5.544   5.354  17.879  0.00  0.00    +0.000 A 
ATOM      5  N   UNL     1       5.624   4.253  18.565  0.00  0.00    +0.000 NA
ATOM      6  C   UNL     1       4.504   3.874  19.246  0.00  0.00    +0.000 A 
ATOM      7  C   UNL     1       3.349   4.538  19.264  0.00  0.00    +0.000 A 
ATOM      8  C   UNL     1       3.238   5.787  18.496  0.00  0.00    +0.000 A 
ATOM      9  O   UNL     1       2.199   6.445  18.475  0.00  0.00    +0.000 OA
ATOM     10  S   UNL     1       2.094   3.849  20.205  0.00  0.00    +0.000 S 
ATOM     11  C   UNL     1       3.271   2.682  20.988  0.00  0.00    +0.000 C 
ATOM     12  C   UNL     1       4.491   2.615  20.061  0.00  0.00    +0.000 C 
ENDBRANCH   1   4
BRANCH   1  13
ATOM     13  C   UNL     1       7.969   6.692  18.272  0.00  0.00    +0.000 C 
BRANCH  13  14
ATOM     14  C   UNL     1       8.053   8.213  18.074  0.00  0.00    +0.000 C 
ATOM     15  O   UNL     1       7.515   8.776  17.124  0.00  0.00    +0.000 OA
ATOM     16  N   UNL     1       8.831   8.871  18.991  0.00  0.00    +0.000 N 
ATOM     17  H   UNL     1       9.161   8.304  19.764  0.00  0.00    +0.000 HD
BRANCH  16  18
ATOM     18  C   UNL     1       9.106  10.292  19.080  0.00  0.00    +0.000 C 
ATOM     19  C   UNL     1      10.111  10.844  18.068  0.00  0.00    +0.000 C 
ATOM     20  C   UNL     1       9.918  12.361  17.987  0.00  0.00    +0.000 C 
ATOM     21  C   UNL     1      10.007  13.050  19.356  0.00  0.00    +0.000 C 
ATOM     22  C   UNL     1       9.274  12.321  20.491  0.00  0.00    +0.000 C 
ATOM     23  C   UNL     1       9.490  10.804  20.470  0.00  0.00    +0.000 C 
ENDBRANCH  16  18
ENDBRANCH  13  14
ENDBRANCH   1  13
TORSDOF 4
ENDMDL
MODEL 5
REMARK VINA RESULT:      -6.3      6.992      9.269
REMARK  Name = 
REMARK  5 active torsions:
REMARK  status: ('A' for Active; 'I' for Inactive)
REMARK    1  A    between atoms: C_1  and  N_2
REMARK    2  A    between atoms: C_3  and  S_4
REMARK    3  A    between atoms: S_4  and  C_5
REMARK    4  A    between atoms: C_5  and  C_6
REMARK    5  A    between atoms: N_8  and  C_9
REMARK                            x       y       z     vdW  Elec       q    Type
REMARK                         _______ _______ _______ _____ _____    ______ ____
ROOT
ATOM      1  S   UNL     1       9.397  10.147  19.172  0.00  0.00    +0.000 S 
ENDROOT
BRANCH   1   4
ATOM      2  C   UNL     1      12.140  11.581  19.180  0.00  0.00    +0.000 C 
ATOM      3  N   UNL     1      10.945  12.343  18.843  0.00  0.00    +0.000 N 
ATOM      4  C   UNL     1       9.646  11.849  18.804  0.00  0.00    +0.000 A 
ATOM      5  N   UNL     1       8.600  12.564  18.512  0.00  0.00    +0.000 NA
ATOM      6  C   UNL     1       8.821  13.879  18.222  0.00  0.00    +0.000 A 
ATOM      7  C   UNL     1      10.011  14.480  18.215  0.00  0.00    +0.000 A 
ATOM      8  C   UNL     1      11.206  13.689  18.543  0.00  0.00    +0.000 A 
ATOM      9  O   UNL     1      12.330  14.188  18.555  0.00  0.00    +0.000 OA
ATOM     10  S   UNL     1      10.013  16.147  17.819  0.00  0.00    +0.000 S 
ATOM     11  C   UNL     1       8.191  16.229  17.987  0.00  0.00    +0.000 C 
ATOM     12  C   UNL     1       7.682  14.787  17.866  0.00  0.00    +0.000 C 
ENDBRANCH   1   4
BRANCH   1  13
ATOM     13  C   UNL     1       8.354   9.593  17.772  0.00  0.00    +0.000 C 
BRANCH  13  14
ATOM     14  C   UNL     1       7.882   8.138  17.921  0.00  0.00    +0.000 C 
ATOM     15  O   UNL     1       8.395   7.368  18.729  0.00  0.00    +0.000 OA
ATOM     16  N   UNL     1       6.907   7.754  17.038  0.00  0.00    +0.000 N 
ATOM     17  H   UNL     1       6.520   8.501  16.471  0.00  0.00    +0.000 HD
BRANCH  16  18
ATOM     18  C   UNL     1       6.255   6.464  16.924  0.00  0.00    +0.000 C 
ATOM     19  C   UNL     1       6.764   5.553  15.806  0.00  0.00    +0.000 C 
ATOM     20  C   UNL     1       6.330   4.121  16.128  0.00  0.00    +0.000 C 
ATOM     21  C   UNL     1       4.819   3.991  16.364  0.00  0.00    +0.000 C 
ATOM     22  C   UNL     1       4.206   5.106  17.222  0.00  0.00    +0.000 C 
ATOM     23  C   UNL     1       4.727   6.501  16.859  0.00  0.00    +0.000 C 
ENDBRANCH  16  18
ENDBRANCH  13  14
ENDBRANCH   1  13
TORSDOF 4
ENDMDL
MODEL 6
REMARK VINA RESULT:      -6.2      3.146      6.679
REMARK  Name = 
REMARK  5 active torsions:
REMARK  status: ('A' for Active; 'I' for Inactive)
REMARK    1  A    between atoms: C_1  and  N_2
REMARK    2  A    between atoms: C_3  and  S_4
REMARK    3  A    between atoms: S_4  and  C_5
REMARK    4  A    between atoms: C_5  and  C_6
REMARK    5  A    between atoms: N_8  and  C_9
REMARK                            x       y       z     vdW  Elec       q    Type
REMARK                         _______ _______ _______ _____ _____    ______ ____
ROOT
ATOM      1  S   UNL     1       4.574   6.987  17.404  0.00  0.00    +0.000 S 
ENDROOT
BRANCH   1   4
ATOM      2  C   UNL     1       2.193   7.846  19.187  0.00  0.00    +0.000 C 
ATOM      3  N   UNL     1       2.717   6.492  19.312  0.00  0.00    +0.000 N 
ATOM      4  C   UNL     1       3.782   5.960  18.592  0.00  0.00    +0.000 A 
ATOM      5  N   UNL     1       4.233   4.750  18.741  0.00  0.00    +0.000 NA
ATOM      6  C   UNL     1       3.596   3.970  19.663  0.00  0.00    +0.000 A 
ATOM      7  C   UNL     1       2.562   4.348  20.413  0.00  0.00    +0.000 A 
ATOM      8  C   UNL     1       2.038   5.714  20.261  0.00  0.00    +0.000 A 
ATOM      9  O   UNL     1       1.088   6.121  20.927  0.00  0.00    +0.000 OA
ATOM     10  S   UNL     1       1.947   3.175  21.501  0.00  0.00    +0.000 S 
ATOM     11  C   UNL     1       3.408   2.103  21.229  0.00  0.00    +0.000 C 
ATOM     12  C   UNL     1       4.035   2.556  19.904  0.00  0.00    +0.000 C 
ENDBRANCH   1   4
BRANCH   1  13
ATOM     13  C   UNL     1       6.325   6.470  17.545  0.00  0.00    +0.000 C 
BRANCH  13  14
ATOM     14  C   UNL     1       6.769   5.553  16.395  0.00  0.00    +0.000 C 
ATOM     15  O   UNL     1       7.682   4.742  16.526  0.00  0.00    +0.000 OA
ATOM     16  N   UNL     1       6.121   5.765  15.206  0.00  0.00    +0.000 N 
ATOM     17  H   UNL     1       5.342   6.413  15.248  0.00  0.00    +0.000 HD
BRANCH  16  18
ATOM     18  C   UNL     1       6.305   5.071  13.947  0.00  0.00    +0.000 C 
ATOM     19  C   UNL     1       5.844   3.612  13.914  0.00  0.00    +0.000 C 
ATOM     20  C   UNL     1       5.665   3.205  12.449  0.00  0.00    +0.000 C 
ATOM     21  C   UNL     1       6.918   3.455  11.600  0.00  0.00    +0.000 C 
ATOM     22  C   UNL     1       7.613   4.799  11.862  0.00  0.00    +0.000 C 
ATOM     23  C   UNL     1       7.712   5.145  13.351  0.00  0.00    +0.000 C 
ENDBRANCH  16  18
ENDBRANCH  13  14
ENDBRANCH   1  13
TORSDOF 4
ENDMDL
MODEL 7
REMARK VINA RESULT:      -6.2      3.681      5.428
REMARK  Name = 
REMARK  5 active torsions:
REMARK  status: ('A' for Active; 'I' for Inactive)
REMARK    1  A    between atoms: C_1  and  N_2
REMARK    2  A    between atoms: C_3  and  S_4
REMARK    3  A    between atoms: S_4  and  C_5
REMARK    4  A    between atoms: C_5  and  C_6
REMARK    5  A    between atoms: N_8  and  C_9
REMARK                            x       y       z     vdW  Elec       q    Type
REMARK                         _______ _______ _______ _____ _____    ______ ____
ROOT
ATOM      1  S   UNL     1       2.623   8.451  17.828  0.00  0.00    +0.000 S 
ENDROOT
BRANCH   1   4
ATOM      2  C   UNL     1       4.805   6.610  16.630  0.00  0.00    +0.000 C 
ATOM      3  N   UNL     1       3.992   6.116  17.734  0.00  0.00    +0.000 N 
ATOM      4  C   UNL     1       2.972   6.815  18.371  0.00  0.00    +0.000 A 
ATOM      5  N   UNL     1       2.257   6.335  19.345  0.00  0.00    +0.000 NA
ATOM      6  C   UNL     1       2.553   5.068  19.754  0.00  0.00    +0.000 A 
ATOM      7  C   UNL     1       3.506   4.292  19.239  0.00  0.00    +0.000 A 
ATOM      8  C   UNL     1       4.325   4.814  18.136  0.00  0.00    +0.000 A 
ATOM      9  O   UNL     1       5.217   4.145  17.618  0.00  0.00    +0.000 OA
ATOM     10  S   UNL     1       3.670   2.733  19.933  0.00  0.00    +0.000 S 
ATOM     11  C   UNL     1       2.081   2.921  20.825  0.00  0.00    +0.000 C 
ATOM     12  C   UNL     1       1.791   4.426  20.876  0.00  0.00    +0.000 C 
ENDBRANCH   1   4
BRANCH   1  13
ATOM     13  C   UNL     1       1.430   9.035  19.089  0.00  0.00    +0.000 C 
BRANCH  13  14
ATOM     14  C   UNL     1       0.438  10.070  18.534  0.00  0.00    +0.000 C 
ATOM     15  O   UNL     1       0.629  11.278  18.647  0.00  0.00    +0.000 OA
ATOM     16  N   UNL     1      -0.697   9.539  17.979  0.00  0.00    +0.000 N 
ATOM     17  H   UNL     1      -0.700   8.530  17.883  0.00  0.00    +0.000 HD
BRANCH  16  18
ATOM     18  C   UNL     1      -1.811  10.241  17.371  0.00  0.00    +0.000 C 
ATOM     19  C   UNL     1      -3.031  10.462  18.268  0.00  0.00    +0.000 C 
ATOM     20  C   UNL     1      -3.869  11.589  17.657  0.00  0.00    +0.000 C 
ATOM     21  C   UNL     1      -4.243  11.330  16.191  0.00  0.00    +0.000 C 
ATOM     22  C   UNL     1      -3.103  10.773  15.327  0.00  0.00    +0.000 C 
ATOM     23  C   UNL     1      -2.292   9.680  16.032  0.00  0.00    +0.000 C 
ENDBRANCH  16  18
ENDBRANCH  13  14
ENDBRANCH   1  13
TORSDOF 4
ENDMDL
MODEL 8
REMARK VINA RESULT:      -6.1      4.959      8.295
REMARK  Name = 
REMARK  5 active torsions:
REMARK  status: ('A' for Active; 'I' for Inactive)
REMARK    1  A    between atoms: C_1  and  N_2
REMARK    2  A    between atoms: C_3  and  S_4
REMARK    3  A    between atoms: S_4  and  C_5
REMARK    4  A    between atoms: C_5  and  C_6
REMARK    5  A    between atoms: N_8  and  C_9
REMARK                            x       y       z     vdW  Elec       q    Type
REMARK                         _______ _______ _______ _____ _____    ______ ____
ROOT
ATOM      1  S   UNL     1       0.964   9.800  19.454  0.00  0.00    +0.000 S 
ENDROOT
BRANCH   1   4
ATOM      2  C   UNL     1      -1.075  11.650  20.871  0.00  0.00    +0.000 C 
ATOM      3  N   UNL     1      -1.369  11.174  19.526  0.00  0.00    +0.000 N 
ATOM      4  C   UNL     1      -0.563  10.334  18.763  0.00  0.00    +0.000 A 
ATOM      5  N   UNL     1      -0.866   9.917  17.570  0.00  0.00    +0.000 NA
ATOM      6  C   UNL     1      -2.052  10.353  17.053  0.00  0.00    +0.000 A 
ATOM      7  C   UNL     1      -2.913  11.162  17.669  0.00  0.00    +0.000 A 
ATOM      8  C   UNL     1      -2.590  11.644  19.020  0.00  0.00    +0.000 A 
ATOM      9  O   UNL     1      -3.346  12.390  19.640  0.00  0.00    +0.000 OA
ATOM     10  S   UNL     1      -4.336  11.555  16.800  0.00  0.00    +0.000 S 
ATOM     11  C   UNL     1      -3.986  10.251  15.562  0.00  0.00    +0.000 C 
ATOM     12  C   UNL     1      -2.490   9.935  15.681  0.00  0.00    +0.000 C 
ENDBRANCH   1   4
BRANCH   1  13
ATOM     13  C   UNL     1       1.928   9.345  17.965  0.00  0.00    +0.000 C 
BRANCH  13  14
ATOM     14  C   UNL     1       2.578   7.957  18.079  0.00  0.00    +0.000 C 
ATOM     15  O   UNL     1       3.586   7.657  17.444  0.00  0.00    +0.000 OA
ATOM     16  N   UNL     1       1.906   7.070  18.879  0.00  0.00    +0.000 N 
ATOM     17  H   UNL     1       1.130   7.462  19.401  0.00  0.00    +0.000 HD
BRANCH  16  18
ATOM     18  C   UNL     1       2.258   5.699  19.193  0.00  0.00    +0.000 C 
ATOM     19  C   UNL     1       1.976   4.669  18.098  0.00  0.00    +0.000 C 
ATOM     20  C   UNL     1       2.819   3.424  18.390  0.00  0.00    +0.000 C 
ATOM     21  C   UNL     1       2.599   2.870  19.804  0.00  0.00    +0.000 C 
ATOM     22  C   UNL     1       2.536   3.935  20.908  0.00  0.00    +0.000 C 
ATOM     23  C   UNL     1       1.707   5.162  20.515  0.00  0.00    +0.000 C 
ENDBRANCH  16  18
ENDBRANCH  13  14
ENDBRANCH   1  13
TORSDOF 4
ENDMDL
MODEL 9
REMARK VINA RESULT:      -6.0      3.267      5.010
REMARK  Name = 
REMARK  5 active torsions:
REMARK  status: ('A' for Active; 'I' for Inactive)
REMARK    1  A    between atoms: C_1  and  N_2
REMARK    2  A    between atoms: C_3  and  S_4
REMARK    3  A    between atoms: S_4  and  C_5
REMARK    4  A    between atoms: C_5  and  C_6
REMARK    5  A    between atoms: N_8  and  C_9
REMARK                            x       y       z     vdW  Elec       q    Type
REMARK                         _______ _______ _______ _____ _____    ______ ____
ROOT
ATOM      1  S   UNL     1       2.508   8.027  18.190  0.00  0.00    +0.000 S 
ENDROOT
BRANCH   1   4
ATOM      2  C   UNL     1       4.804   6.654  16.632  0.00  0.00    +0.000 C 
ATOM      3  N   UNL     1       3.892   5.832  17.418  0.00  0.00    +0.000 N 
ATOM      4  C   UNL     1       2.812   6.295  18.162  0.00  0.00    +0.000 A 
ATOM      5  N   UNL     1       2.010   5.529  18.840  0.00  0.00    +0.000 NA
ATOM      6  C   UNL     1       2.273   4.190  18.809  0.00  0.00    +0.000 A 
ATOM      7  C   UNL     1       3.275   3.614  18.146  0.00  0.00    +0.000 A 
ATOM      8  C   UNL     1       4.193   4.463  17.372  0.00  0.00    +0.000 A 
ATOM      9  O   UNL     1       5.134   3.989  16.737  0.00  0.00    +0.000 OA
ATOM     10  S   UNL     1       3.381   1.908  18.268  0.00  0.00    +0.000 S 
ATOM     11  C   UNL     1       1.713   1.820  19.020  0.00  0.00    +0.000 C 
ATOM     12  C   UNL     1       1.411   3.222  19.564  0.00  0.00    +0.000 C 
ENDBRANCH   1   4
BRANCH   1  13
ATOM     13  C   UNL     1       1.801   8.272  19.863  0.00  0.00    +0.000 C 
BRANCH  13  14
ATOM     14  C   UNL     1       0.814   9.448  19.924  0.00  0.00    +0.000 C 
ATOM     15  O   UNL     1       0.373   9.980  18.909  0.00  0.00    +0.000 OA
ATOM     16  N   UNL     1       0.531   9.898  21.188  0.00  0.00    +0.000 N 
ATOM     17  H   UNL     1       0.903   9.330  21.941  0.00  0.00    +0.000 HD
BRANCH  16  18
ATOM     18  C   UNL     1      -0.355  10.976  21.579  0.00  0.00    +0.000 C 
ATOM     19  C   UNL     1       0.182  12.393  21.369  0.00  0.00    +0.000 C 
ATOM     20  C   UNL     1      -1.009  13.356  21.372  0.00  0.00    +0.000 C 
ATOM     21  C   UNL     1      -1.881  13.227  22.628  0.00  0.00    +0.000 C 
ATOM     22  C   UNL     1      -2.161  11.784  23.070  0.00  0.00    +0.000 C 
ATOM     23  C   UNL     1      -0.924  10.881  22.996  0.00  0.00    +0.000 C 
ENDBRANCH  16  18
ENDBRANCH  13  14
ENDBRANCH   1  13
TORSDOF 4
ENDMDL
