MODEL 1
REMARK VINA RESULT:      -7.2      0.000      0.000
REMARK  Name = 
REMARK  9 active torsions:
REMARK  status: ('A' for Active; 'I' for Inactive)
REMARK    1  A    between atoms: C_1  and  N_2
REMARK    2  A    between atoms: N_2  and  C_3
REMARK    3  A    between atoms: N_2  and  C_4
REMARK    4  A    between atoms: C_7  and  C_8
REMARK    5  A    between atoms: C_8  and  C_9
REMARK    6  A    between atoms: C_8  and  N_11
REMARK    7  A    between atoms: N_11  and  N_12
REMARK    8  A    between atoms: C_13  and  C_15
REMARK    9  A    between atoms: C_15  and  C_16
REMARK                            x       y       z     vdW  Elec       q    Type
REMARK                         _______ _______ _______ _____ _____    ______ ____
ROOT
ATOM      1  N   UNL     1       7.374   5.870  17.332  0.00  0.00    +0.000 NA
ATOM      2  H   UNL     1       8.215   5.467  16.899  0.00  0.00    +0.000 HD
ENDROOT
BRANCH   1   3
ATOM      3  N   UNL     1       7.442   7.287  17.129  0.00  0.00    +0.000 N 
ATOM      4  C   UNL     1       8.102   8.079  18.064  0.00  0.00    +0.000 C 
ATOM      5  O   UNL     1       8.666   7.603  19.046  0.00  0.00    +0.000 OA
ATOM      6  H   UNL     1       6.773   7.715  16.488  0.00  0.00    +0.000 HD
BRANCH   4   7
ATOM      7  C   UNL     1       8.124   9.560  17.729  0.00  0.00    +0.000 C 
BRANCH   7   8
ATOM      8  C   UNL     1       9.176  10.352  18.463  0.00  0.00    +0.000 A 
ATOM      9  C   UNL     1      10.219  10.981  17.767  0.00  0.00    +0.000 A 
ATOM     10  C   UNL     1      11.156  11.763  18.446  0.00  0.00    +0.000 A 
ATOM     11  C   UNL     1      11.060  11.927  19.827  0.00  0.00    +0.000 A 
ATOM     12  C   UNL     1      10.030  11.307  20.530  0.00  0.00    +0.000 A 
ATOM     13  C   UNL     1       9.090  10.526  19.852  0.00  0.00    +0.000 A 
ENDBRANCH   7   8
ENDBRANCH   4   7
ENDBRANCH   1   3
BRANCH   1  14
ATOM     14  C   UNL     1       6.205   5.258  16.630  0.00  0.00    +0.000 C 
BRANCH  14  18
ATOM     15  C   UNL     1       3.192   3.757  19.440  0.00  0.00    +0.000 A 
ATOM     16  C   UNL     1       3.473   3.115  18.223  0.00  0.00    +0.000 A 
ATOM     17  C   UNL     1       4.447   3.583  17.331  0.00  0.00    +0.000 A 
ATOM     18  C   UNL     1       5.198   4.722  17.631  0.00  0.00    +0.000 A 
ATOM     19  C   UNL     1       4.963   5.358  18.857  0.00  0.00    +0.000 A 
ATOM     20  C   UNL     1       3.980   4.882  19.736  0.00  0.00    +0.000 A 
BRANCH  15  22
ATOM     21  C   UNL     1       0.826   3.732  20.158  0.00  0.00    +0.000 C 
ATOM     22  N   UNL     1       2.209   3.295  20.314  0.00  0.00    +0.000 N 
ATOM     23  C   UNL     1       2.597   2.770  21.619  0.00  0.00    +0.000 C 
ENDBRANCH  15  22
ENDBRANCH  14  18
BRANCH  14  24
ATOM     24  C   UNL     1       5.532   6.262  15.708  0.00  0.00    +0.000 C 
ATOM     25  N   UNL     1       4.974   7.095  14.943  0.00  0.00    +0.000 NA
ENDBRANCH  14  24
ENDBRANCH   1  14
TORSDOF 7
ENDMDL
MODEL 2
REMARK VINA RESULT:      -7.2      3.892      6.929
REMARK  Name = 
REMARK  9 active torsions:
REMARK  status: ('A' for Active; 'I' for Inactive)
REMARK    1  A    between atoms: C_1  and  N_2
REMARK    2  A    between atoms: N_2  and  C_3
REMARK    3  A    between atoms: N_2  and  C_4
REMARK    4  A    between atoms: C_7  and  C_8
REMARK    5  A    between atoms: C_8  and  C_9
REMARK    6  A    between atoms: C_8  and  N_11
REMARK    7  A    between atoms: N_11  and  N_12
REMARK    8  A    between atoms: C_13  and  C_15
REMARK    9  A    between atoms: C_15  and  C_16
REMARK                            x       y       z     vdW  Elec       q    Type
REMARK                         _______ _______ _______ _____ _____    ______ ____
ROOT
ATOM      1  N   UNL     1       7.685   4.652  17.182  0.00  0.00    +0.000 NA
ATOM      2  H   UNL     1       7.344   3.692  17.312  0.00  0.00    +0.000 HD
ENDROOT
BRANCH   1   3
ATOM      3  N   UNL     1       7.369   5.026  15.835  0.00  0.00    +0.000 N 
ATOM      4  C   UNL     1       6.502   4.231  15.092  0.00  0.00    +0.000 C 
ATOM      5  O   UNL     1       5.963   3.232  15.561  0.00  0.00    +0.000 OA
ATOM      6  H   UNL     1       7.992   5.677  15.356  0.00  0.00    +0.000 HD
BRANCH   4   7
ATOM      7  C   UNL     1       6.228   4.742  13.689  0.00  0.00    +0.000 C 
BRANCH   7   8
ATOM      8  C   UNL     1       6.212   3.672  12.626  0.00  0.00    +0.000 A 
ATOM      9  C   UNL     1       7.408   3.170  12.093  0.00  0.00    +0.000 A 
ATOM     10  C   UNL     1       7.388   2.137  11.152  0.00  0.00    +0.000 A 
ATOM     11  C   UNL     1       6.174   1.594  10.736  0.00  0.00    +0.000 A 
ATOM     12  C   UNL     1       4.979   2.084  11.259  0.00  0.00    +0.000 A 
ATOM     13  C   UNL     1       4.997   3.115  12.200  0.00  0.00    +0.000 A 
ENDBRANCH   7   8
ENDBRANCH   4   7
ENDBRANCH   1   3
BRANCH   1  14
ATOM     14  C   UNL     1       6.961   5.494  18.182  0.00  0.00    +0.000 C 
BRANCH  14  18
ATOM     15  C   UNL     1       2.857   4.118  18.882  0.00  0.00    +0.000 A 
ATOM     16  C   UNL     1       3.144   5.312  18.200  0.00  0.00    +0.000 A 
ATOM     17  C   UNL     1       4.455   5.746  17.961  0.00  0.00    +0.000 A 
ATOM     18  C   UNL     1       5.546   4.985  18.390  0.00  0.00    +0.000 A 
ATOM     19  C   UNL     1       5.284   3.771  19.038  0.00  0.00    +0.000 A 
ATOM     20  C   UNL     1       3.967   3.354  19.277  0.00  0.00    +0.000 A 
BRANCH  15  22
ATOM     21  C   UNL     1       0.832   4.203  20.299  0.00  0.00    +0.000 C 
ATOM     22  N   UNL     1       1.549   3.703  19.132  0.00  0.00    +0.000 N 
ATOM     23  C   UNL     1       1.061   2.464  18.533  0.00  0.00    +0.000 C 
ENDBRANCH  15  22
ENDBRANCH  14  18
BRANCH  14  24
ATOM     24  C   UNL     1       7.698   5.523  19.511  0.00  0.00    +0.000 C 
ATOM     25  N   UNL     1       8.311   5.547  20.613  0.00  0.00    +0.000 NA
ENDBRANCH  14  24
ENDBRANCH   1  14
TORSDOF 7
ENDMDL
MODEL 3
REMARK VINA RESULT:      -7.1      4.779      7.816
REMARK  Name = 
REMARK  9 active torsions:
REMARK  status: ('A' for Active; 'I' for Inactive)
REMARK    1  A    between atoms: C_1  and  N_2
REMARK    2  A    between atoms: N_2  and  C_3
REMARK    3  A    between atoms: N_2  and  C_4
REMARK    4  A    between atoms: C_7  and  C_8
REMARK    5  A    between atoms: C_8  and  C_9
REMARK    6  A    between atoms: C_8  and  N_11
REMARK    7  A    between atoms: N_11  and  N_12
REMARK    8  A    between atoms: C_13  and  C_15
REMARK    9  A    between atoms: C_15  and  C_16
REMARK                            x       y       z     vdW  Elec       q    Type
REMARK                         _______ _______ _______ _____ _____    ______ ____
ROOT
ATOM      1  N   UNL     1       2.006   6.364  21.061  0.00  0.00    +0.000 NA
ATOM      2  H   UNL     1       2.929   6.323  21.509  0.00  0.00    +0.000 HD
ENDROOT
BRANCH   1   3
ATOM      3  N   UNL     1       2.011   7.513  20.205  0.00  0.00    +0.000 N 
ATOM      4  C   UNL     1       1.143   8.567  20.472  0.00  0.00    +0.000 C 
ATOM      5  O   UNL     1       0.391   8.566  21.444  0.00  0.00    +0.000 OA
ATOM      6  H   UNL     1       2.419   7.419  19.274  0.00  0.00    +0.000 HD
BRANCH   4   7
ATOM      7  C   UNL     1       1.256   9.735  19.509  0.00  0.00    +0.000 C 
BRANCH   7   8
ATOM      8  C   UNL     1      -0.062  10.237  18.977  0.00  0.00    +0.000 A 
ATOM      9  C   UNL     1      -0.614   9.703  17.804  0.00  0.00    +0.000 A 
ATOM     10  C   UNL     1      -1.864  10.131  17.348  0.00  0.00    +0.000 A 
ATOM     11  C   UNL     1      -2.576  11.094  18.062  0.00  0.00    +0.000 A 
ATOM     12  C   UNL     1      -2.038  11.632  19.228  0.00  0.00    +0.000 A 
ATOM     13  C   UNL     1      -0.789  11.204  19.686  0.00  0.00    +0.000 A 
ENDBRANCH   7   8
ENDBRANCH   4   7
ENDBRANCH   1   3
BRANCH   1  14
ATOM     14  C   UNL     1       1.856   5.092  20.291  0.00  0.00    +0.000 C 
BRANCH  14  18
ATOM     15  C   UNL     1       5.109   4.484  17.414  0.00  0.00    +0.000 A 
ATOM     16  C   UNL     1       3.755   4.405  17.047  0.00  0.00    +0.000 A 
ATOM     17  C   UNL     1       2.714   4.616  17.961  0.00  0.00    +0.000 A 
ATOM     18  C   UNL     1       2.989   4.929  19.295  0.00  0.00    +0.000 A 
ATOM     19  C   UNL     1       4.332   5.051  19.675  0.00  0.00    +0.000 A 
ATOM     20  C   UNL     1       5.363   4.830  18.751  0.00  0.00    +0.000 A 
BRANCH  15  22
ATOM     21  C   UNL     1       7.516   4.580  16.855  0.00  0.00    +0.000 C 
ATOM     22  N   UNL     1       6.139   4.255  16.502  0.00  0.00    +0.000 N 
ATOM     23  C   UNL     1       5.827   4.139  15.081  0.00  0.00    +0.000 C 
ENDBRANCH  15  22
ENDBRANCH  14  18
BRANCH  14  24
ATOM     24  C   UNL     1       1.810   3.890  21.221  0.00  0.00    +0.000 C 
ATOM     25  N   UNL     1       1.772   2.893  21.993  0.00  0.00    +0.000 NA
ENDBRANCH  14  24
ENDBRANCH   1  14
TORSDOF 7
ENDMDL
MODEL 4
REMARK VINA RESULT:      -7.1      3.687      7.106
REMARK  Name = 
REMARK  9 active torsions:
REMARK  status: ('A' for Active; 'I' for Inactive)
REMARK    1  A    between atoms: C_1  and  N_2
REMARK    2  A    between atoms: N_2  and  C_3
REMARK    3  A    between atoms: N_2  and  C_4
REMARK    4  A    between atoms: C_7  and  C_8
REMARK    5  A    between atoms: C_8  and  C_9
REMARK    6  A    between atoms: C_8  and  N_11
REMARK    7  A    between atoms: N_11  and  N_12
REMARK    8  A    between atoms: C_13  and  C_15
REMARK    9  A    between atoms: C_15  and  C_16
REMARK                            x       y       z     vdW  Elec       q    Type
REMARK                         _______ _______ _______ _____ _____    ______ ____
ROOT
ATOM      1  N   UNL     1       7.211   4.800  15.706  0.00  0.00    +0.000 NA
ATOM      2  H   UNL     1       6.902   3.944  16.184  0.00  0.00    +0.000 HD
ENDROOT
BRANCH   1   3
ATOM      3  N   UNL     1       6.942   4.616  14.311  0.00  0.00    +0.000 N 
ATOM      4  C   UNL     1       7.752   5.246  13.371  0.00  0.00    +0.000 C 
ATOM      5  O   UNL     1       8.719   5.932  13.693  0.00  0.00    +0.000 OA
ATOM      6  H   UNL     1       6.017   4.284  14.037  0.00  0.00    +0.000 HD
BRANCH   4   7
ATOM      7  C   UNL     1       7.381   4.958  11.927  0.00  0.00    +0.000 C 
BRANCH   7   8
ATOM      8  C   UNL     1       6.808   3.584  11.690  0.00  0.00    +0.000 A 
ATOM      9  C   UNL     1       5.424   3.363  11.746  0.00  0.00    +0.000 A 
ATOM     10  C   UNL     1       4.895   2.101  11.466  0.00  0.00    +0.000 A 
ATOM     11  C   UNL     1       5.742   1.047  11.126  0.00  0.00    +0.000 A 
ATOM     12  C   UNL     1       7.118   1.254  11.067  0.00  0.00    +0.000 A 
ATOM     13  C   UNL     1       7.649   2.516  11.345  0.00  0.00    +0.000 A 
ENDBRANCH   7   8
ENDBRANCH   4   7
ENDBRANCH   1   3
BRANCH   1  14
ATOM     14  C   UNL     1       6.411   5.919  16.288  0.00  0.00    +0.000 C 
BRANCH  14  18
ATOM     15  C   UNL     1       2.878   4.356  18.363  0.00  0.00    +0.000 A 
ATOM     16  C   UNL     1       3.460   5.592  18.693  0.00  0.00    +0.000 A 
ATOM     17  C   UNL     1       4.578   6.101  18.020  0.00  0.00    +0.000 A 
ATOM     18  C   UNL     1       5.161   5.390  16.968  0.00  0.00    +0.000 A 
ATOM     19  C   UNL     1       4.576   4.173  16.596  0.00  0.00    +0.000 A 
ATOM     20  C   UNL     1       3.461   3.672  17.284  0.00  0.00    +0.000 A 
BRANCH  15  22
ATOM     21  C   UNL     1       1.557   4.200  20.448  0.00  0.00    +0.000 C 
ATOM     22  N   UNL     1       1.776   3.848  19.050  0.00  0.00    +0.000 N 
ATOM     23  C   UNL     1       1.116   2.643  18.557  0.00  0.00    +0.000 C 
ENDBRANCH  15  22
ENDBRANCH  14  18
BRANCH  14  24
ATOM     24  C   UNL     1       7.235   6.725  17.280  0.00  0.00    +0.000 C 
ATOM     25  N   UNL     1       7.919   7.394  18.102  0.00  0.00    +0.000 NA
ENDBRANCH  14  24
ENDBRANCH   1  14
TORSDOF 7
ENDMDL
MODEL 5
REMARK VINA RESULT:      -7.1      4.448      6.943
REMARK  Name = 
REMARK  9 active torsions:
REMARK  status: ('A' for Active; 'I' for Inactive)
REMARK    1  A    between atoms: C_1  and  N_2
REMARK    2  A    between atoms: N_2  and  C_3
REMARK    3  A    between atoms: N_2  and  C_4
REMARK    4  A    between atoms: C_7  and  C_8
REMARK    5  A    between atoms: C_8  and  C_9
REMARK    6  A    between atoms: C_8  and  N_11
REMARK    7  A    between atoms: N_11  and  N_12
REMARK    8  A    between atoms: C_13  and  C_15
REMARK    9  A    between atoms: C_15  and  C_16
REMARK                            x       y       z     vdW  Elec       q    Type
REMARK                         _______ _______ _______ _____ _____    ______ ____
ROOT
ATOM      1  N   UNL     1       4.055   6.984  17.241  0.00  0.00    +0.000 NA
ATOM      2  H   UNL     1       4.711   7.687  17.603  0.00  0.00    +0.000 HD
ENDROOT
BRANCH   1   3
ATOM      3  N   UNL     1       4.844   5.889  16.760  0.00  0.00    +0.000 N 
ATOM      4  C   UNL     1       6.210   6.066  16.566  0.00  0.00    +0.000 C 
ATOM      5  O   UNL     1       6.778   7.123  16.828  0.00  0.00    +0.000 OA
ATOM      6  H   UNL     1       4.364   5.115  16.298  0.00  0.00    +0.000 HD
BRANCH   4   7
ATOM      7  C   UNL     1       6.940   4.828  16.075  0.00  0.00    +0.000 C 
BRANCH   7   8
ATOM      8  C   UNL     1       6.889   4.622  14.583  0.00  0.00    +0.000 A 
ATOM      9  C   UNL     1       7.754   5.322  13.730  0.00  0.00    +0.000 A 
ATOM     10  C   UNL     1       7.743   5.083  12.353  0.00  0.00    +0.000 A 
ATOM     11  C   UNL     1       6.869   4.140  11.815  0.00  0.00    +0.000 A 
ATOM     12  C   UNL     1       6.004   3.438  12.652  0.00  0.00    +0.000 A 
ATOM     13  C   UNL     1       6.015   3.675  14.028  0.00  0.00    +0.000 A 
ENDBRANCH   7   8
ENDBRANCH   4   7
ENDBRANCH   1   3
BRANCH   1  14
ATOM     14  C   UNL     1       3.186   6.588  18.391  0.00  0.00    +0.000 C 
BRANCH  14  18
ATOM     15  C   UNL     1       0.529   9.844  19.640  0.00  0.00    +0.000 A 
ATOM     16  C   UNL     1       0.987   8.861  20.534  0.00  0.00    +0.000 A 
ATOM     17  C   UNL     1       1.849   7.829  20.140  0.00  0.00    +0.000 A 
ATOM     18  C   UNL     1       2.304   7.745  18.822  0.00  0.00    +0.000 A 
ATOM     19  C   UNL     1       1.892   8.736  17.922  0.00  0.00    +0.000 A 
ATOM     20  C   UNL     1       1.023   9.759  18.328  0.00  0.00    +0.000 A 
BRANCH  15  22
ATOM     21  C   UNL     1      -1.474  11.222  19.190  0.00  0.00    +0.000 C 
ATOM     22  N   UNL     1      -0.344  10.857  20.036  0.00  0.00    +0.000 N 
ATOM     23  C   UNL     1       0.099  11.844  21.017  0.00  0.00    +0.000 C 
ENDBRANCH  15  22
ENDBRANCH  14  18
BRANCH  14  24
ATOM     24  C   UNL     1       2.325   5.386  18.039  0.00  0.00    +0.000 C 
ATOM     25  N   UNL     1       1.610   4.389  17.748  0.00  0.00    +0.000 NA
ENDBRANCH  14  24
ENDBRANCH   1  14
TORSDOF 7
ENDMDL
MODEL 6
REMARK VINA RESULT:      -7.0      6.204      9.272
REMARK  Name = 
REMARK  9 active torsions:
REMARK  status: ('A' for Active; 'I' for Inactive)
REMARK    1  A    between atoms: C_1  and  N_2
REMARK    2  A    between atoms: N_2  and  C_3
REMARK    3  A    between atoms: N_2  and  C_4
REMARK    4  A    between atoms: C_7  and  C_8
REMARK    5  A    between atoms: C_8  and  C_9
REMARK    6  A    between atoms: C_8  and  N_11
REMARK    7  A    between atoms: N_11  and  N_12
REMARK    8  A    between atoms: C_13  and  C_15
REMARK    9  A    between atoms: C_15  and  C_16
REMARK                            x       y       z     vdW  Elec       q    Type
REMARK                         _______ _______ _______ _____ _____    ______ ____
ROOT
ATOM      1  N   UNL     1       1.629   8.968  18.173  0.00  0.00    +0.000 NA
ATOM      2  H   UNL     1       2.410   9.436  17.697  0.00  0.00    +0.000 HD
ENDROOT
BRANCH   1   3
ATOM      3  N   UNL     1       2.159   7.776  18.765  0.00  0.00    +0.000 N 
ATOM      4  C   UNL     1       3.213   7.116  18.141  0.00  0.00    +0.000 C 
ATOM      5  O   UNL     1       3.736   7.539  17.113  0.00  0.00    +0.000 OA
ATOM      6  H   UNL     1       1.584   7.278  19.445  0.00  0.00    +0.000 HD
BRANCH   4   7
ATOM      7  C   UNL     1       3.700   5.878  18.873  0.00  0.00    +0.000 C 
BRANCH   7   8
ATOM      8  C   UNL     1       2.632   4.850  19.146  0.00  0.00    +0.000 A 
ATOM      9  C   UNL     1       2.142   4.033  18.117  0.00  0.00    +0.000 A 
ATOM     10  C   UNL     1       1.195   3.042  18.387  0.00  0.00    +0.000 A 
ATOM     11  C   UNL     1       0.730   2.855  19.688  0.00  0.00    +0.000 A 
ATOM     12  C   UNL     1       1.209   3.660  20.719  0.00  0.00    +0.000 A 
ATOM     13  C   UNL     1       2.157   4.651  20.450  0.00  0.00    +0.000 A 
ENDBRANCH   7   8
ENDBRANCH   4   7
ENDBRANCH   1   3
BRANCH   1  14
ATOM     14  C   UNL     1       1.128   9.930  19.202  0.00  0.00    +0.000 C 
BRANCH  14  18
ATOM     15  C   UNL     1      -2.921  11.318  18.251  0.00  0.00    +0.000 A 
ATOM     16  C   UNL     1      -2.183  11.832  19.330  0.00  0.00    +0.000 A 
ATOM     17  C   UNL     1      -0.883  11.402  19.626  0.00  0.00    +0.000 A 
ATOM     18  C   UNL     1      -0.256  10.435  18.836  0.00  0.00    +0.000 A 
ATOM     19  C   UNL     1      -0.957   9.936  17.731  0.00  0.00    +0.000 A 
ATOM     20  C   UNL     1      -2.262  10.371  17.452  0.00  0.00    +0.000 A 
BRANCH  15  22
ATOM     21  C   UNL     1      -5.174  11.940  19.061  0.00  0.00    +0.000 C 
ATOM     22  N   UNL     1      -4.222  11.739  17.975  0.00  0.00    +0.000 N 
ATOM     23  C   UNL     1      -4.773  11.538  16.638  0.00  0.00    +0.000 C 
ENDBRANCH  15  22
ENDBRANCH  14  18
BRANCH  14  24
ATOM     24  C   UNL     1       1.095   9.290  20.581  0.00  0.00    +0.000 C 
ATOM     25  N   UNL     1       1.068   8.759  21.724  0.00  0.00    +0.000 NA
ENDBRANCH  14  24
ENDBRANCH   1  14
TORSDOF 7
ENDMDL
MODEL 7
REMARK VINA RESULT:      -7.0      0.661      1.014
REMARK  Name = 
REMARK  9 active torsions:
REMARK  status: ('A' for Active; 'I' for Inactive)
REMARK    1  A    between atoms: C_1  and  N_2
REMARK    2  A    between atoms: N_2  and  C_3
REMARK    3  A    between atoms: N_2  and  C_4
REMARK    4  A    between atoms: C_7  and  C_8
REMARK    5  A    between atoms: C_8  and  C_9
REMARK    6  A    between atoms: C_8  and  N_11
REMARK    7  A    between atoms: N_11  and  N_12
REMARK    8  A    between atoms: C_13  and  C_15
REMARK    9  A    between atoms: C_15  and  C_16
REMARK                            x       y       z     vdW  Elec       q    Type
REMARK                         _______ _______ _______ _____ _____    ______ ____
ROOT
ATOM      1  N   UNL     1       7.263   5.861  17.493  0.00  0.00    +0.000 NA
ATOM      2  H   UNL     1       8.161   5.457  17.200  0.00  0.00    +0.000 HD
ENDROOT
BRANCH   1   3
ATOM      3  N   UNL     1       7.348   7.272  17.262  0.00  0.00    +0.000 N 
ATOM      4  C   UNL     1       8.089   8.063  18.136  0.00  0.00    +0.000 C 
ATOM      5  O   UNL     1       8.708   7.589  19.085  0.00  0.00    +0.000 OA
ATOM      6  H   UNL     1       6.647   7.706  16.661  0.00  0.00    +0.000 HD
BRANCH   4   7
ATOM      7  C   UNL     1       8.122   9.537  17.775  0.00  0.00    +0.000 C 
BRANCH   7   8
ATOM      8  C   UNL     1       9.189  10.331  18.484  0.00  0.00    +0.000 A 
ATOM      9  C   UNL     1      10.226  10.944  17.766  0.00  0.00    +0.000 A 
ATOM     10  C   UNL     1      11.178  11.728  18.423  0.00  0.00    +0.000 A 
ATOM     11  C   UNL     1      11.102  11.911  19.802  0.00  0.00    +0.000 A 
ATOM     12  C   UNL     1      10.077  11.309  20.527  0.00  0.00    +0.000 A 
ATOM     13  C   UNL     1       9.123  10.525  19.872  0.00  0.00    +0.000 A 
ENDBRANCH   7   8
ENDBRANCH   4   7
ENDBRANCH   1   3
BRANCH   1  14
ATOM     14  C   UNL     1       6.214   5.216  16.645  0.00  0.00    +0.000 C 
BRANCH  14  18
ATOM     15  C   UNL     1       3.168   3.274  19.130  0.00  0.00    +0.000 A 
ATOM     16  C   UNL     1       4.447   3.591  19.617  0.00  0.00    +0.000 A 
ATOM     17  C   UNL     1       5.416   4.227  18.830  0.00  0.00    +0.000 A 
ATOM     18  C   UNL     1       5.137   4.586  17.509  0.00  0.00    +0.000 A 
ATOM     19  C   UNL     1       3.855   4.316  17.013  0.00  0.00    +0.000 A 
ATOM     20  C   UNL     1       2.898   3.672  17.811  0.00  0.00    +0.000 A 
BRANCH  15  22
ATOM     21  C   UNL     1       1.012   2.074  19.301  0.00  0.00    +0.000 C 
ATOM     22  N   UNL     1       2.215   2.625  19.915  0.00  0.00    +0.000 N 
ATOM     23  C   UNL     1       2.170   2.884  21.351  0.00  0.00    +0.000 C 
ENDBRANCH  15  22
ENDBRANCH  14  18
BRANCH  14  24
ATOM     24  C   UNL     1       5.588   6.219  15.690  0.00  0.00    +0.000 C 
ATOM     25  N   UNL     1       5.069   7.051  14.897  0.00  0.00    +0.000 NA
ENDBRANCH  14  24
ENDBRANCH   1  14
TORSDOF 7
ENDMDL
MODEL 8
REMARK VINA RESULT:      -7.0      1.597      1.955
REMARK  Name = 
REMARK  9 active torsions:
REMARK  status: ('A' for Active; 'I' for Inactive)
REMARK    1  A    between atoms: C_1  and  N_2
REMARK    2  A    between atoms: N_2  and  C_3
REMARK    3  A    between atoms: N_2  and  C_4
REMARK    4  A    between atoms: C_7  and  C_8
REMARK    5  A    between atoms: C_8  and  C_9
REMARK    6  A    between atoms: C_8  and  N_11
REMARK    7  A    between atoms: N_11  and  N_12
REMARK    8  A    between atoms: C_13  and  C_15
REMARK    9  A    between atoms: C_15  and  C_16
REMARK                            x       y       z     vdW  Elec       q    Type
REMARK                         _______ _______ _______ _____ _____    ______ ____
ROOT
ATOM      1  N   UNL     1       7.091   7.604  17.200  0.00  0.00    +0.000 NA
ATOM      2  H   UNL     1       6.190   7.965  17.539  0.00  0.00    +0.000 HD
ENDROOT
BRANCH   1   3
ATOM      3  N   UNL     1       8.099   8.111  18.082  0.00  0.00    +0.000 N 
ATOM      4  C   UNL     1       8.332   9.482  18.136  0.00  0.00    +0.000 C 
ATOM      5  O   UNL     1       7.676  10.285  17.477  0.00  0.00    +0.000 OA
ATOM      6  H   UNL     1       8.812   7.465  18.423  0.00  0.00    +0.000 HD
BRANCH   4   7
ATOM      7  C   UNL     1       9.409   9.898  19.122  0.00  0.00    +0.000 C 
BRANCH   7   8
ATOM      8  C   UNL     1       9.976  11.275  18.885  0.00  0.00    +0.000 A 
ATOM      9  C   UNL     1      10.823  11.526  17.796  0.00  0.00    +0.000 A 
ATOM     10  C   UNL     1      11.297  12.816  17.547  0.00  0.00    +0.000 A 
ATOM     11  C   UNL     1      10.928  13.870  18.382  0.00  0.00    +0.000 A 
ATOM     12  C   UNL     1      10.087  13.634  19.467  0.00  0.00    +0.000 A 
ATOM     13  C   UNL     1       9.611  12.344  19.716  0.00  0.00    +0.000 A 
ENDBRANCH   7   8
ENDBRANCH   4   7
ENDBRANCH   1   3
BRANCH   1  14
ATOM     14  C   UNL     1       6.994   6.113  17.256  0.00  0.00    +0.000 C 
BRANCH  14  18
ATOM     15  C   UNL     1       3.100   4.769  18.759  0.00  0.00    +0.000 A 
ATOM     16  C   UNL     1       4.288   4.062  19.008  0.00  0.00    +0.000 A 
ATOM     17  C   UNL     1       5.536   4.498  18.543  0.00  0.00    +0.000 A 
ATOM     18  C   UNL     1       5.648   5.683  17.810  0.00  0.00    +0.000 A 
ATOM     19  C   UNL     1       4.483   6.426  17.582  0.00  0.00    +0.000 A 
ATOM     20  C   UNL     1       3.239   5.972  18.048  0.00  0.00    +0.000 A 
BRANCH  15  22
ATOM     21  C   UNL     1       1.376   4.702  20.530  0.00  0.00    +0.000 C 
ATOM     22  N   UNL     1       1.860   4.318  19.210  0.00  0.00    +0.000 N 
ATOM     23  C   UNL     1       1.263   3.133  18.602  0.00  0.00    +0.000 C 
ENDBRANCH  15  22
ENDBRANCH  14  18
BRANCH  14  24
ATOM     24  C   UNL     1       7.208   5.498  15.883  0.00  0.00    +0.000 C 
ATOM     25  N   UNL     1       7.384   4.987  14.743  0.00  0.00    +0.000 NA
ENDBRANCH  14  24
ENDBRANCH   1  14
TORSDOF 7
ENDMDL
MODEL 9
REMARK VINA RESULT:      -7.0      4.464      6.942
REMARK  Name = 
REMARK  9 active torsions:
REMARK  status: ('A' for Active; 'I' for Inactive)
REMARK    1  A    between atoms: C_1  and  N_2
REMARK    2  A    between atoms: N_2  and  C_3
REMARK    3  A    between atoms: N_2  and  C_4
REMARK    4  A    between atoms: C_7  and  C_8
REMARK    5  A    between atoms: C_8  and  C_9
REMARK    6  A    between atoms: C_8  and  N_11
REMARK    7  A    between atoms: N_11  and  N_12
REMARK    8  A    between atoms: C_13  and  C_15
REMARK    9  A    between atoms: C_15  and  C_16
REMARK                            x       y       z     vdW  Elec       q    Type
REMARK                         _______ _______ _______ _____ _____    ______ ____
ROOT
ATOM      1  N   UNL     1       4.159   6.930  17.324  0.00  0.00    +0.000 NA
ATOM      2  H   UNL     1       4.805   7.615  17.735  0.00  0.00    +0.000 HD
ENDROOT
BRANCH   1   3
ATOM      3  N   UNL     1       4.957   5.836  16.856  0.00  0.00    +0.000 N 
ATOM      4  C   UNL     1       6.305   6.043  16.582  0.00  0.00    +0.000 C 
ATOM      5  O   UNL     1       6.852   7.129  16.762  0.00  0.00    +0.000 OA
ATOM      6  H   UNL     1       4.480   5.027  16.457  0.00  0.00    +0.000 HD
BRANCH   4   7
ATOM      7  C   UNL     1       7.049   4.805  16.114  0.00  0.00    +0.000 C 
BRANCH   7   8
ATOM      8  C   UNL     1       6.995   4.568  14.626  0.00  0.00    +0.000 A 
ATOM      9  C   UNL     1       6.100   3.637  14.079  0.00  0.00    +0.000 A 
ATOM     10  C   UNL     1       6.012   3.465  12.695  0.00  0.00    +0.000 A 
ATOM     11  C   UNL     1       6.815   4.222  11.843  0.00  0.00    +0.000 A 
ATOM     12  C   UNL     1       7.708   5.150  12.375  0.00  0.00    +0.000 A 
ATOM     13  C   UNL     1       7.796   5.325  13.758  0.00  0.00    +0.000 A 
ENDBRANCH   7   8
ENDBRANCH   4   7
ENDBRANCH   1   3
BRANCH   1  14
ATOM     14  C   UNL     1       3.230   6.519  18.419  0.00  0.00    +0.000 C 
BRANCH  14  18
ATOM     15  C   UNL     1       0.681   9.914  19.518  0.00  0.00    +0.000 A 
ATOM     16  C   UNL     1       1.125   9.700  18.202  0.00  0.00    +0.000 A 
ATOM     17  C   UNL     1       1.926   8.607  17.846  0.00  0.00    +0.000 A 
ATOM     18  C   UNL     1       2.310   7.664  18.802  0.00  0.00    +0.000 A 
ATOM     19  C   UNL     1       1.847   7.834  20.114  0.00  0.00    +0.000 A 
ATOM     20  C   UNL     1       1.052   8.938  20.457  0.00  0.00    +0.000 A 
BRANCH  15  22
ATOM     21  C   UNL     1      -0.506  11.978  18.852  0.00  0.00    +0.000 C 
ATOM     22  N   UNL     1      -0.100  11.014  19.868  0.00  0.00    +0.000 N 
ATOM     23  C   UNL     1      -0.130  11.461  21.257  0.00  0.00    +0.000 C 
ENDBRANCH  15  22
ENDBRANCH  14  18
BRANCH  14  24
ATOM     24  C   UNL     1       2.405   5.308  18.013  0.00  0.00    +0.000 C 
ATOM     25  N   UNL     1       1.721   4.304  17.677  0.00  0.00    +0.000 NA
ENDBRANCH  14  24
ENDBRANCH   1  14
TORSDOF 7
ENDMDL
