MODEL 1
REMARK VINA RESULT:      -6.7      0.000      0.000
REMARK  Name = 
REMARK  10 active torsions:
REMARK  status: ('A' for Active; 'I' for Inactive)
REMARK    1  A    between atoms: C_1  and  C_2
REMARK    2  A    between atoms: C_2  and  C_3
REMARK    3  A    between atoms: C_3  and  C_4
REMARK    4  A    between atoms: C_4  and  C_5
REMARK    5  A    between atoms: C_5  and  C_6
REMARK    6  A    between atoms: C_6  and  O_7
REMARK    7  A    between atoms: O_7  and  C_8
REMARK    8  A    between atoms: C_11  and  C_12
REMARK    9  A    between atoms: N_13  and  N_14
REMARK   10  A    between atoms: C_15  and  C_17
REMARK                            x       y       z     vdW  Elec       q    Type
REMARK                         _______ _______ _______ _____ _____    ______ ____
ROOT
ATOM      1  C   UNL     1       2.798   2.666  19.081  0.00  0.00    +0.000 A 
ATOM      2  C   UNL     1       2.616   2.990  17.735  0.00  0.00    +0.000 A 
ATOM      3  C   UNL     1       3.646   3.569  17.003  0.00  0.00    +0.000 A 
ATOM      4  C   UNL     1       4.874   3.843  17.608  0.00  0.00    +0.000 A 
ATOM      5  C   UNL     1       5.074   3.533  18.953  0.00  0.00    +0.000 A 
ATOM      6  C   UNL     1       4.031   2.945  19.687  0.00  0.00    +0.000 A 
ENDROOT
BRANCH   4   7
ATOM      7  C   UNL     1       5.934   4.468  16.787  0.00  0.00    +0.000 C 
ATOM      8  N   UNL     1       5.609   4.973  15.642  0.00  0.00    +0.000 NA
BRANCH   8   9
ATOM      9  N   UNL     1       6.576   5.547  14.892  0.00  0.00    +0.000 N 
ATOM     10  C   UNL     1       7.004   4.960  13.718  0.00  0.00    +0.000 C 
ATOM     11  O   UNL     1       7.860   5.486  13.009  0.00  0.00    +0.000 OA
ATOM     12  H   UNL     1       6.990   6.432  15.156  0.00  0.00    +0.000 HD
BRANCH  10  13
ATOM     13  C   UNL     1       6.361   3.665  13.330  0.00  0.00    +0.000 C 
ATOM     14  C   UNL     1       5.140   3.675  12.440  0.00  0.00    +0.000 C 
ATOM     15  C   UNL     1       6.439   3.132  11.919  0.00  0.00    +0.000 C 
ENDBRANCH  10  13
ENDBRANCH   8   9
ENDBRANCH   4   7
BRANCH   1  16
ATOM     16  O   UNL     1       1.840   2.081  19.874  0.00  0.00    +0.000 OA
BRANCH  16  17
ATOM     17  C   UNL     1       1.335   2.935  20.905  0.00  0.00    +0.000 C 
BRANCH  17  18
ATOM     18  C   UNL     1       0.817   4.248  20.336  0.00  0.00    +0.000 C 
BRANCH  18  19
ATOM     19  C   UNL     1       1.634   5.407  20.913  0.00  0.00    +0.000 C 
BRANCH  19  20
ATOM     20  C   UNL     1       2.378   6.173  19.826  0.00  0.00    +0.000 C 
BRANCH  20  22
ATOM     21  C   UNL     1       1.242   8.026  21.085  0.00  0.00    +0.000 C 
ATOM     22  C   UNL     1       1.975   7.647  19.809  0.00  0.00    +0.000 C 
ENDBRANCH  20  22
ENDBRANCH  19  20
ENDBRANCH  18  19
ENDBRANCH  17  18
ENDBRANCH  16  17
ENDBRANCH   1  16
TORSDOF 9
ENDMDL
MODEL 2
REMARK VINA RESULT:      -6.6      1.563      2.897
REMARK  Name = 
REMARK  10 active torsions:
REMARK  status: ('A' for Active; 'I' for Inactive)
REMARK    1  A    between atoms: C_1  and  C_2
REMARK    2  A    between atoms: C_2  and  C_3
REMARK    3  A    between atoms: C_3  and  C_4
REMARK    4  A    between atoms: C_4  and  C_5
REMARK    5  A    between atoms: C_5  and  C_6
REMARK    6  A    between atoms: C_6  and  O_7
REMARK    7  A    between atoms: O_7  and  C_8
REMARK    8  A    between atoms: C_11  and  C_12
REMARK    9  A    between atoms: N_13  and  N_14
REMARK   10  A    between atoms: C_15  and  C_17
REMARK                            x       y       z     vdW  Elec       q    Type
REMARK                         _______ _______ _______ _____ _____    ______ ____
ROOT
ATOM      1  C   UNL     1       4.126   5.404  19.254  0.00  0.00    +0.000 A 
ATOM      2  C   UNL     1       3.777   6.035  18.059  0.00  0.00    +0.000 A 
ATOM      3  C   UNL     1       4.648   6.023  16.975  0.00  0.00    +0.000 A 
ATOM      4  C   UNL     1       5.887   5.387  17.072  0.00  0.00    +0.000 A 
ATOM      5  C   UNL     1       6.257   4.757  18.260  0.00  0.00    +0.000 A 
ATOM      6  C   UNL     1       5.372   4.769  19.350  0.00  0.00    +0.000 A 
ENDROOT
BRANCH   4   7
ATOM      7  C   UNL     1       6.779   5.412  15.893  0.00  0.00    +0.000 C 
ATOM      8  N   UNL     1       6.271   5.162  14.731  0.00  0.00    +0.000 NA
BRANCH   8   9
ATOM      9  N   UNL     1       7.085   5.187  13.651  0.00  0.00    +0.000 N 
ATOM     10  C   UNL     1       6.874   4.334  12.586  0.00  0.00    +0.000 C 
ATOM     11  O   UNL     1       7.586   4.366  11.584  0.00  0.00    +0.000 OA
ATOM     12  H   UNL     1       7.849   5.847  13.584  0.00  0.00    +0.000 HD
BRANCH  10  13
ATOM     13  C   UNL     1       5.722   3.384  12.691  0.00  0.00    +0.000 C 
ATOM     14  C   UNL     1       4.575   3.489  11.713  0.00  0.00    +0.000 C 
ATOM     15  C   UNL     1       5.490   2.300  11.665  0.00  0.00    +0.000 C 
ENDBRANCH  10  13
ENDBRANCH   8   9
ENDBRANCH   4   7
BRANCH   1  16
ATOM     16  O   UNL     1       3.323   5.356  20.369  0.00  0.00    +0.000 OA
BRANCH  16  17
ATOM     17  C   UNL     1       1.969   5.751  20.130  0.00  0.00    +0.000 C 
BRANCH  17  18
ATOM     18  C   UNL     1       1.087   4.553  19.809  0.00  0.00    +0.000 C 
BRANCH  18  19
ATOM     19  C   UNL     1       1.334   3.451  20.843  0.00  0.00    +0.000 C 
BRANCH  19  20
ATOM     20  C   UNL     1       2.095   2.273  20.246  0.00  0.00    +0.000 C 
BRANCH  20  22
ATOM     21  C   UNL     1       3.186   1.990  18.000  0.00  0.00    +0.000 C 
ATOM     22  C   UNL     1       1.869   2.172  18.738  0.00  0.00    +0.000 C 
ENDBRANCH  20  22
ENDBRANCH  19  20
ENDBRANCH  18  19
ENDBRANCH  17  18
ENDBRANCH  16  17
ENDBRANCH   1  16
TORSDOF 9
ENDMDL
MODEL 3
REMARK VINA RESULT:      -6.5      1.223      1.625
REMARK  Name = 
REMARK  10 active torsions:
REMARK  status: ('A' for Active; 'I' for Inactive)
REMARK    1  A    between atoms: C_1  and  C_2
REMARK    2  A    between atoms: C_2  and  C_3
REMARK    3  A    between atoms: C_3  and  C_4
REMARK    4  A    between atoms: C_4  and  C_5
REMARK    5  A    between atoms: C_5  and  C_6
REMARK    6  A    between atoms: C_6  and  O_7
REMARK    7  A    between atoms: O_7  and  C_8
REMARK    8  A    between atoms: C_11  and  C_12
REMARK    9  A    between atoms: N_13  and  N_14
REMARK   10  A    between atoms: C_15  and  C_17
REMARK                            x       y       z     vdW  Elec       q    Type
REMARK                         _______ _______ _______ _____ _____    ______ ____
ROOT
ATOM      1  C   UNL     1       4.397   3.358  19.187  0.00  0.00    +0.000 A 
ATOM      2  C   UNL     1       3.947   2.990  17.917  0.00  0.00    +0.000 A 
ATOM      3  C   UNL     1       4.490   3.576  16.780  0.00  0.00    +0.000 A 
ATOM      4  C   UNL     1       5.488   4.546  16.893  0.00  0.00    +0.000 A 
ATOM      5  C   UNL     1       5.946   4.932  18.153  0.00  0.00    +0.000 A 
ATOM      6  C   UNL     1       5.395   4.335  19.299  0.00  0.00    +0.000 A 
ENDROOT
BRANCH   4   7
ATOM      7  C   UNL     1       6.026   5.145  15.653  0.00  0.00    +0.000 C 
ATOM      8  N   UNL     1       6.793   4.422  14.903  0.00  0.00    +0.000 NA
BRANCH   8   9
ATOM      9  N   UNL     1       7.283   4.966  13.767  0.00  0.00    +0.000 N 
ATOM     10  C   UNL     1       6.985   4.421  12.534  0.00  0.00    +0.000 C 
ATOM     11  O   UNL     1       7.397   4.923  11.490  0.00  0.00    +0.000 OA
ATOM     12  H   UNL     1       7.857   5.800  13.788  0.00  0.00    +0.000 HD
BRANCH  10  13
ATOM     13  C   UNL     1       6.111   3.205  12.521  0.00  0.00    +0.000 C 
ATOM     14  C   UNL     1       4.815   3.224  11.746  0.00  0.00    +0.000 C 
ATOM     15  C   UNL     1       5.949   2.358  11.281  0.00  0.00    +0.000 C 
ENDBRANCH  10  13
ENDBRANCH   8   9
ENDBRANCH   4   7
BRANCH   1  16
ATOM     16  O   UNL     1       3.925   2.822  20.362  0.00  0.00    +0.000 OA
BRANCH  16  17
ATOM     17  C   UNL     1       2.564   2.384  20.298  0.00  0.00    +0.000 C 
BRANCH  17  18
ATOM     18  C   UNL     1       1.719   3.032  21.386  0.00  0.00    +0.000 C 
BRANCH  18  19
ATOM     19  C   UNL     1       1.992   4.538  21.408  0.00  0.00    +0.000 C 
BRANCH  19  20
ATOM     20  C   UNL     1       1.433   5.234  20.173  0.00  0.00    +0.000 C 
BRANCH  20  22
ATOM     21  C   UNL     1       2.516   6.434  18.250  0.00  0.00    +0.000 C 
ATOM     22  C   UNL     1       2.310   6.415  19.755  0.00  0.00    +0.000 C 
ENDBRANCH  20  22
ENDBRANCH  19  20
ENDBRANCH  18  19
ENDBRANCH  17  18
ENDBRANCH  16  17
ENDBRANCH   1  16
TORSDOF 9
ENDMDL
MODEL 4
REMARK VINA RESULT:      -6.4      1.611      3.164
REMARK  Name = 
REMARK  10 active torsions:
REMARK  status: ('A' for Active; 'I' for Inactive)
REMARK    1  A    between atoms: C_1  and  C_2
REMARK    2  A    between atoms: C_2  and  C_3
REMARK    3  A    between atoms: C_3  and  C_4
REMARK    4  A    between atoms: C_4  and  C_5
REMARK    5  A    between atoms: C_5  and  C_6
REMARK    6  A    between atoms: C_6  and  O_7
REMARK    7  A    between atoms: O_7  and  C_8
REMARK    8  A    between atoms: C_11  and  C_12
REMARK    9  A    between atoms: N_13  and  N_14
REMARK   10  A    between atoms: C_15  and  C_17
REMARK                            x       y       z     vdW  Elec       q    Type
REMARK                         _______ _______ _______ _____ _____    ______ ____
ROOT
ATOM      1  C   UNL     1       4.211   5.464  19.177  0.00  0.00    +0.000 A 
ATOM      2  C   UNL     1       5.260   4.543  19.140  0.00  0.00    +0.000 A 
ATOM      3  C   UNL     1       6.101   4.477  18.036  0.00  0.00    +0.000 A 
ATOM      4  C   UNL     1       5.904   5.327  16.946  0.00  0.00    +0.000 A 
ATOM      5  C   UNL     1       4.858   6.249  16.961  0.00  0.00    +0.000 A 
ATOM      6  C   UNL     1       4.012   6.313  18.080  0.00  0.00    +0.000 A 
ENDROOT
BRANCH   4   7
ATOM      7  C   UNL     1       6.822   5.210  15.793  0.00  0.00    +0.000 C 
ATOM      8  N   UNL     1       6.329   5.294  14.601  0.00  0.00    +0.000 NA
BRANCH   8   9
ATOM      9  N   UNL     1       7.168   5.192  13.546  0.00  0.00    +0.000 N 
ATOM     10  C   UNL     1       6.934   4.273  12.542  0.00  0.00    +0.000 C 
ATOM     11  O   UNL     1       7.670   4.189  11.561  0.00  0.00    +0.000 OA
ATOM     12  H   UNL     1       7.970   5.801  13.450  0.00  0.00    +0.000 HD
BRANCH  10  13
ATOM     13  C   UNL     1       5.727   3.398  12.686  0.00  0.00    +0.000 C 
ATOM     14  C   UNL     1       4.576   3.549  11.720  0.00  0.00    +0.000 C 
ATOM     15  C   UNL     1       5.416   2.305  11.692  0.00  0.00    +0.000 C 
ENDBRANCH  10  13
ENDBRANCH   8   9
ENDBRANCH   4   7
BRANCH   1  16
ATOM     16  O   UNL     1       3.340   5.605  20.232  0.00  0.00    +0.000 OA
BRANCH  16  17
ATOM     17  C   UNL     1       1.977   5.798  19.841  0.00  0.00    +0.000 C 
BRANCH  17  18
ATOM     18  C   UNL     1       1.437   4.591  19.087  0.00  0.00    +0.000 C 
BRANCH  18  19
ATOM     19  C   UNL     1       1.042   3.504  20.090  0.00  0.00    +0.000 C 
BRANCH  19  20
ATOM     20  C   UNL     1       1.767   2.192  19.819  0.00  0.00    +0.000 C 
BRANCH  20  22
ATOM     21  C   UNL     1       3.690   1.402  18.409  0.00  0.00    +0.000 C 
ATOM     22  C   UNL     1       2.382   2.175  18.420  0.00  0.00    +0.000 C 
ENDBRANCH  20  22
ENDBRANCH  19  20
ENDBRANCH  18  19
ENDBRANCH  17  18
ENDBRANCH  16  17
ENDBRANCH   1  16
TORSDOF 9
ENDMDL
MODEL 5
REMARK VINA RESULT:      -6.4      5.009      7.868
REMARK  Name = 
REMARK  10 active torsions:
REMARK  status: ('A' for Active; 'I' for Inactive)
REMARK    1  A    between atoms: C_1  and  C_2
REMARK    2  A    between atoms: C_2  and  C_3
REMARK    3  A    between atoms: C_3  and  C_4
REMARK    4  A    between atoms: C_4  and  C_5
REMARK    5  A    between atoms: C_5  and  C_6
REMARK    6  A    between atoms: C_6  and  O_7
REMARK    7  A    between atoms: O_7  and  C_8
REMARK    8  A    between atoms: C_11  and  C_12
REMARK    9  A    between atoms: N_13  and  N_14
REMARK   10  A    between atoms: C_15  and  C_17
REMARK                            x       y       z     vdW  Elec       q    Type
REMARK                         _______ _______ _______ _____ _____    ______ ____
ROOT
ATOM      1  C   UNL     1       7.407   6.857  18.180  0.00  0.00    +0.000 A 
ATOM      2  C   UNL     1       6.465   7.047  17.167  0.00  0.00    +0.000 A 
ATOM      3  C   UNL     1       5.425   6.143  16.993  0.00  0.00    +0.000 A 
ATOM      4  C   UNL     1       5.314   5.027  17.824  0.00  0.00    +0.000 A 
ATOM      5  C   UNL     1       6.248   4.815  18.837  0.00  0.00    +0.000 A 
ATOM      6  C   UNL     1       7.296   5.734  19.010  0.00  0.00    +0.000 A 
ENDROOT
BRANCH   4   7
ATOM      7  C   UNL     1       4.193   4.090  17.590  0.00  0.00    +0.000 C 
ATOM      8  N   UNL     1       3.030   4.391  18.068  0.00  0.00    +0.000 NA
BRANCH   8   9
ATOM      9  N   UNL     1       2.003   3.537  17.853  0.00  0.00    +0.000 N 
ATOM     10  C   UNL     1       1.239   3.070  18.904  0.00  0.00    +0.000 C 
ATOM     11  O   UNL     1       0.283   2.319  18.721  0.00  0.00    +0.000 OA
ATOM     12  H   UNL     1       1.752   3.242  16.919  0.00  0.00    +0.000 HD
BRANCH  10  13
ATOM     13  C   UNL     1       1.608   3.540  20.277  0.00  0.00    +0.000 C 
ATOM     14  C   UNL     1       1.261   2.690  21.476  0.00  0.00    +0.000 C 
ATOM     15  C   UNL     1       2.697   2.871  21.079  0.00  0.00    +0.000 C 
ENDBRANCH  10  13
ENDBRANCH   8   9
ENDBRANCH   4   7
BRANCH   1  16
ATOM     16  O   UNL     1       8.459   7.707  18.431  0.00  0.00    +0.000 OA
BRANCH  16  17
ATOM     17  C   UNL     1       8.209   9.068  18.069  0.00  0.00    +0.000 C 
BRANCH  17  18
ATOM     18  C   UNL     1       9.064  10.027  18.884  0.00  0.00    +0.000 C 
BRANCH  18  19
ATOM     19  C   UNL     1       9.452  11.225  18.012  0.00  0.00    +0.000 C 
BRANCH  19  20
ATOM     20  C   UNL     1      10.947  11.512  18.075  0.00  0.00    +0.000 C 
BRANCH  20  22
ATOM     21  C   UNL     1      10.206  13.646  19.175  0.00  0.00    +0.000 C 
ATOM     22  C   UNL     1      11.220  13.006  18.240  0.00  0.00    +0.000 C 
ENDBRANCH  20  22
ENDBRANCH  19  20
ENDBRANCH  18  19
ENDBRANCH  17  18
ENDBRANCH  16  17
ENDBRANCH   1  16
TORSDOF 9
ENDMDL
MODEL 6
REMARK VINA RESULT:      -6.3      3.178      8.566
REMARK  Name = 
REMARK  10 active torsions:
REMARK  status: ('A' for Active; 'I' for Inactive)
REMARK    1  A    between atoms: C_1  and  C_2
REMARK    2  A    between atoms: C_2  and  C_3
REMARK    3  A    between atoms: C_3  and  C_4
REMARK    4  A    between atoms: C_4  and  C_5
REMARK    5  A    between atoms: C_5  and  C_6
REMARK    6  A    between atoms: C_6  and  O_7
REMARK    7  A    between atoms: O_7  and  C_8
REMARK    8  A    between atoms: C_11  and  C_12
REMARK    9  A    between atoms: N_13  and  N_14
REMARK   10  A    between atoms: C_15  and  C_17
REMARK                            x       y       z     vdW  Elec       q    Type
REMARK                         _______ _______ _______ _____ _____    ______ ____
ROOT
ATOM      1  C   UNL     1       5.267   5.643  16.020  0.00  0.00    +0.000 A 
ATOM      2  C   UNL     1       4.897   6.909  16.477  0.00  0.00    +0.000 A 
ATOM      3  C   UNL     1       3.970   7.046  17.502  0.00  0.00    +0.000 A 
ATOM      4  C   UNL     1       3.388   5.918  18.083  0.00  0.00    +0.000 A 
ATOM      5  C   UNL     1       3.739   4.644  17.637  0.00  0.00    +0.000 A 
ATOM      6  C   UNL     1       4.680   4.512  16.602  0.00  0.00    +0.000 A 
ENDROOT
BRANCH   4   7
ATOM      7  C   UNL     1       2.401   6.119  19.165  0.00  0.00    +0.000 C 
ATOM      8  N   UNL     1       2.475   7.197  19.875  0.00  0.00    +0.000 NA
BRANCH   8   9
ATOM      9  N   UNL     1       1.571   7.384  20.863  0.00  0.00    +0.000 N 
ATOM     10  C   UNL     1       0.833   8.549  20.936  0.00  0.00    +0.000 C 
ATOM     11  O   UNL     1      -0.015   8.720  21.809  0.00  0.00    +0.000 OA
ATOM     12  H   UNL     1       1.392   6.667  21.554  0.00  0.00    +0.000 HD
BRANCH  10  13
ATOM     13  C   UNL     1       1.091   9.586  19.888  0.00  0.00    +0.000 C 
ATOM     14  C   UNL     1       0.143   9.719  18.719  0.00  0.00    +0.000 C 
ATOM     15  C   UNL     1       0.216  10.809  19.749  0.00  0.00    +0.000 C 
ENDBRANCH  10  13
ENDBRANCH   8   9
ENDBRANCH   4   7
BRANCH   1  16
ATOM     16  O   UNL     1       6.184   5.415  15.021  0.00  0.00    +0.000 OA
BRANCH  16  17
ATOM     17  C   UNL     1       6.191   4.071  14.530  0.00  0.00    +0.000 C 
BRANCH  17  18
ATOM     18  C   UNL     1       5.444   3.957  13.209  0.00  0.00    +0.000 C 
BRANCH  18  19
ATOM     19  C   UNL     1       6.326   3.228  12.191  0.00  0.00    +0.000 C 
BRANCH  19  20
ATOM     20  C   UNL     1       5.571   2.108  11.487  0.00  0.00    +0.000 C 
BRANCH  20  22
ATOM     21  C   UNL     1       6.131  -0.339  11.370  0.00  0.00    +0.000 C 
ATOM     22  C   UNL     1       6.529   1.058  10.924  0.00  0.00    +0.000 C 
ENDBRANCH  20  22
ENDBRANCH  19  20
ENDBRANCH  18  19
ENDBRANCH  17  18
ENDBRANCH  16  17
ENDBRANCH   1  16
TORSDOF 9
ENDMDL
MODEL 7
REMARK VINA RESULT:      -6.3      3.879      7.339
REMARK  Name = 
REMARK  10 active torsions:
REMARK  status: ('A' for Active; 'I' for Inactive)
REMARK    1  A    between atoms: C_1  and  C_2
REMARK    2  A    between atoms: C_2  and  C_3
REMARK    3  A    between atoms: C_3  and  C_4
REMARK    4  A    between atoms: C_4  and  C_5
REMARK    5  A    between atoms: C_5  and  C_6
REMARK    6  A    between atoms: C_6  and  O_7
REMARK    7  A    between atoms: O_7  and  C_8
REMARK    8  A    between atoms: C_11  and  C_12
REMARK    9  A    between atoms: N_13  and  N_14
REMARK   10  A    between atoms: C_15  and  C_17
REMARK                            x       y       z     vdW  Elec       q    Type
REMARK                         _______ _______ _______ _____ _____    ______ ____
ROOT
ATOM      1  C   UNL     1       3.861   5.258  18.720  0.00  0.00    +0.000 A 
ATOM      2  C   UNL     1       2.930   5.839  19.584  0.00  0.00    +0.000 A 
ATOM      3  C   UNL     1       2.397   7.092  19.306  0.00  0.00    +0.000 A 
ATOM      4  C   UNL     1       2.793   7.790  18.163  0.00  0.00    +0.000 A 
ATOM      5  C   UNL     1       3.727   7.229  17.292  0.00  0.00    +0.000 A 
ATOM      6  C   UNL     1       4.260   5.961  17.576  0.00  0.00    +0.000 A 
ENDROOT
BRANCH   4   7
ATOM      7  C   UNL     1       2.203   9.123  17.918  0.00  0.00    +0.000 C 
ATOM      8  N   UNL     1       0.924   9.263  18.047  0.00  0.00    +0.000 NA
BRANCH   8   9
ATOM      9  N   UNL     1       0.383  10.483  17.827  0.00  0.00    +0.000 N 
ATOM     10  C   UNL     1      -0.288  11.152  18.831  0.00  0.00    +0.000 C 
ATOM     11  O   UNL     1      -0.758  12.274  18.656  0.00  0.00    +0.000 OA
ATOM     12  H   UNL     1       0.478  10.946  16.933  0.00  0.00    +0.000 HD
BRANCH  10  13
ATOM     13  C   UNL     1      -0.395  10.462  20.156  0.00  0.00    +0.000 C 
ATOM     14  C   UNL     1       0.639  10.732  21.224  0.00  0.00    +0.000 C 
ATOM     15  C   UNL     1      -0.772  11.210  21.412  0.00  0.00    +0.000 C 
ENDBRANCH  10  13
ENDBRANCH   8   9
ENDBRANCH   4   7
BRANCH   1  16
ATOM     16  O   UNL     1       4.428   4.019  18.911  0.00  0.00    +0.000 OA
BRANCH  16  17
ATOM     17  C   UNL     1       4.022   3.037  17.953  0.00  0.00    +0.000 C 
BRANCH  17  18
ATOM     18  C   UNL     1       2.508   3.003  17.799  0.00  0.00    +0.000 C 
BRANCH  18  19
ATOM     19  C   UNL     1       1.907   2.130  18.905  0.00  0.00    +0.000 C 
BRANCH  19  20
ATOM     20  C   UNL     1       0.857   2.883  19.713  0.00  0.00    +0.000 C 
BRANCH  20  22
ATOM     21  C   UNL     1       2.679   2.619  21.422  0.00  0.00    +0.000 C 
ATOM     22  C   UNL     1       1.200   2.889  21.202  0.00  0.00    +0.000 C 
ENDBRANCH  20  22
ENDBRANCH  19  20
ENDBRANCH  18  19
ENDBRANCH  17  18
ENDBRANCH  16  17
ENDBRANCH   1  16
TORSDOF 9
ENDMDL
MODEL 8
REMARK VINA RESULT:      -6.3      2.445      7.910
REMARK  Name = 
REMARK  10 active torsions:
REMARK  status: ('A' for Active; 'I' for Inactive)
REMARK    1  A    between atoms: C_1  and  C_2
REMARK    2  A    between atoms: C_2  and  C_3
REMARK    3  A    between atoms: C_3  and  C_4
REMARK    4  A    between atoms: C_4  and  C_5
REMARK    5  A    between atoms: C_5  and  C_6
REMARK    6  A    between atoms: C_6  and  O_7
REMARK    7  A    between atoms: O_7  and  C_8
REMARK    8  A    between atoms: C_11  and  C_12
REMARK    9  A    between atoms: N_13  and  N_14
REMARK   10  A    between atoms: C_15  and  C_17
REMARK                            x       y       z     vdW  Elec       q    Type
REMARK                         _______ _______ _______ _____ _____    ______ ____
ROOT
ATOM      1  C   UNL     1       6.354   5.178  15.231  0.00  0.00    +0.000 A 
ATOM      2  C   UNL     1       7.193   5.342  16.334  0.00  0.00    +0.000 A 
ATOM      3  C   UNL     1       6.795   4.912  17.594  0.00  0.00    +0.000 A 
ATOM      4  C   UNL     1       5.545   4.315  17.773  0.00  0.00    +0.000 A 
ATOM      5  C   UNL     1       4.689   4.147  16.685  0.00  0.00    +0.000 A 
ATOM      6  C   UNL     1       5.099   4.582  15.413  0.00  0.00    +0.000 A 
ENDROOT
BRANCH   4   7
ATOM      7  C   UNL     1       5.166   3.882  19.135  0.00  0.00    +0.000 C 
ATOM      8  N   UNL     1       4.412   2.840  19.263  0.00  0.00    +0.000 NA
BRANCH   8   9
ATOM      9  N   UNL     1       4.067   2.440  20.508  0.00  0.00    +0.000 N 
ATOM     10  C   UNL     1       2.831   2.757  21.036  0.00  0.00    +0.000 C 
ATOM     11  O   UNL     1       2.491   2.374  22.153  0.00  0.00    +0.000 OA
ATOM     12  H   UNL     1       4.692   1.878  21.071  0.00  0.00    +0.000 HD
BRANCH  10  13
ATOM     13  C   UNL     1       1.909   3.564  20.176  0.00  0.00    +0.000 C 
ATOM     14  C   UNL     1       1.178   2.899  19.033  0.00  0.00    +0.000 C 
ATOM     15  C   UNL     1       0.411   3.383  20.230  0.00  0.00    +0.000 C 
ENDBRANCH  10  13
ENDBRANCH   8   9
ENDBRANCH   4   7
BRANCH   1  16
ATOM     16  O   UNL     1       6.672   5.563  13.949  0.00  0.00    +0.000 OA
BRANCH  16  17
ATOM     17  C   UNL     1       7.531   4.648  13.262  0.00  0.00    +0.000 C 
BRANCH  17  18
ATOM     18  C   UNL     1       6.866   4.094  12.010  0.00  0.00    +0.000 C 
BRANCH  18  19
ATOM     19  C   UNL     1       5.790   3.081  12.414  0.00  0.00    +0.000 C 
BRANCH  19  20
ATOM     20  C   UNL     1       4.878   2.728  11.246  0.00  0.00    +0.000 C 
BRANCH  20  22
ATOM     21  C   UNL     1       2.946   3.475   9.824  0.00  0.00    +0.000 C 
ATOM     22  C   UNL     1       3.795   3.788  11.045  0.00  0.00    +0.000 C 
ENDBRANCH  20  22
ENDBRANCH  19  20
ENDBRANCH  18  19
ENDBRANCH  17  18
ENDBRANCH  16  17
ENDBRANCH   1  16
TORSDOF 9
ENDMDL
MODEL 9
REMARK VINA RESULT:      -6.3      2.363      7.913
REMARK  Name = 
REMARK  10 active torsions:
REMARK  status: ('A' for Active; 'I' for Inactive)
REMARK    1  A    between atoms: C_1  and  C_2
REMARK    2  A    between atoms: C_2  and  C_3
REMARK    3  A    between atoms: C_3  and  C_4
REMARK    4  A    between atoms: C_4  and  C_5
REMARK    5  A    between atoms: C_5  and  C_6
REMARK    6  A    between atoms: C_6  and  O_7
REMARK    7  A    between atoms: O_7  and  C_8
REMARK    8  A    between atoms: C_11  and  C_12
REMARK    9  A    between atoms: N_13  and  N_14
REMARK   10  A    between atoms: C_15  and  C_17
REMARK                            x       y       z     vdW  Elec       q    Type
REMARK                         _______ _______ _______ _____ _____    ______ ____
ROOT
ATOM      1  C   UNL     1       6.513   4.571  14.761  0.00  0.00    +0.000 A 
ATOM      2  C   UNL     1       7.423   4.720  15.809  0.00  0.00    +0.000 A 
ATOM      3  C   UNL     1       7.012   4.559  17.127  0.00  0.00    +0.000 A 
ATOM      4  C   UNL     1       5.682   4.252  17.419  0.00  0.00    +0.000 A 
ATOM      5  C   UNL     1       4.756   4.105  16.386  0.00  0.00    +0.000 A 
ATOM      6  C   UNL     1       5.178   4.267  15.056  0.00  0.00    +0.000 A 
ENDROOT
BRANCH   4   7
ATOM      7  C   UNL     1       5.295   4.099  18.838  0.00  0.00    +0.000 C 
ATOM      8  N   UNL     1       4.638   3.041  19.187  0.00  0.00    +0.000 NA
BRANCH   8   9
ATOM      9  N   UNL     1       4.286   2.898  20.485  0.00  0.00    +0.000 N 
ATOM     10  C   UNL     1       2.965   2.724  20.845  0.00  0.00    +0.000 C 
ATOM     11  O   UNL     1       2.633   2.560  22.017  0.00  0.00    +0.000 OA
ATOM     12  H   UNL     1       4.981   2.887  21.219  0.00  0.00    +0.000 HD
BRANCH  10  13
ATOM     13  C   UNL     1       1.953   2.714  19.741  0.00  0.00    +0.000 C 
ATOM     14  C   UNL     1       0.607   3.365  19.956  0.00  0.00    +0.000 C 
ATOM     15  C   UNL     1       1.584   3.972  18.992  0.00  0.00    +0.000 C 
ENDBRANCH  10  13
ENDBRANCH   8   9
ENDBRANCH   4   7
BRANCH   1  16
ATOM     16  O   UNL     1       6.835   4.701  13.430  0.00  0.00    +0.000 OA
BRANCH  16  17
ATOM     17  C   UNL     1       6.541   3.543  12.643  0.00  0.00    +0.000 C 
BRANCH  17  18
ATOM     18  C   UNL     1       5.463   3.833  11.608  0.00  0.00    +0.000 C 
BRANCH  18  19
ATOM     19  C   UNL     1       4.506   2.641  11.526  0.00  0.00    +0.000 C 
BRANCH  19  20
ATOM     20  C   UNL     1       3.388   2.880  10.518  0.00  0.00    +0.000 C 
BRANCH  20  22
ATOM     21  C   UNL     1       2.638   4.598   8.845  0.00  0.00    +0.000 C 
ATOM     22  C   UNL     1       3.200   4.371  10.240  0.00  0.00    +0.000 C 
ENDBRANCH  20  22
ENDBRANCH  19  20
ENDBRANCH  18  19
ENDBRANCH  17  18
ENDBRANCH  16  17
ENDBRANCH   1  16
TORSDOF 9
ENDMDL
