MODEL 1
REMARK VINA RESULT:      -7.4      0.000      0.000
REMARK  Name = 
REMARK  2 active torsions:
REMARK  status: ('A' for Active; 'I' for Inactive)
REMARK    1  A    between atoms: N_1  and  C_2
REMARK    2  A    between atoms: C_5  and  C_6
REMARK                            x       y       z     vdW  Elec       q    Type
REMARK                         _______ _______ _______ _____ _____    ______ ____
ROOT
ATOM      1  C   UNL     1       0.897  11.046  18.108  0.00  0.00    +0.000 C 
ATOM      2  O   UNL     1       1.964  11.918  18.513  0.00  0.00    +0.000 OA
ATOM      3  C   UNL     1       1.589  13.293  18.707  0.00  0.00    +0.000 C 
ATOM      4  C   UNL     1       2.725  13.969  19.432  0.00  0.00    +0.000 C 
ATOM      5  C   UNL     1       2.497  13.403  20.808  0.00  0.00    +0.000 C 
ATOM      6  O   UNL     1       3.345  13.303  21.680  0.00  0.00    +0.000 OA
ATOM      7  O   UNL     1       1.171  13.054  20.962  0.00  0.00    +0.000 OA
ATOM      8  C   UNL     1       0.499  13.427  19.755  0.00  0.00    +0.000 C 
ATOM      9  C   UNL     1      -0.656  12.543  19.402  0.00  0.00    +0.000 C 
ATOM     10  C   UNL     1      -0.468  11.480  18.604  0.00  0.00    +0.000 C 
ATOM     11  C   UNL     1      -1.615  10.679  18.097  0.00  0.00    +0.000 C 
ATOM     12  O   UNL     1      -1.457   9.763  17.297  0.00  0.00    +0.000 OA
ATOM     13  C   UNL     1      -2.962  11.076  18.502  0.00  0.00    +0.000 A 
ATOM     14  C   UNL     1      -4.054  10.318  18.051  0.00  0.00    +0.000 A 
ATOM     15  C   UNL     1      -5.353  10.764  18.287  0.00  0.00    +0.000 A 
ATOM     16  C   UNL     1      -5.562  11.961  18.970  0.00  0.00    +0.000 A 
ATOM     17  C   UNL     1      -4.474  12.691  19.458  0.00  0.00    +0.000 A 
ATOM     18  C   UNL     1      -3.169  12.236  19.237  0.00  0.00    +0.000 A 
ATOM     19  C   UNL     1      -2.019  13.015  19.745  0.00  0.00    +0.000 C 
ATOM     20  O   UNL     1      -2.192  14.047  20.381  0.00  0.00    +0.000 OA
ENDROOT
BRANCH   1  24
ATOM     21  C   UNL     1       2.353   7.230  19.562  0.00  0.00    +0.000 A 
ATOM     22  C   UNL     1       2.484   7.564  18.212  0.00  0.00    +0.000 A 
ATOM     23  C   UNL     1       1.893   8.722  17.694  0.00  0.00    +0.000 A 
ATOM     24  C   UNL     1       1.228   9.621  18.544  0.00  0.00    +0.000 A 
ATOM     25  C   UNL     1       1.054   9.260  19.888  0.00  0.00    +0.000 A 
ATOM     26  C   UNL     1       1.634   8.091  20.392  0.00  0.00    +0.000 A 
BRANCH  21  27
ATOM     27  N   UNL     1       3.137   6.213  20.119  0.00  0.00    +0.000 N 
ATOM     28  H   UNL     1       3.447   5.512  19.455  0.00  0.00    +0.000 HD
ATOM     29  H   UNL     1       2.754   5.813  20.967  0.00  0.00    +0.000 HD
ENDBRANCH  21  27
ENDBRANCH   1  24
TORSDOF 2
ENDMDL
MODEL 2
REMARK VINA RESULT:      -7.1      3.054      5.803
REMARK  Name = 
REMARK  2 active torsions:
REMARK  status: ('A' for Active; 'I' for Inactive)
REMARK    1  A    between atoms: N_1  and  C_2
REMARK    2  A    between atoms: C_5  and  C_6
REMARK                            x       y       z     vdW  Elec       q    Type
REMARK                         _______ _______ _______ _____ _____    ______ ____
ROOT
ATOM      1  C   UNL     1       0.418  12.108  19.346  0.00  0.00    +0.000 C 
ATOM      2  O   UNL     1      -0.521  12.817  20.169  0.00  0.00    +0.000 OA
ATOM      3  C   UNL     1      -1.481  11.990  20.852  0.00  0.00    +0.000 C 
ATOM      4  C   UNL     1      -2.147  12.847  21.897  0.00  0.00    +0.000 C 
ATOM      5  C   UNL     1      -1.031  12.899  22.907  0.00  0.00    +0.000 C 
ATOM      6  O   UNL     1      -0.882  13.769  23.750  0.00  0.00    +0.000 OA
ATOM      7  O   UNL     1      -0.221  11.791  22.772  0.00  0.00    +0.000 OA
ATOM      8  C   UNL     1      -0.798  10.974  21.749  0.00  0.00    +0.000 C 
ATOM      9  C   UNL     1       0.202  10.189  20.959  0.00  0.00    +0.000 C 
ATOM     10  C   UNL     1       0.716  10.702  19.830  0.00  0.00    +0.000 C 
ATOM     11  C   UNL     1       1.581   9.890  18.932  0.00  0.00    +0.000 C 
ATOM     12  O   UNL     1       1.979  10.323  17.856  0.00  0.00    +0.000 OA
ATOM     13  C   UNL     1       1.868   8.510  19.321  0.00  0.00    +0.000 A 
ATOM     14  C   UNL     1       2.700   7.736  18.496  0.00  0.00    +0.000 A 
ATOM     15  C   UNL     1       2.861   6.376  18.755  0.00  0.00    +0.000 A 
ATOM     16  C   UNL     1       2.194   5.790  19.830  0.00  0.00    +0.000 A 
ATOM     17  C   UNL     1       1.401   6.573  20.676  0.00  0.00    +0.000 A 
ATOM     18  C   UNL     1       1.253   7.942  20.429  0.00  0.00    +0.000 A 
ATOM     19  C   UNL     1       0.406   8.766  21.318  0.00  0.00    +0.000 C 
ATOM     20  O   UNL     1      -0.152   8.271  22.289  0.00  0.00    +0.000 OA
ENDROOT
BRANCH   1  24
ATOM     21  C   UNL     1       3.692  14.942  19.150  0.00  0.00    +0.000 A 
ATOM     22  C   UNL     1       3.011  14.576  17.987  0.00  0.00    +0.000 A 
ATOM     23  C   UNL     1       2.051  13.556  18.005  0.00  0.00    +0.000 A 
ATOM     24  C   UNL     1       1.690  12.941  19.215  0.00  0.00    +0.000 A 
ATOM     25  C   UNL     1       2.411  13.274  20.371  0.00  0.00    +0.000 A 
ATOM     26  C   UNL     1       3.380  14.282  20.339  0.00  0.00    +0.000 A 
BRANCH  21  27
ATOM     27  N   UNL     1       4.465  16.109  19.179  0.00  0.00    +0.000 N 
ATOM     28  H   UNL     1       4.356  16.704  18.365  0.00  0.00    +0.000 HD
ATOM     29  H   UNL     1       5.436  15.956  19.430  0.00  0.00    +0.000 HD
ENDBRANCH  21  27
ENDBRANCH   1  24
TORSDOF 2
ENDMDL
MODEL 3
REMARK VINA RESULT:      -6.8      1.048      1.266
REMARK  Name = 
REMARK  2 active torsions:
REMARK  status: ('A' for Active; 'I' for Inactive)
REMARK    1  A    between atoms: N_1  and  C_2
REMARK    2  A    between atoms: C_5  and  C_6
REMARK                            x       y       z     vdW  Elec       q    Type
REMARK                         _______ _______ _______ _____ _____    ______ ____
ROOT
ATOM      1  C   UNL     1       0.834  11.879  18.612  0.00  0.00    +0.000 C 
ATOM      2  O   UNL     1       2.046  12.581  18.929  0.00  0.00    +0.000 OA
ATOM      3  C   UNL     1       1.878  13.970  19.265  0.00  0.00    +0.000 C 
ATOM      4  C   UNL     1       3.171  14.443  19.877  0.00  0.00    +0.000 C 
ATOM      5  C   UNL     1       3.044  13.795  21.230  0.00  0.00    +0.000 C 
ATOM      6  O   UNL     1       3.974  13.522  21.972  0.00  0.00    +0.000 OA
ATOM      7  O   UNL     1       1.715  13.593  21.534  0.00  0.00    +0.000 OA
ATOM      8  C   UNL     1       0.951  14.143  20.456  0.00  0.00    +0.000 C 
ATOM      9  C   UNL     1      -0.342  13.435  20.200  0.00  0.00    +0.000 C 
ATOM     10  C   UNL     1      -0.392  12.428  19.313  0.00  0.00    +0.000 C 
ATOM     11  C   UNL     1      -1.685  11.814  18.910  0.00  0.00    +0.000 C 
ATOM     12  O   UNL     1      -1.746  10.956  18.035  0.00  0.00    +0.000 OA
ATOM     13  C   UNL     1      -2.910  12.331  19.517  0.00  0.00    +0.000 A 
ATOM     14  C   UNL     1      -4.137  11.748  19.164  0.00  0.00    +0.000 A 
ATOM     15  C   UNL     1      -5.329  12.323  19.601  0.00  0.00    +0.000 A 
ATOM     16  C   UNL     1      -5.298  13.474  20.386  0.00  0.00    +0.000 A 
ATOM     17  C   UNL     1      -4.073  14.027  20.773  0.00  0.00    +0.000 A 
ATOM     18  C   UNL     1      -2.875  13.441  20.350  0.00  0.00    +0.000 A 
ATOM     19  C   UNL     1      -1.580  14.033  20.752  0.00  0.00    +0.000 C 
ATOM     20  O   UNL     1      -1.539  15.021  21.475  0.00  0.00    +0.000 OA
ENDROOT
BRANCH   1  24
ATOM     21  C   UNL     1       1.934   7.818  19.657  0.00  0.00    +0.000 A 
ATOM     22  C   UNL     1       2.076   8.267  18.343  0.00  0.00    +0.000 A 
ATOM     23  C   UNL     1       1.592   9.522  17.953  0.00  0.00    +0.000 A 
ATOM     24  C   UNL     1       1.032  10.394  18.902  0.00  0.00    +0.000 A 
ATOM     25  C   UNL     1       0.845   9.921  20.209  0.00  0.00    +0.000 A 
ATOM     26  C   UNL     1       1.317   8.659  20.584  0.00  0.00    +0.000 A 
BRANCH  21  27
ATOM     27  N   UNL     1       2.624   6.681  20.095  0.00  0.00    +0.000 N 
ATOM     28  H   UNL     1       3.500   6.878  20.566  0.00  0.00    +0.000 HD
ATOM     29  H   UNL     1       2.706   5.952  19.395  0.00  0.00    +0.000 HD
ENDBRANCH  21  27
ENDBRANCH   1  24
TORSDOF 2
ENDMDL
MODEL 4
REMARK VINA RESULT:      -6.8      2.790      4.571
REMARK  Name = 
REMARK  2 active torsions:
REMARK  status: ('A' for Active; 'I' for Inactive)
REMARK    1  A    between atoms: N_1  and  C_2
REMARK    2  A    between atoms: C_5  and  C_6
REMARK                            x       y       z     vdW  Elec       q    Type
REMARK                         _______ _______ _______ _____ _____    ______ ____
ROOT
ATOM      1  C   UNL     1      -1.433  12.895  21.366  0.00  0.00    +0.000 C 
ATOM      2  O   UNL     1      -2.026  13.449  22.550  0.00  0.00    +0.000 OA
ATOM      3  C   UNL     1      -3.300  14.089  22.354  0.00  0.00    +0.000 C 
ATOM      4  C   UNL     1      -3.907  14.305  23.717  0.00  0.00    +0.000 C 
ATOM      5  C   UNL     1      -4.330  12.891  24.015  0.00  0.00    +0.000 C 
ATOM      6  O   UNL     1      -4.509  12.428  25.130  0.00  0.00    +0.000 OA
ATOM      7  O   UNL     1      -4.531  12.200  22.839  0.00  0.00    +0.000 OA
ATOM      8  C   UNL     1      -4.319  13.127  21.768  0.00  0.00    +0.000 C 
ATOM      9  C   UNL     1      -3.771  12.504  20.523  0.00  0.00    +0.000 C 
ATOM     10  C   UNL     1      -2.444  12.449  20.328  0.00  0.00    +0.000 C 
ATOM     11  C   UNL     1      -1.868  11.992  19.034  0.00  0.00    +0.000 C 
ATOM     12  O   UNL     1      -0.661  12.024  18.819  0.00  0.00    +0.000 OA
ATOM     13  C   UNL     1      -2.793  11.591  17.975  0.00  0.00    +0.000 A 
ATOM     14  C   UNL     1      -2.267  11.138  16.755  0.00  0.00    +0.000 A 
ATOM     15  C   UNL     1      -3.118  10.903  15.677  0.00  0.00    +0.000 A 
ATOM     16  C   UNL     1      -4.488  11.121  15.815  0.00  0.00    +0.000 A 
ATOM     17  C   UNL     1      -5.015  11.530  17.044  0.00  0.00    +0.000 A 
ATOM     18  C   UNL     1      -4.163  11.749  18.133  0.00  0.00    +0.000 A 
ATOM     19  C   UNL     1      -4.721  12.192  19.429  0.00  0.00    +0.000 C 
ATOM     20  O   UNL     1      -5.927  12.348  19.573  0.00  0.00    +0.000 OA
ENDROOT
BRANCH   1  24
ATOM     21  C   UNL     1       1.048   9.396  21.993  0.00  0.00    +0.000 A 
ATOM     22  C   UNL     1      -0.178   9.514  22.652  0.00  0.00    +0.000 A 
ATOM     23  C   UNL     1      -0.925  10.696  22.579  0.00  0.00    +0.000 A 
ATOM     24  C   UNL     1      -0.496  11.759  21.766  0.00  0.00    +0.000 A 
ATOM     25  C   UNL     1       0.758  11.657  21.147  0.00  0.00    +0.000 A 
ATOM     26  C   UNL     1       1.505  10.478  21.240  0.00  0.00    +0.000 A 
BRANCH  21  27
ATOM     27  N   UNL     1       1.668   8.147  21.872  0.00  0.00    +0.000 N 
ATOM     28  H   UNL     1       1.961   7.737  22.751  0.00  0.00    +0.000 HD
ATOM     29  H   UNL     1       2.387   8.109  21.158  0.00  0.00    +0.000 HD
ENDBRANCH  21  27
ENDBRANCH   1  24
TORSDOF 2
ENDMDL
MODEL 5
REMARK VINA RESULT:      -6.8      2.915      5.879
REMARK  Name = 
REMARK  2 active torsions:
REMARK  status: ('A' for Active; 'I' for Inactive)
REMARK    1  A    between atoms: N_1  and  C_2
REMARK    2  A    between atoms: C_5  and  C_6
REMARK                            x       y       z     vdW  Elec       q    Type
REMARK                         _______ _______ _______ _____ _____    ______ ____
ROOT
ATOM      1  C   UNL     1       0.004  11.028  20.036  0.00  0.00    +0.000 C 
ATOM      2  O   UNL     1      -0.897  10.719  21.110  0.00  0.00    +0.000 OA
ATOM      3  C   UNL     1      -0.535  11.270  22.389  0.00  0.00    +0.000 C 
ATOM      4  C   UNL     1      -1.734  11.130  23.292  0.00  0.00    +0.000 C 
ATOM      5  C   UNL     1      -2.587  12.233  22.726  0.00  0.00    +0.000 C 
ATOM      6  O   UNL     1      -3.803  12.303  22.816  0.00  0.00    +0.000 OA
ATOM      7  O   UNL     1      -1.791  13.186  22.126  0.00  0.00    +0.000 OA
ATOM      8  C   UNL     1      -0.432  12.784  22.331  0.00  0.00    +0.000 C 
ATOM      9  C   UNL     1       0.496  13.187  21.228  0.00  0.00    +0.000 C 
ATOM     10  C   UNL     1       0.726  12.350  20.204  0.00  0.00    +0.000 C 
ATOM     11  C   UNL     1       1.765  12.643  19.181  0.00  0.00    +0.000 C 
ATOM     12  O   UNL     1       2.042  11.841  18.295  0.00  0.00    +0.000 OA
ATOM     13  C   UNL     1       2.529  13.883  19.314  0.00  0.00    +0.000 A 
ATOM     14  C   UNL     1       3.498  14.186  18.345  0.00  0.00    +0.000 A 
ATOM     15  C   UNL     1       4.348  15.275  18.532  0.00  0.00    +0.000 A 
ATOM     16  C   UNL     1       4.233  16.056  19.680  0.00  0.00    +0.000 A 
ATOM     17  C   UNL     1       3.237  15.779  20.622  0.00  0.00    +0.000 A 
ATOM     18  C   UNL     1       2.370  14.697  20.427  0.00  0.00    +0.000 A 
ATOM     19  C   UNL     1       1.325  14.399  21.430  0.00  0.00    +0.000 C 
ATOM     20  O   UNL     1       1.188  15.103  22.423  0.00  0.00    +0.000 OA
ENDROOT
BRANCH   1  24
ATOM     21  C   UNL     1      -2.612  10.606  16.605  0.00  0.00    +0.000 A 
ATOM     22  C   UNL     1      -1.608   9.665  16.842  0.00  0.00    +0.000 A 
ATOM     23  C   UNL     1      -0.662   9.859  17.856  0.00  0.00    +0.000 A 
ATOM     24  C   UNL     1      -0.758  10.966  18.715  0.00  0.00    +0.000 A 
ATOM     25  C   UNL     1      -1.736  11.934  18.444  0.00  0.00    +0.000 A 
ATOM     26  C   UNL     1      -2.666  11.739  17.418  0.00  0.00    +0.000 A 
BRANCH  21  27
ATOM     27  N   UNL     1      -3.686  10.298  15.762  0.00  0.00    +0.000 N 
ATOM     28  H   UNL     1      -3.860   9.305  15.651  0.00  0.00    +0.000 HD
ATOM     29  H   UNL     1      -3.678  10.799  14.881  0.00  0.00    +0.000 HD
ENDBRANCH  21  27
ENDBRANCH   1  24
TORSDOF 2
ENDMDL
MODEL 6
REMARK VINA RESULT:      -6.8      1.487      1.887
REMARK  Name = 
REMARK  2 active torsions:
REMARK  status: ('A' for Active; 'I' for Inactive)
REMARK    1  A    between atoms: N_1  and  C_2
REMARK    2  A    between atoms: C_5  and  C_6
REMARK                            x       y       z     vdW  Elec       q    Type
REMARK                         _______ _______ _______ _____ _____    ______ ____
ROOT
ATOM      1  C   UNL     1      -0.607  12.069  18.654  0.00  0.00    +0.000 C 
ATOM      2  O   UNL     1       0.301  13.061  19.160  0.00  0.00    +0.000 OA
ATOM      3  C   UNL     1      -0.283  14.351  19.414  0.00  0.00    +0.000 C 
ATOM      4  C   UNL     1       0.708  15.138  20.232  0.00  0.00    +0.000 C 
ATOM      5  C   UNL     1       0.511  14.459  21.561  0.00  0.00    +0.000 C 
ATOM      6  O   UNL     1       1.328  14.429  22.467  0.00  0.00    +0.000 OA
ATOM      7  O   UNL     1      -0.752  13.909  21.628  0.00  0.00    +0.000 OA
ATOM      8  C   UNL     1      -1.423  14.257  20.413  0.00  0.00    +0.000 C 
ATOM      9  C   UNL     1      -2.418  13.237  19.952  0.00  0.00    +0.000 C 
ATOM     10  C   UNL     1      -2.040  12.266  19.105  0.00  0.00    +0.000 C 
ATOM     11  C   UNL     1      -3.032  11.340  18.496  0.00  0.00    +0.000 C 
ATOM     12  O   UNL     1      -2.706  10.510  17.654  0.00  0.00    +0.000 OA
ATOM     13  C   UNL     1      -4.440  11.508  18.856  0.00  0.00    +0.000 A 
ATOM     14  C   UNL     1      -5.386  10.628  18.307  0.00  0.00    +0.000 A 
ATOM     15  C   UNL     1      -6.746  10.862  18.504  0.00  0.00    +0.000 A 
ATOM     16  C   UNL     1      -7.159  11.970  19.243  0.00  0.00    +0.000 A 
ATOM     17  C   UNL     1      -6.213  12.819  19.825  0.00  0.00    +0.000 A 
ATOM     18  C   UNL     1      -4.847  12.575  19.645  0.00  0.00    +0.000 A 
ATOM     19  C   UNL     1      -3.848  13.480  20.253  0.00  0.00    +0.000 C 
ATOM     20  O   UNL     1      -4.199  14.433  20.938  0.00  0.00    +0.000 OA
ENDROOT
BRANCH   1  24
ATOM     21  C   UNL     1       1.332   8.425  19.977  0.00  0.00    +0.000 A 
ATOM     22  C   UNL     1       1.507   8.877  18.667  0.00  0.00    +0.000 A 
ATOM     23  C   UNL     1       0.777   9.967  18.177  0.00  0.00    +0.000 A 
ATOM     24  C   UNL     1      -0.084  10.684  19.024  0.00  0.00    +0.000 A 
ATOM     25  C   UNL     1      -0.296  10.198  20.322  0.00  0.00    +0.000 A 
ATOM     26  C   UNL     1       0.426   9.098  20.797  0.00  0.00    +0.000 A 
BRANCH  21  27
ATOM     27  N   UNL     1       2.226   7.501  20.531  0.00  0.00    +0.000 N 
ATOM     28  H   UNL     1       1.795   6.812  21.137  0.00  0.00    +0.000 HD
ATOM     29  H   UNL     1       3.055   7.920  20.937  0.00  0.00    +0.000 HD
ENDBRANCH  21  27
ENDBRANCH   1  24
TORSDOF 2
ENDMDL
MODEL 7
REMARK VINA RESULT:      -6.7      5.195      8.494
REMARK  Name = 
REMARK  2 active torsions:
REMARK  status: ('A' for Active; 'I' for Inactive)
REMARK    1  A    between atoms: N_1  and  C_2
REMARK    2  A    between atoms: C_5  and  C_6
REMARK                            x       y       z     vdW  Elec       q    Type
REMARK                         _______ _______ _______ _____ _____    ______ ____
ROOT
ATOM      1  C   UNL     1       5.551   5.080  17.943  0.00  0.00    +0.000 C 
ATOM      2  O   UNL     1       5.649   3.788  18.563  0.00  0.00    +0.000 OA
ATOM      3  C   UNL     1       4.973   3.664  19.828  0.00  0.00    +0.000 C 
ATOM      4  C   UNL     1       4.901   2.195  20.155  0.00  0.00    +0.000 C 
ATOM      5  C   UNL     1       3.811   1.792  19.197  0.00  0.00    +0.000 C 
ATOM      6  O   UNL     1       3.632   0.664  18.765  0.00  0.00    +0.000 OA
ATOM      7  O   UNL     1       3.009   2.877  18.911  0.00  0.00    +0.000 OA
ATOM      8  C   UNL     1       3.491   3.971  19.696  0.00  0.00    +0.000 C 
ATOM      9  C   UNL     1       3.306   5.311  19.055  0.00  0.00    +0.000 C 
ATOM     10  C   UNL     1       4.281   5.830  18.292  0.00  0.00    +0.000 C 
ATOM     11  C   UNL     1       4.203   7.224  17.777  0.00  0.00    +0.000 C 
ATOM     12  O   UNL     1       5.129   7.734  17.156  0.00  0.00    +0.000 OA
ATOM     13  C   UNL     1       3.022   8.017  18.117  0.00  0.00    +0.000 A 
ATOM     14  C   UNL     1       2.923   9.326  17.622  0.00  0.00    +0.000 A 
ATOM     15  C   UNL     1       1.892  10.156  18.058  0.00  0.00    +0.000 A 
ATOM     16  C   UNL     1       0.966   9.683  18.987  0.00  0.00    +0.000 A 
ATOM     17  C   UNL     1       1.042   8.363  19.445  0.00  0.00    +0.000 A 
ATOM     18  C   UNL     1       2.065   7.523  18.993  0.00  0.00    +0.000 A 
ATOM     19  C   UNL     1       2.150   6.131  19.487  0.00  0.00    +0.000 C 
ATOM     20  O   UNL     1       1.318   5.691  20.271  0.00  0.00    +0.000 OA
ENDROOT
BRANCH   1  24
ATOM     21  C   UNL     1       6.194   4.059  13.780  0.00  0.00    +0.000 A 
ATOM     22  C   UNL     1       7.166   4.770  14.486  0.00  0.00    +0.000 A 
ATOM     23  C   UNL     1       6.919   5.236  15.783  0.00  0.00    +0.000 A 
ATOM     24  C   UNL     1       5.715   4.919  16.435  0.00  0.00    +0.000 A 
ATOM     25  C   UNL     1       4.722   4.250  15.706  0.00  0.00    +0.000 A 
ATOM     26  C   UNL     1       4.972   3.803  14.404  0.00  0.00    +0.000 A 
BRANCH  21  27
ATOM     27  N   UNL     1       6.526   3.395  12.593  0.00  0.00    +0.000 N 
ATOM     28  H   UNL     1       7.091   3.940  11.952  0.00  0.00    +0.000 HD
ATOM     29  H   UNL     1       5.742   2.939  12.140  0.00  0.00    +0.000 HD
ENDBRANCH  21  27
ENDBRANCH   1  24
TORSDOF 2
ENDMDL
MODEL 8
REMARK VINA RESULT:      -6.7      0.570      1.091
REMARK  Name = 
REMARK  2 active torsions:
REMARK  status: ('A' for Active; 'I' for Inactive)
REMARK    1  A    between atoms: N_1  and  C_2
REMARK    2  A    between atoms: C_5  and  C_6
REMARK                            x       y       z     vdW  Elec       q    Type
REMARK                         _______ _______ _______ _____ _____    ______ ____
ROOT
ATOM      1  C   UNL     1       1.439  11.024  18.230  0.00  0.00    +0.000 C 
ATOM      2  O   UNL     1       2.399  11.997  18.669  0.00  0.00    +0.000 OA
ATOM      3  C   UNL     1       1.898  13.341  18.787  0.00  0.00    +0.000 C 
ATOM      4  C   UNL     1       2.921  14.134  19.559  0.00  0.00    +0.000 C 
ATOM      5  C   UNL     1       2.648  13.595  20.938  0.00  0.00    +0.000 C 
ATOM      6  O   UNL     1       3.441  13.597  21.866  0.00  0.00    +0.000 OA
ATOM      7  O   UNL     1       1.350  13.138  21.018  0.00  0.00    +0.000 OA
ATOM      8  C   UNL     1       0.731  13.413  19.757  0.00  0.00    +0.000 C 
ATOM      9  C   UNL     1      -0.319  12.422  19.363  0.00  0.00    +0.000 C 
ATOM     10  C   UNL     1       0.012  11.354  18.620  0.00  0.00    +0.000 C 
ATOM     11  C   UNL     1      -1.026  10.442  18.069  0.00  0.00    +0.000 C 
ATOM     12  O   UNL     1      -0.738   9.518  17.316  0.00  0.00    +0.000 OA
ATOM     13  C   UNL     1      -2.427  10.733  18.372  0.00  0.00    +0.000 A 
ATOM     14  C   UNL     1      -3.418   9.870  17.879  0.00  0.00    +0.000 A 
ATOM     15  C   UNL     1      -4.763  10.209  18.014  0.00  0.00    +0.000 A 
ATOM     16  C   UNL     1      -5.118  11.405  18.636  0.00  0.00    +0.000 A 
ATOM     17  C   UNL     1      -4.130  12.241  19.166  0.00  0.00    +0.000 A 
ATOM     18  C   UNL     1      -2.780  11.893  19.048  0.00  0.00    +0.000 A 
ATOM     19  C   UNL     1      -1.736  12.785  19.599  0.00  0.00    +0.000 C 
ATOM     20  O   UNL     1      -2.038  13.818  20.184  0.00  0.00    +0.000 OA
ENDROOT
BRANCH   1  24
ATOM     21  C   UNL     1       2.114   6.915  19.436  0.00  0.00    +0.000 A 
ATOM     22  C   UNL     1       1.609   7.841  20.351  0.00  0.00    +0.000 A 
ATOM     23  C   UNL     1       1.521   9.201  20.028  0.00  0.00    +0.000 A 
ATOM     24  C   UNL     1       1.858   9.648  18.740  0.00  0.00    +0.000 A 
ATOM     25  C   UNL     1       2.412   8.726  17.840  0.00  0.00    +0.000 A 
ATOM     26  C   UNL     1       2.512   7.372  18.179  0.00  0.00    +0.000 A 
BRANCH  21  27
ATOM     27  N   UNL     1       1.977   5.542  19.670  0.00  0.00    +0.000 N 
ATOM     28  H   UNL     1       1.034   5.189  19.553  0.00  0.00    +0.000 HD
ATOM     29  H   UNL     1       2.415   5.222  20.527  0.00  0.00    +0.000 HD
ENDBRANCH  21  27
ENDBRANCH   1  24
TORSDOF 2
ENDMDL
MODEL 9
REMARK VINA RESULT:      -6.7      6.377      9.086
REMARK  Name = 
REMARK  2 active torsions:
REMARK  status: ('A' for Active; 'I' for Inactive)
REMARK    1  A    between atoms: N_1  and  C_2
REMARK    2  A    between atoms: C_5  and  C_6
REMARK                            x       y       z     vdW  Elec       q    Type
REMARK                         _______ _______ _______ _____ _____    ______ ____
ROOT
ATOM      1  C   UNL     1       8.997  15.332  17.871  0.00  0.00    +0.000 C 
ATOM      2  O   UNL     1      10.029  16.296  18.132  0.00  0.00    +0.000 OA
ATOM      3  C   UNL     1       9.588  17.665  18.184  0.00  0.00    +0.000 C 
ATOM      4  C   UNL     1      10.708  18.474  18.784  0.00  0.00    +0.000 C 
ATOM      5  C   UNL     1      10.556  18.060  20.223  0.00  0.00    +0.000 C 
ATOM      6  O   UNL     1      11.436  18.103  21.067  0.00  0.00    +0.000 OA
ATOM      7  O   UNL     1       9.257  17.665  20.466  0.00  0.00    +0.000 OA
ATOM      8  C   UNL     1       8.526  17.864  19.252  0.00  0.00    +0.000 C 
ATOM      9  C   UNL     1       7.409  16.889  19.045  0.00  0.00    +0.000 C 
ATOM     10  C   UNL     1       7.628  15.752  18.366  0.00  0.00    +0.000 C 
ATOM     11  C   UNL     1       6.510  14.842  17.997  0.00  0.00    +0.000 C 
ATOM     12  O   UNL     1       6.690  13.850  17.300  0.00  0.00    +0.000 OA
ATOM     13  C   UNL     1       5.157  15.216  18.407  0.00  0.00    +0.000 A 
ATOM     14  C   UNL     1       4.093  14.358  18.086  0.00  0.00    +0.000 A 
ATOM     15  C   UNL     1       2.781  14.763  18.320  0.00  0.00    +0.000 A 
ATOM     16  C   UNL     1       2.530  16.019  18.871  0.00  0.00    +0.000 A 
ATOM     17  C   UNL     1       3.593  16.854  19.231  0.00  0.00    +0.000 A 
ATOM     18  C   UNL     1       4.912  16.441  19.013  0.00  0.00    +0.000 A 
ATOM     19  C   UNL     1       6.035  17.329  19.384  0.00  0.00    +0.000 C 
ATOM     20  O   UNL     1       5.828  18.418  19.906  0.00  0.00    +0.000 OA
ENDROOT
BRANCH   1  24
ATOM     21  C   UNL     1       9.643  11.313  19.361  0.00  0.00    +0.000 A 
ATOM     22  C   UNL     1       9.291  12.339  20.240  0.00  0.00    +0.000 A 
ATOM     23  C   UNL     1       9.220  13.668  19.806  0.00  0.00    +0.000 A 
ATOM     24  C   UNL     1       9.418  13.985  18.452  0.00  0.00    +0.000 A 
ATOM     25  C   UNL     1       9.821  12.961  17.582  0.00  0.00    +0.000 A 
ATOM     26  C   UNL     1       9.905  11.639  18.030  0.00  0.00    +0.000 A 
BRANCH  21  27
ATOM     27  N   UNL     1       9.479   9.974  19.735  0.00  0.00    +0.000 N 
ATOM     28  H   UNL     1      10.329   9.423  19.704  0.00  0.00    +0.000 HD
ATOM     29  H   UNL     1       8.693   9.513  19.291  0.00  0.00    +0.000 HD
ENDBRANCH  21  27
ENDBRANCH   1  24
TORSDOF 2
ENDMDL
