MODEL 1
REMARK VINA RESULT:      -7.3      0.000      0.000
REMARK  Name = 
REMARK  4 active torsions:
REMARK  status: ('A' for Active; 'I' for Inactive)
REMARK    1  A    between atoms: C_2  and  O_3
REMARK    2  A    between atoms: C_2  and  C_4
REMARK    3  A    between atoms: C_4  and  N_5
REMARK    4  A    between atoms: C_9  and  C_10
REMARK                            x       y       z     vdW  Elec       q    Type
REMARK                         _______ _______ _______ _____ _____    ______ ____
ROOT
ATOM      1  N   UNL     1       6.103   4.821  16.773  0.00  0.00    +0.000 N 
ATOM      2  N   UNL     1       7.364   5.194  17.065  0.00  0.00    +0.000 NA
ATOM      3  N   UNL     1       7.555   4.816  18.316  0.00  0.00    +0.000 NA
ATOM      4  N   UNL     1       6.415   4.264  18.835  0.00  0.00    +0.000 NA
ATOM      5  C   UNL     1       5.491   4.305  17.887  0.00  0.00    +0.000 A 
ENDROOT
BRANCH   5   6
ATOM      6  C   UNL     1       4.108   3.844  18.038  0.00  0.00    +0.000 A 
ATOM      7  C   UNL     1       2.998   4.664  17.781  0.00  0.00    +0.000 A 
ATOM      8  C   UNL     1       1.696   4.175  17.926  0.00  0.00    +0.000 A 
ATOM      9  C   UNL     1       1.494   2.875  18.362  0.00  0.00    +0.000 A 
ATOM     10  F   UNL     1       0.247   2.413  18.507  0.00  0.00    +0.000 F 
ATOM     11  C   UNL     1       2.572   2.054  18.663  0.00  0.00    +0.000 A 
ATOM     12  C   UNL     1       3.874   2.538  18.502  0.00  0.00    +0.000 A 
ENDBRANCH   5   6
BRANCH   1  13
ATOM     13  C   UNL     1       5.611   5.082  15.446  0.00  0.00    +0.000 C 
BRANCH  13  15
ATOM     14  O   UNL     1       6.404   3.700  13.667  0.00  0.00    +0.000 OA
ATOM     15  C   UNL     1       6.598   4.672  14.388  0.00  0.00    +0.000 C 
BRANCH  15  16
ATOM     16  O   UNL     1       7.721   5.416  14.282  0.00  0.00    +0.000 OA
ATOM     17  H   UNL     1       7.831   5.945  13.462  0.00  0.00    +0.000 HD
ENDBRANCH  15  16
ENDBRANCH  13  15
ENDBRANCH   1  13
TORSDOF 4
ENDMDL
MODEL 2
REMARK VINA RESULT:      -7.2      2.289      2.884
REMARK  Name = 
REMARK  4 active torsions:
REMARK  status: ('A' for Active; 'I' for Inactive)
REMARK    1  A    between atoms: C_2  and  O_3
REMARK    2  A    between atoms: C_2  and  C_4
REMARK    3  A    between atoms: C_4  and  N_5
REMARK    4  A    between atoms: C_9  and  C_10
REMARK                            x       y       z     vdW  Elec       q    Type
REMARK                         _______ _______ _______ _____ _____    ______ ____
ROOT
ATOM      1  N   UNL     1       6.402   4.930  17.586  0.00  0.00    +0.000 N 
ATOM      2  N   UNL     1       7.514   5.043  16.835  0.00  0.00    +0.000 NA
ATOM      3  N   UNL     1       7.198   4.512  15.668  0.00  0.00    +0.000 NA
ATOM      4  N   UNL     1       5.924   4.012  15.691  0.00  0.00    +0.000 NA
ATOM      5  C   UNL     1       5.437   4.232  16.904  0.00  0.00    +0.000 A 
ENDROOT
BRANCH   5   6
ATOM      6  C   UNL     1       4.107   3.823  17.365  0.00  0.00    +0.000 A 
ATOM      7  C   UNL     1       3.045   4.726  17.528  0.00  0.00    +0.000 A 
ATOM      8  C   UNL     1       1.789   4.286  17.957  0.00  0.00    +0.000 A 
ATOM      9  C   UNL     1       1.596   2.947  18.261  0.00  0.00    +0.000 A 
ATOM     10  F   UNL     1       0.396   2.531  18.679  0.00  0.00    +0.000 F 
ATOM     11  C   UNL     1       2.639   2.039  18.149  0.00  0.00    +0.000 A 
ATOM     12  C   UNL     1       3.891   2.476  17.703  0.00  0.00    +0.000 A 
ENDBRANCH   5   6
BRANCH   1  13
ATOM     13  C   UNL     1       6.433   5.455  18.926  0.00  0.00    +0.000 C 
BRANCH  13  15
ATOM     14  O   UNL     1       8.478   5.098  20.108  0.00  0.00    +0.000 OA
ATOM     15  C   UNL     1       7.828   5.816  19.356  0.00  0.00    +0.000 C 
BRANCH  15  16
ATOM     16  O   UNL     1       8.326   6.983  18.892  0.00  0.00    +0.000 OA
ATOM     17  H   UNL     1       7.716   7.556  18.378  0.00  0.00    +0.000 HD
ENDBRANCH  15  16
ENDBRANCH  13  15
ENDBRANCH   1  13
TORSDOF 4
ENDMDL
MODEL 3
REMARK VINA RESULT:      -7.1      2.365      3.096
REMARK  Name = 
REMARK  4 active torsions:
REMARK  status: ('A' for Active; 'I' for Inactive)
REMARK    1  A    between atoms: C_2  and  O_3
REMARK    2  A    between atoms: C_2  and  C_4
REMARK    3  A    between atoms: C_4  and  N_5
REMARK    4  A    between atoms: C_9  and  C_10
REMARK                            x       y       z     vdW  Elec       q    Type
REMARK                         _______ _______ _______ _____ _____    ______ ____
ROOT
ATOM      1  N   UNL     1       6.789   4.991  16.641  0.00  0.00    +0.000 N 
ATOM      2  N   UNL     1       7.587   5.229  15.583  0.00  0.00    +0.000 NA
ATOM      3  N   UNL     1       6.777   5.637  14.623  0.00  0.00    +0.000 NA
ATOM      4  N   UNL     1       5.474   5.603  15.041  0.00  0.00    +0.000 NA
ATOM      5  C   UNL     1       5.473   5.157  16.290  0.00  0.00    +0.000 A 
ENDROOT
BRANCH   5   6
ATOM      6  C   UNL     1       4.275   4.937  17.105  0.00  0.00    +0.000 A 
ATOM      7  C   UNL     1       3.718   5.930  17.926  0.00  0.00    +0.000 A 
ATOM      8  C   UNL     1       2.565   5.678  18.675  0.00  0.00    +0.000 A 
ATOM      9  C   UNL     1       1.982   4.421  18.637  0.00  0.00    +0.000 A 
ATOM     10  F   UNL     1       0.883   4.181  19.362  0.00  0.00    +0.000 F 
ATOM     11  C   UNL     1       2.534   3.408  17.867  0.00  0.00    +0.000 A 
ATOM     12  C   UNL     1       3.677   3.665  17.104  0.00  0.00    +0.000 A 
ENDBRANCH   5   6
BRANCH   1  13
ATOM     13  C   UNL     1       7.403   4.551  17.866  0.00  0.00    +0.000 C 
BRANCH  13  15
ATOM     14  O   UNL     1       7.511   5.520  20.046  0.00  0.00    +0.000 OA
ATOM     15  C   UNL     1       7.602   5.684  18.835  0.00  0.00    +0.000 C 
BRANCH  15  16
ATOM     16  O   UNL     1       7.867   6.898  18.306  0.00  0.00    +0.000 OA
ATOM     17  H   UNL     1       8.046   6.936  17.340  0.00  0.00    +0.000 HD
ENDBRANCH  15  16
ENDBRANCH  13  15
ENDBRANCH   1  13
TORSDOF 4
ENDMDL
MODEL 4
REMARK VINA RESULT:      -7.1      2.365      3.243
REMARK  Name = 
REMARK  4 active torsions:
REMARK  status: ('A' for Active; 'I' for Inactive)
REMARK    1  A    between atoms: C_2  and  O_3
REMARK    2  A    between atoms: C_2  and  C_4
REMARK    3  A    between atoms: C_4  and  N_5
REMARK    4  A    between atoms: C_9  and  C_10
REMARK                            x       y       z     vdW  Elec       q    Type
REMARK                         _______ _______ _______ _____ _____    ______ ____
ROOT
ATOM      1  N   UNL     1       6.766   4.981  16.648  0.00  0.00    +0.000 N 
ATOM      2  N   UNL     1       7.545   5.256  15.584  0.00  0.00    +0.000 NA
ATOM      3  N   UNL     1       6.710   5.635  14.634  0.00  0.00    +0.000 NA
ATOM      4  N   UNL     1       5.413   5.546  15.063  0.00  0.00    +0.000 NA
ATOM      5  C   UNL     1       5.442   5.096  16.310  0.00  0.00    +0.000 A 
ENDROOT
BRANCH   5   6
ATOM      6  C   UNL     1       4.261   4.823  17.134  0.00  0.00    +0.000 A 
ATOM      7  C   UNL     1       3.542   3.620  17.063  0.00  0.00    +0.000 A 
ATOM      8  C   UNL     1       2.430   3.399  17.880  0.00  0.00    +0.000 A 
ATOM      9  C   UNL     1       2.006   4.394  18.748  0.00  0.00    +0.000 A 
ATOM     10  F   UNL     1       0.936   4.182  19.522  0.00  0.00    +0.000 F 
ATOM     11  C   UNL     1       2.672   5.610  18.810  0.00  0.00    +0.000 A 
ATOM     12  C   UNL     1       3.795   5.823  18.005  0.00  0.00    +0.000 A 
ENDBRANCH   5   6
BRANCH   1  13
ATOM     13  C   UNL     1       7.408   4.560  17.865  0.00  0.00    +0.000 C 
BRANCH  13  15
ATOM     14  O   UNL     1       7.438   5.542  20.043  0.00  0.00    +0.000 OA
ATOM     15  C   UNL     1       7.578   5.698  18.835  0.00  0.00    +0.000 C 
BRANCH  15  16
ATOM     16  O   UNL     1       7.873   6.906  18.310  0.00  0.00    +0.000 OA
ATOM     17  H   UNL     1       7.270   7.252  17.616  0.00  0.00    +0.000 HD
ENDBRANCH  15  16
ENDBRANCH  13  15
ENDBRANCH   1  13
TORSDOF 4
ENDMDL
MODEL 5
REMARK VINA RESULT:      -7.1      0.780      1.459
REMARK  Name = 
REMARK  4 active torsions:
REMARK  status: ('A' for Active; 'I' for Inactive)
REMARK    1  A    between atoms: C_2  and  O_3
REMARK    2  A    between atoms: C_2  and  C_4
REMARK    3  A    between atoms: C_4  and  N_5
REMARK    4  A    between atoms: C_9  and  C_10
REMARK                            x       y       z     vdW  Elec       q    Type
REMARK                         _______ _______ _______ _____ _____    ______ ____
ROOT
ATOM      1  N   UNL     1       6.373   4.312  17.098  0.00  0.00    +0.000 N 
ATOM      2  N   UNL     1       7.541   4.899  17.420  0.00  0.00    +0.000 NA
ATOM      3  N   UNL     1       7.496   5.065  18.730  0.00  0.00    +0.000 NA
ATOM      4  N   UNL     1       6.293   4.646  19.230  0.00  0.00    +0.000 NA
ATOM      5  C   UNL     1       5.570   4.214  18.207  0.00  0.00    +0.000 A 
ENDROOT
BRANCH   5   6
ATOM      6  C   UNL     1       4.198   3.708  18.299  0.00  0.00    +0.000 A 
ATOM      7  C   UNL     1       3.883   2.452  18.842  0.00  0.00    +0.000 A 
ATOM      8  C   UNL     1       2.557   2.017  18.922  0.00  0.00    +0.000 A 
ATOM      9  C   UNL     1       1.539   2.818  18.427  0.00  0.00    +0.000 A 
ATOM     10  F   UNL     1       0.272   2.395  18.498  0.00  0.00    +0.000 F 
ATOM     11  C   UNL     1       1.824   4.046  17.847  0.00  0.00    +0.000 A 
ATOM     12  C   UNL     1       3.149   4.489  17.783  0.00  0.00    +0.000 A 
ENDBRANCH   5   6
BRANCH   1  13
ATOM     13  C   UNL     1       6.141   3.978  15.718  0.00  0.00    +0.000 C 
BRANCH  13  15
ATOM     14  O   UNL     1       7.051   5.041  13.782  0.00  0.00    +0.000 OA
ATOM     15  C   UNL     1       6.385   5.149  14.806  0.00  0.00    +0.000 C 
BRANCH  15  16
ATOM     16  O   UNL     1       5.853   6.333  15.179  0.00  0.00    +0.000 OA
ATOM     17  H   UNL     1       5.009   6.305  15.680  0.00  0.00    +0.000 HD
ENDBRANCH  15  16
ENDBRANCH  13  15
ENDBRANCH   1  13
TORSDOF 4
ENDMDL
MODEL 6
REMARK VINA RESULT:      -6.9      1.089      1.245
REMARK  Name = 
REMARK  4 active torsions:
REMARK  status: ('A' for Active; 'I' for Inactive)
REMARK    1  A    between atoms: C_2  and  O_3
REMARK    2  A    between atoms: C_2  and  C_4
REMARK    3  A    between atoms: C_4  and  N_5
REMARK    4  A    between atoms: C_9  and  C_10
REMARK                            x       y       z     vdW  Elec       q    Type
REMARK                         _______ _______ _______ _____ _____    ______ ____
ROOT
ATOM      1  N   UNL     1       6.584   4.577  17.859  0.00  0.00    +0.000 N 
ATOM      2  N   UNL     1       7.669   5.194  18.362  0.00  0.00    +0.000 NA
ATOM      3  N   UNL     1       7.389   5.402  19.636  0.00  0.00    +0.000 NA
ATOM      4  N   UNL     1       6.121   4.979  19.929  0.00  0.00    +0.000 NA
ATOM      5  C   UNL     1       5.597   4.501  18.809  0.00  0.00    +0.000 A 
ENDROOT
BRANCH   5   6
ATOM      6  C   UNL     1       4.236   3.974  18.673  0.00  0.00    +0.000 A 
ATOM      7  C   UNL     1       3.227   4.641  17.961  0.00  0.00    +0.000 A 
ATOM      8  C   UNL     1       1.947   4.092  17.847  0.00  0.00    +0.000 A 
ATOM      9  C   UNL     1       1.656   2.890  18.474  0.00  0.00    +0.000 A 
ATOM     10  F   UNL     1       0.427   2.371  18.369  0.00  0.00    +0.000 F 
ATOM     11  C   UNL     1       2.621   2.228  19.219  0.00  0.00    +0.000 A 
ATOM     12  C   UNL     1       3.907   2.769  19.318  0.00  0.00    +0.000 A 
ENDBRANCH   5   6
BRANCH   1  13
ATOM     13  C   UNL     1       6.606   4.194  16.472  0.00  0.00    +0.000 C 
BRANCH  13  15
ATOM     14  O   UNL     1       7.072   5.302  14.408  0.00  0.00    +0.000 OA
ATOM     15  C   UNL     1       6.657   5.388  15.558  0.00  0.00    +0.000 C 
BRANCH  15  16
ATOM     16  O   UNL     1       6.243   6.566  16.072  0.00  0.00    +0.000 OA
ATOM     17  H   UNL     1       5.357   6.582  16.496  0.00  0.00    +0.000 HD
ENDBRANCH  15  16
ENDBRANCH  13  15
ENDBRANCH   1  13
TORSDOF 4
ENDMDL
MODEL 7
REMARK VINA RESULT:      -6.9      2.249      3.109
REMARK  Name = 
REMARK  4 active torsions:
REMARK  status: ('A' for Active; 'I' for Inactive)
REMARK    1  A    between atoms: C_2  and  O_3
REMARK    2  A    between atoms: C_2  and  C_4
REMARK    3  A    between atoms: C_4  and  N_5
REMARK    4  A    between atoms: C_9  and  C_10
REMARK                            x       y       z     vdW  Elec       q    Type
REMARK                         _______ _______ _______ _____ _____    ______ ____
ROOT
ATOM      1  N   UNL     1       6.321   4.769  17.572  0.00  0.00    +0.000 N 
ATOM      2  N   UNL     1       7.410   4.855  16.784  0.00  0.00    +0.000 NA
ATOM      3  N   UNL     1       7.065   4.268  15.653  0.00  0.00    +0.000 NA
ATOM      4  N   UNL     1       5.796   3.762  15.736  0.00  0.00    +0.000 NA
ATOM      5  C   UNL     1       5.342   4.035  16.951  0.00  0.00    +0.000 A 
ENDROOT
BRANCH   5   6
ATOM      6  C   UNL     1       4.030   3.639  17.469  0.00  0.00    +0.000 A 
ATOM      7  C   UNL     1       3.737   2.331  17.885  0.00  0.00    +0.000 A 
ATOM      8  C   UNL     1       2.474   2.003  18.386  0.00  0.00    +0.000 A 
ATOM      9  C   UNL     1       1.484   2.972  18.441  0.00  0.00    +0.000 A 
ATOM     10  F   UNL     1       0.274   2.652  18.914  0.00  0.00    +0.000 F 
ATOM     11  C   UNL     1       1.731   4.263  17.998  0.00  0.00    +0.000 A 
ATOM     12  C   UNL     1       3.000   4.595  17.514  0.00  0.00    +0.000 A 
ENDBRANCH   5   6
BRANCH   1  13
ATOM     13  C   UNL     1       6.388   5.356  18.885  0.00  0.00    +0.000 C 
BRANCH  13  15
ATOM     14  O   UNL     1       8.116   6.998  18.731  0.00  0.00    +0.000 OA
ATOM     15  C   UNL     1       7.751   5.918  19.182  0.00  0.00    +0.000 C 
BRANCH  15  16
ATOM     16  O   UNL     1       8.564   5.166  19.955  0.00  0.00    +0.000 OA
ATOM     17  H   UNL     1       9.049   4.434  19.515  0.00  0.00    +0.000 HD
ENDBRANCH  15  16
ENDBRANCH  13  15
ENDBRANCH   1  13
TORSDOF 4
ENDMDL
MODEL 8
REMARK VINA RESULT:      -6.9      2.390      3.222
REMARK  Name = 
REMARK  4 active torsions:
REMARK  status: ('A' for Active; 'I' for Inactive)
REMARK    1  A    between atoms: C_2  and  O_3
REMARK    2  A    between atoms: C_2  and  C_4
REMARK    3  A    between atoms: C_4  and  N_5
REMARK    4  A    between atoms: C_9  and  C_10
REMARK                            x       y       z     vdW  Elec       q    Type
REMARK                         _______ _______ _______ _____ _____    ______ ____
ROOT
ATOM      1  N   UNL     1       6.598   5.833  16.562  0.00  0.00    +0.000 N 
ATOM      2  N   UNL     1       7.471   5.856  15.537  0.00  0.00    +0.000 NA
ATOM      3  N   UNL     1       6.818   5.331  14.516  0.00  0.00    +0.000 NA
ATOM      4  N   UNL     1       5.568   4.923  14.897  0.00  0.00    +0.000 NA
ATOM      5  C   UNL     1       5.441   5.196  16.188  0.00  0.00    +0.000 A 
ENDROOT
BRANCH   5   6
ATOM      6  C   UNL     1       4.262   4.889  17.002  0.00  0.00    +0.000 A 
ATOM      7  C   UNL     1       3.744   3.592  17.135  0.00  0.00    +0.000 A 
ATOM      8  C   UNL     1       2.624   3.345  17.935  0.00  0.00    +0.000 A 
ATOM      9  C   UNL     1       1.993   4.399  18.579  0.00  0.00    +0.000 A 
ATOM     10  F   UNL     1       0.917   4.160  19.337  0.00  0.00    +0.000 F 
ATOM     11  C   UNL     1       2.459   5.698  18.432  0.00  0.00    +0.000 A 
ATOM     12  C   UNL     1       3.589   5.942  17.646  0.00  0.00    +0.000 A 
ENDBRANCH   5   6
BRANCH   1  13
ATOM     13  C   UNL     1       7.024   6.374  17.826  0.00  0.00    +0.000 C 
BRANCH  13  15
ATOM     14  O   UNL     1       8.137   4.315  18.299  0.00  0.00    +0.000 OA
ATOM     15  C   UNL     1       7.576   5.312  18.737  0.00  0.00    +0.000 C 
BRANCH  15  16
ATOM     16  O   UNL     1       7.405   5.500  20.063  0.00  0.00    +0.000 OA
ATOM     17  H   UNL     1       8.138   5.216  20.653  0.00  0.00    +0.000 HD
ENDBRANCH  15  16
ENDBRANCH  13  15
ENDBRANCH   1  13
TORSDOF 4
ENDMDL
MODEL 9
REMARK VINA RESULT:      -6.9      2.105      2.794
REMARK  Name = 
REMARK  4 active torsions:
REMARK  status: ('A' for Active; 'I' for Inactive)
REMARK    1  A    between atoms: C_2  and  O_3
REMARK    2  A    between atoms: C_2  and  C_4
REMARK    3  A    between atoms: C_4  and  N_5
REMARK    4  A    between atoms: C_9  and  C_10
REMARK                            x       y       z     vdW  Elec       q    Type
REMARK                         _______ _______ _______ _____ _____    ______ ____
ROOT
ATOM      1  N   UNL     1       6.623   4.879  16.677  0.00  0.00    +0.000 N 
ATOM      2  N   UNL     1       7.481   4.780  15.644  0.00  0.00    +0.000 NA
ATOM      3  N   UNL     1       6.748   4.368  14.625  0.00  0.00    +0.000 NA
ATOM      4  N   UNL     1       5.454   4.151  15.014  0.00  0.00    +0.000 NA
ATOM      5  C   UNL     1       5.381   4.427  16.308  0.00  0.00    +0.000 A 
ENDROOT
BRANCH   5   6
ATOM      6  C   UNL     1       4.175   4.294  17.131  0.00  0.00    +0.000 A 
ATOM      7  C   UNL     1       3.453   5.398  17.610  0.00  0.00    +0.000 A 
ATOM      8  C   UNL     1       2.300   5.222  18.381  0.00  0.00    +0.000 A 
ATOM      9  C   UNL     1       1.881   3.941  18.708  0.00  0.00    +0.000 A 
ATOM     10  F   UNL     1       0.782   3.776  19.452  0.00  0.00    +0.000 F 
ATOM     11  C   UNL     1       2.598   2.832  18.283  0.00  0.00    +0.000 A 
ATOM     12  C   UNL     1       3.742   3.008  17.498  0.00  0.00    +0.000 A 
ENDBRANCH   5   6
BRANCH   1  13
ATOM     13  C   UNL     1       7.136   5.339  17.941  0.00  0.00    +0.000 C 
BRANCH  13  15
ATOM     14  O   UNL     1       8.323   7.263  18.710  0.00  0.00    +0.000 OA
ATOM     15  C   UNL     1       7.548   6.784  17.890  0.00  0.00    +0.000 C 
BRANCH  15  16
ATOM     16  O   UNL     1       7.007   7.537  16.907  0.00  0.00    +0.000 OA
ATOM     17  H   UNL     1       6.106   7.895  17.063  0.00  0.00    +0.000 HD
ENDBRANCH  15  16
ENDBRANCH  13  15
ENDBRANCH   1  13
TORSDOF 4
ENDMDL
