MODEL 1
REMARK VINA RESULT:      -9.2      0.000      0.000
REMARK  Name = 
REMARK  9 active torsions:
REMARK  status: ('A' for Active; 'I' for Inactive)
REMARK    1  A    between atoms: C_1  and  O_2
REMARK    2  A    between atoms: O_2  and  C_3
REMARK    3  A    between atoms: C_5  and  C_6
REMARK    4  A    between atoms: C_14  and  C_15
REMARK    5  A    between atoms: C_14  and  C_24
REMARK    6  A    between atoms: C_15  and  C_16
REMARK    7  A    between atoms: C_24  and  O_26
REMARK    8  A    between atoms: C_29  and  C_30
REMARK    9  A    between atoms: C_33  and  C_34
REMARK                            x       y       z     vdW  Elec       q    Type
REMARK                         _______ _______ _______ _____ _____    ______ ____
ROOT
ATOM      1  C   UNL     1       3.134   6.991  18.994  0.00  0.00    +0.000 A 
ATOM      2  N   UNL     1       3.317   6.081  19.939  0.00  0.00    +0.000 NA
ATOM      3  N   UNL     1       4.353   5.269  19.590  0.00  0.00    +0.000 NA
ATOM      4  C   UNL     1       4.807   5.680  18.427  0.00  0.00    +0.000 A 
ATOM      5  N   UNL     1       4.049   6.740  18.000  0.00  0.00    +0.000 N 
ATOM      6  C   UNL     1       4.225   7.401  16.730  0.00  0.00    +0.000 C 
ATOM      7  C   UNL     1       5.059   6.577  15.749  0.00  0.00    +0.000 C 
ATOM      8  C   UNL     1       6.280   5.957  16.438  0.00  0.00    +0.000 C 
ATOM      9  C   UNL     1       5.911   5.032  17.628  0.00  0.00    +0.000 C 
ENDROOT
BRANCH   1  12
ATOM     10  C   UNL     1       0.817   9.527  20.525  0.00  0.00    +0.000 A 
ATOM     11  C   UNL     1       1.643   8.408  20.334  0.00  0.00    +0.000 A 
ATOM     12  C   UNL     1       2.118   8.043  19.067  0.00  0.00    +0.000 A 
ATOM     13  C   UNL     1       1.681   8.776  17.966  0.00  0.00    +0.000 A 
ATOM     14  C   UNL     1       0.808   9.857  18.138  0.00  0.00    +0.000 A 
ATOM     15  C   UNL     1       0.376  10.270  19.414  0.00  0.00    +0.000 A 
BRANCH  15  16
ATOM     16  C   UNL     1      -0.444  11.476  19.531  0.00  0.00    +0.000 A 
ATOM     17  C   UNL     1      -0.262  12.838  19.406  0.00  0.00    +0.000 A 
ATOM     18  N   UNL     1      -1.449  13.508  19.594  0.00  0.00    +0.000 NA
ATOM     19  C   UNL     1      -2.312  12.544  19.829  0.00  0.00    +0.000 A 
ATOM     20  C   UNL     1      -3.759  12.635  20.103  0.00  0.00    +0.000 C 
ATOM     21  O   UNL     1      -1.779  11.288  19.810  0.00  0.00    +0.000 OA
ENDBRANCH  15  16
BRANCH  10  23
ATOM     22  C   UNL     1      -0.453   8.995  22.446  0.00  0.00    +0.000 C 
ATOM     23  O   UNL     1       0.417   9.914  21.781  0.00  0.00    +0.000 OA
ENDBRANCH  10  23
ENDBRANCH   1  12
BRANCH   9  24
ATOM     24  C   UNL     1       7.139   4.861  18.532  0.00  0.00    +0.000 C 
ATOM     25  O   UNL     1       8.158   4.268  18.184  0.00  0.00    +0.000 OA
BRANCH  24  26
ATOM     26  O   UNL     1       7.029   5.350  19.794  0.00  0.00    +0.000 OA
ATOM     27  H   UNL     1       7.351   4.741  20.501  0.00  0.00    +0.000 HD
ENDBRANCH  24  26
ENDBRANCH   9  24
BRANCH   9  28
ATOM     28  C   UNL     1       5.402   3.628  17.199  0.00  0.00    +0.000 C 
BRANCH  28  29
ATOM     29  C   UNL     1       3.996   3.213  17.570  0.00  0.00    +0.000 A 
ATOM     30  C   UNL     1       3.776   2.188  18.509  0.00  0.00    +0.000 A 
ATOM     31  C   UNL     1       2.487   1.898  18.962  0.00  0.00    +0.000 A 
ATOM     32  C   UNL     1       1.408   2.628  18.477  0.00  0.00    +0.000 A 
ATOM     33  F   UNL     1       0.179   2.382  18.949  0.00  0.00    +0.000 F 
ATOM     34  C   UNL     1       1.608   3.618  17.524  0.00  0.00    +0.000 A 
ATOM     35  F   UNL     1       0.569   4.327  17.059  0.00  0.00    +0.000 F 
ATOM     36  C   UNL     1       2.890   3.910  17.063  0.00  0.00    +0.000 A 
ENDBRANCH  28  29
ENDBRANCH   9  28
TORSDOF 7
ENDMDL
MODEL 2
REMARK VINA RESULT:      -9.2      2.929      4.357
REMARK  Name = 
REMARK  9 active torsions:
REMARK  status: ('A' for Active; 'I' for Inactive)
REMARK    1  A    between atoms: C_1  and  O_2
REMARK    2  A    between atoms: O_2  and  C_3
REMARK    3  A    between atoms: C_5  and  C_6
REMARK    4  A    between atoms: C_14  and  C_15
REMARK    5  A    between atoms: C_14  and  C_24
REMARK    6  A    between atoms: C_15  and  C_16
REMARK    7  A    between atoms: C_24  and  O_26
REMARK    8  A    between atoms: C_29  and  C_30
REMARK    9  A    between atoms: C_33  and  C_34
REMARK                            x       y       z     vdW  Elec       q    Type
REMARK                         _______ _______ _______ _____ _____    ______ ____
ROOT
ATOM      1  C   UNL     1       2.119   7.084  19.522  0.00  0.00    +0.000 A 
ATOM      2  N   UNL     1       2.663   7.107  18.314  0.00  0.00    +0.000 NA
ATOM      3  N   UNL     1       3.018   5.843  17.954  0.00  0.00    +0.000 NA
ATOM      4  C   UNL     1       2.694   5.042  18.944  0.00  0.00    +0.000 A 
ATOM      5  N   UNL     1       2.156   5.784  19.964  0.00  0.00    +0.000 N 
ATOM      6  C   UNL     1       1.748   5.237  21.236  0.00  0.00    +0.000 C 
ATOM      7  C   UNL     1       2.325   3.844  21.488  0.00  0.00    +0.000 C 
ATOM      8  C   UNL     1       2.227   2.964  20.237  0.00  0.00    +0.000 C 
ATOM      9  C   UNL     1       2.965   3.558  19.008  0.00  0.00    +0.000 C 
ENDROOT
BRANCH   1  12
ATOM     10  C   UNL     1       0.438  10.421  19.949  0.00  0.00    +0.000 A 
ATOM     11  C   UNL     1       1.128   9.327  19.404  0.00  0.00    +0.000 A 
ATOM     12  C   UNL     1       1.597   8.272  20.200  0.00  0.00    +0.000 A 
ATOM     13  C   UNL     1       1.436   8.370  21.580  0.00  0.00    +0.000 A 
ATOM     14  C   UNL     1       0.804   9.487  22.141  0.00  0.00    +0.000 A 
ATOM     15  C   UNL     1       0.273  10.520  21.344  0.00  0.00    +0.000 A 
BRANCH  15  16
ATOM     16  C   UNL     1      -0.476  11.601  21.986  0.00  0.00    +0.000 A 
ATOM     17  C   UNL     1      -0.356  12.968  22.126  0.00  0.00    +0.000 A 
ATOM     18  N   UNL     1      -1.424  13.481  22.826  0.00  0.00    +0.000 NA
ATOM     19  C   UNL     1      -2.156  12.421  23.093  0.00  0.00    +0.000 A 
ATOM     20  C   UNL     1      -3.436  12.331  23.820  0.00  0.00    +0.000 C 
ATOM     21  O   UNL     1      -1.646  11.247  22.619  0.00  0.00    +0.000 OA
ENDBRANCH  15  16
BRANCH  10  23
ATOM     22  C   UNL     1      -1.243  11.044  18.408  0.00  0.00    +0.000 C 
ATOM     23  O   UNL     1      -0.077  11.412  19.149  0.00  0.00    +0.000 OA
ENDBRANCH  10  23
ENDBRANCH   1  12
BRANCH   9  24
ATOM     24  C   UNL     1       2.424   2.903  17.730  0.00  0.00    +0.000 C 
ATOM     25  O   UNL     1       2.817   1.817  17.308  0.00  0.00    +0.000 OA
BRANCH  24  26
ATOM     26  O   UNL     1       1.511   3.621  17.026  0.00  0.00    +0.000 OA
ATOM     27  H   UNL     1       1.747   3.772  16.081  0.00  0.00    +0.000 HD
ENDBRANCH  24  26
ENDBRANCH   9  24
BRANCH   9  28
ATOM     28  C   UNL     1       4.508   3.376  19.053  0.00  0.00    +0.000 C 
BRANCH  28  29
ATOM     29  C   UNL     1       5.389   4.435  18.428  0.00  0.00    +0.000 A 
ATOM     30  C   UNL     1       6.089   5.351  19.237  0.00  0.00    +0.000 A 
ATOM     31  C   UNL     1       7.014   6.236  18.677  0.00  0.00    +0.000 A 
ATOM     32  C   UNL     1       7.243   6.214  17.306  0.00  0.00    +0.000 A 
ATOM     33  F   UNL     1       8.166   7.030  16.779  0.00  0.00    +0.000 F 
ATOM     34  C   UNL     1       6.533   5.339  16.494  0.00  0.00    +0.000 A 
ATOM     35  F   UNL     1       6.757   5.313  15.173  0.00  0.00    +0.000 F 
ATOM     36  C   UNL     1       5.605   4.457  17.043  0.00  0.00    +0.000 A 
ENDBRANCH  28  29
ENDBRANCH   9  28
TORSDOF 7
ENDMDL
MODEL 3
REMARK VINA RESULT:      -9.2      2.962      4.388
REMARK  Name = 
REMARK  9 active torsions:
REMARK  status: ('A' for Active; 'I' for Inactive)
REMARK    1  A    between atoms: C_1  and  O_2
REMARK    2  A    between atoms: O_2  and  C_3
REMARK    3  A    between atoms: C_5  and  C_6
REMARK    4  A    between atoms: C_14  and  C_15
REMARK    5  A    between atoms: C_14  and  C_24
REMARK    6  A    between atoms: C_15  and  C_16
REMARK    7  A    between atoms: C_24  and  O_26
REMARK    8  A    between atoms: C_29  and  C_30
REMARK    9  A    between atoms: C_33  and  C_34
REMARK                            x       y       z     vdW  Elec       q    Type
REMARK                         _______ _______ _______ _____ _____    ______ ____
ROOT
ATOM      1  C   UNL     1       2.199   7.101  19.550  0.00  0.00    +0.000 A 
ATOM      2  N   UNL     1       2.848   7.130  18.395  0.00  0.00    +0.000 NA
ATOM      3  N   UNL     1       3.192   5.861  18.037  0.00  0.00    +0.000 NA
ATOM      4  C   UNL     1       2.755   5.052  18.976  0.00  0.00    +0.000 A 
ATOM      5  N   UNL     1       2.153   5.791  19.961  0.00  0.00    +0.000 N 
ATOM      6  C   UNL     1       1.615   5.233  21.179  0.00  0.00    +0.000 C 
ATOM      7  C   UNL     1       2.120   3.816  21.448  0.00  0.00    +0.000 C 
ATOM      8  C   UNL     1       2.105   2.966  20.172  0.00  0.00    +0.000 C 
ATOM      9  C   UNL     1       2.969   3.559  19.028  0.00  0.00    +0.000 C 
ENDROOT
BRANCH   1  12
ATOM     10  C   UNL     1       0.457  10.413  19.920  0.00  0.00    +0.000 A 
ATOM     11  C   UNL     1       1.165   9.322  19.392  0.00  0.00    +0.000 A 
ATOM     12  C   UNL     1       1.659   8.293  20.206  0.00  0.00    +0.000 A 
ATOM     13  C   UNL     1       1.505   8.415  21.585  0.00  0.00    +0.000 A 
ATOM     14  C   UNL     1       0.854   9.531  22.128  0.00  0.00    +0.000 A 
ATOM     15  C   UNL     1       0.299  10.538  21.314  0.00  0.00    +0.000 A 
BRANCH  15  16
ATOM     16  C   UNL     1      -0.466  11.617  21.940  0.00  0.00    +0.000 A 
ATOM     17  C   UNL     1      -0.372  12.989  22.050  0.00  0.00    +0.000 A 
ATOM     18  N   UNL     1      -1.445  13.496  22.747  0.00  0.00    +0.000 NA
ATOM     19  C   UNL     1      -2.154  12.427  23.041  0.00  0.00    +0.000 A 
ATOM     20  C   UNL     1      -3.427  12.328  23.781  0.00  0.00    +0.000 C 
ATOM     21  O   UNL     1      -1.624  11.254  22.588  0.00  0.00    +0.000 OA
ENDBRANCH  15  16
BRANCH  10  23
ATOM     22  C   UNL     1      -1.195  10.950  18.317  0.00  0.00    +0.000 C 
ATOM     23  O   UNL     1      -0.082  11.379  19.104  0.00  0.00    +0.000 OA
ENDBRANCH  10  23
ENDBRANCH   1  12
BRANCH   9  24
ATOM     24  C   UNL     1       2.522   2.950  17.692  0.00  0.00    +0.000 C 
ATOM     25  O   UNL     1       2.887   1.844  17.296  0.00  0.00    +0.000 OA
BRANCH  24  26
ATOM     26  O   UNL     1       1.734   3.731  16.908  0.00  0.00    +0.000 OA
ATOM     27  H   UNL     1       2.117   3.947  16.025  0.00  0.00    +0.000 HD
ENDBRANCH  24  26
ENDBRANCH   9  24
BRANCH   9  28
ATOM     28  C   UNL     1       4.494   3.321  19.204  0.00  0.00    +0.000 C 
BRANCH  28  29
ATOM     29  C   UNL     1       5.465   4.177  18.421  0.00  0.00    +0.000 A 
ATOM     30  C   UNL     1       5.464   4.154  17.013  0.00  0.00    +0.000 A 
ATOM     31  C   UNL     1       6.256   5.046  16.284  0.00  0.00    +0.000 A 
ATOM     32  C   UNL     1       7.056   5.962  16.957  0.00  0.00    +0.000 A 
ATOM     33  F   UNL     1       7.776   6.849  16.256  0.00  0.00    +0.000 F 
ATOM     34  C   UNL     1       7.091   5.971  18.345  0.00  0.00    +0.000 A 
ATOM     35  F   UNL     1       7.857   6.859  18.995  0.00  0.00    +0.000 F 
ATOM     36  C   UNL     1       6.308   5.083  19.080  0.00  0.00    +0.000 A 
ENDBRANCH  28  29
ENDBRANCH   9  28
TORSDOF 7
ENDMDL
MODEL 4
REMARK VINA RESULT:      -9.2      2.882      4.287
REMARK  Name = 
REMARK  9 active torsions:
REMARK  status: ('A' for Active; 'I' for Inactive)
REMARK    1  A    between atoms: C_1  and  O_2
REMARK    2  A    between atoms: O_2  and  C_3
REMARK    3  A    between atoms: C_5  and  C_6
REMARK    4  A    between atoms: C_14  and  C_15
REMARK    5  A    between atoms: C_14  and  C_24
REMARK    6  A    between atoms: C_15  and  C_16
REMARK    7  A    between atoms: C_24  and  O_26
REMARK    8  A    between atoms: C_29  and  C_30
REMARK    9  A    between atoms: C_33  and  C_34
REMARK                            x       y       z     vdW  Elec       q    Type
REMARK                         _______ _______ _______ _____ _____    ______ ____
ROOT
ATOM      1  C   UNL     1       2.049   7.200  19.472  0.00  0.00    +0.000 A 
ATOM      2  N   UNL     1       2.550   7.233  18.246  0.00  0.00    +0.000 NA
ATOM      3  N   UNL     1       2.914   5.975  17.872  0.00  0.00    +0.000 NA
ATOM      4  C   UNL     1       2.638   5.168  18.872  0.00  0.00    +0.000 A 
ATOM      5  N   UNL     1       2.123   5.900  19.910  0.00  0.00    +0.000 N 
ATOM      6  C   UNL     1       1.767   5.346  21.194  0.00  0.00    +0.000 C 
ATOM      7  C   UNL     1       2.375   3.963  21.425  0.00  0.00    +0.000 C 
ATOM      8  C   UNL     1       2.250   3.082  20.177  0.00  0.00    +0.000 C 
ATOM      9  C   UNL     1       2.935   3.689  18.925  0.00  0.00    +0.000 C 
ENDROOT
BRANCH   1  12
ATOM     10  C   UNL     1       0.368  10.529  19.953  0.00  0.00    +0.000 A 
ATOM     11  C   UNL     1       1.055   9.444  19.389  0.00  0.00    +0.000 A 
ATOM     12  C   UNL     1       1.531   8.379  20.168  0.00  0.00    +0.000 A 
ATOM     13  C   UNL     1       1.379   8.459  21.550  0.00  0.00    +0.000 A 
ATOM     14  C   UNL     1       0.750   9.568  22.130  0.00  0.00    +0.000 A 
ATOM     15  C   UNL     1       0.212  10.611  21.350  0.00  0.00    +0.000 A 
BRANCH  15  16
ATOM     16  C   UNL     1      -0.533  11.683  22.012  0.00  0.00    +0.000 A 
ATOM     17  C   UNL     1      -0.409  13.047  22.176  0.00  0.00    +0.000 A 
ATOM     18  N   UNL     1      -1.475  13.551  22.885  0.00  0.00    +0.000 NA
ATOM     19  C   UNL     1      -2.210  12.488  23.132  0.00  0.00    +0.000 A 
ATOM     20  C   UNL     1      -3.491  12.390  23.858  0.00  0.00    +0.000 C 
ATOM     21  O   UNL     1      -1.704  11.322  22.637  0.00  0.00    +0.000 OA
ENDBRANCH  15  16
BRANCH  10  23
ATOM     22  C   UNL     1      -1.352  11.187  18.471  0.00  0.00    +0.000 C 
ATOM     23  O   UNL     1      -0.154  11.531  19.170  0.00  0.00    +0.000 OA
ENDBRANCH  10  23
ENDBRANCH   1  12
BRANCH   9  24
ATOM     24  C   UNL     1       2.362   3.026  17.665  0.00  0.00    +0.000 C 
ATOM     25  O   UNL     1       1.734   3.639  16.803  0.00  0.00    +0.000 OA
BRANCH  24  26
ATOM     26  O   UNL     1       2.524   1.681  17.566  0.00  0.00    +0.000 OA
ATOM     27  H   UNL     1       3.078   1.280  18.277  0.00  0.00    +0.000 HD
ENDBRANCH  24  26
ENDBRANCH   9  24
BRANCH   9  28
ATOM     28  C   UNL     1       4.481   3.533  18.916  0.00  0.00    +0.000 C 
BRANCH  28  29
ATOM     29  C   UNL     1       5.271   4.112  17.763  0.00  0.00    +0.000 A 
ATOM     30  C   UNL     1       6.219   5.128  17.984  0.00  0.00    +0.000 A 
ATOM     31  C   UNL     1       7.051   5.566  16.951  0.00  0.00    +0.000 A 
ATOM     32  C   UNL     1       6.939   4.993  15.689  0.00  0.00    +0.000 A 
ATOM     33  F   UNL     1       7.772   5.380  14.713  0.00  0.00    +0.000 F 
ATOM     34  C   UNL     1       5.984   4.014  15.450  0.00  0.00    +0.000 A 
ATOM     35  F   UNL     1       5.878   3.457  14.235  0.00  0.00    +0.000 F 
ATOM     36  C   UNL     1       5.146   3.576  16.473  0.00  0.00    +0.000 A 
ENDBRANCH  28  29
ENDBRANCH   9  28
TORSDOF 7
ENDMDL
MODEL 5
REMARK VINA RESULT:      -9.2      2.981      4.469
REMARK  Name = 
REMARK  9 active torsions:
REMARK  status: ('A' for Active; 'I' for Inactive)
REMARK    1  A    between atoms: C_1  and  O_2
REMARK    2  A    between atoms: O_2  and  C_3
REMARK    3  A    between atoms: C_5  and  C_6
REMARK    4  A    between atoms: C_14  and  C_15
REMARK    5  A    between atoms: C_14  and  C_24
REMARK    6  A    between atoms: C_15  and  C_16
REMARK    7  A    between atoms: C_24  and  O_26
REMARK    8  A    between atoms: C_29  and  C_30
REMARK    9  A    between atoms: C_33  and  C_34
REMARK                            x       y       z     vdW  Elec       q    Type
REMARK                         _______ _______ _______ _____ _____    ______ ____
ROOT
ATOM      1  C   UNL     1       2.074   7.076  19.608  0.00  0.00    +0.000 A 
ATOM      2  N   UNL     1       2.614   7.141  18.400  0.00  0.00    +0.000 NA
ATOM      3  N   UNL     1       2.979   5.891  18.000  0.00  0.00    +0.000 NA
ATOM      4  C   UNL     1       2.664   5.057  18.966  0.00  0.00    +0.000 A 
ATOM      5  N   UNL     1       2.123   5.763  20.009  0.00  0.00    +0.000 N 
ATOM      6  C   UNL     1       1.722   5.174  21.264  0.00  0.00    +0.000 C 
ATOM      7  C   UNL     1       2.311   3.779  21.472  0.00  0.00    +0.000 C 
ATOM      8  C   UNL     1       2.217   2.937  20.195  0.00  0.00    +0.000 C 
ATOM      9  C   UNL     1       2.947   3.574  18.983  0.00  0.00    +0.000 C 
ENDROOT
BRANCH   1  12
ATOM     10  C   UNL     1       0.430  10.417  20.134  0.00  0.00    +0.000 A 
ATOM     11  C   UNL     1       1.124   9.339  19.562  0.00  0.00    +0.000 A 
ATOM     12  C   UNL     1       1.544   8.239  20.322  0.00  0.00    +0.000 A 
ATOM     13  C   UNL     1       1.329   8.271  21.698  0.00  0.00    +0.000 A 
ATOM     14  C   UNL     1       0.692   9.370  22.289  0.00  0.00    +0.000 A 
ATOM     15  C   UNL     1       0.211  10.451  21.524  0.00  0.00    +0.000 A 
BRANCH  15  16
ATOM     16  C   UNL     1      -0.546  11.512  22.190  0.00  0.00    +0.000 A 
ATOM     17  C   UNL     1      -1.708  11.614  22.927  0.00  0.00    +0.000 A 
ATOM     18  N   UNL     1      -1.906  12.909  23.347  0.00  0.00    +0.000 NA
ATOM     19  C   UNL     1      -0.870  13.554  22.855  0.00  0.00    +0.000 A 
ATOM     20  C   UNL     1      -0.521  14.983  22.973  0.00  0.00    +0.000 C 
ATOM     21  O   UNL     1      -0.005  12.776  22.142  0.00  0.00    +0.000 OA
ENDBRANCH  15  16
BRANCH  10  23
ATOM     22  C   UNL     1       0.977  12.274  18.777  0.00  0.00    +0.000 C 
ATOM     23  O   UNL     1      -0.037  11.456  19.365  0.00  0.00    +0.000 OA
ENDBRANCH  10  23
ENDBRANCH   1  12
BRANCH   9  24
ATOM     24  C   UNL     1       2.408   2.954  17.687  0.00  0.00    +0.000 C 
ATOM     25  O   UNL     1       2.777   1.865  17.253  0.00  0.00    +0.000 OA
BRANCH  24  26
ATOM     26  O   UNL     1       1.527   3.708  16.980  0.00  0.00    +0.000 OA
ATOM     27  H   UNL     1       0.580   3.564  17.216  0.00  0.00    +0.000 HD
ENDBRANCH  24  26
ENDBRANCH   9  24
BRANCH   9  28
ATOM     28  C   UNL     1       4.491   3.404  19.019  0.00  0.00    +0.000 C 
BRANCH  28  29
ATOM     29  C   UNL     1       5.361   4.458  18.370  0.00  0.00    +0.000 A 
ATOM     30  C   UNL     1       6.087   5.370  19.159  0.00  0.00    +0.000 A 
ATOM     31  C   UNL     1       7.001   6.251  18.574  0.00  0.00    +0.000 A 
ATOM     32  C   UNL     1       7.191   6.229  17.198  0.00  0.00    +0.000 A 
ATOM     33  F   UNL     1       8.104   7.039  16.645  0.00  0.00    +0.000 F 
ATOM     34  C   UNL     1       6.455   5.358  16.405  0.00  0.00    +0.000 A 
ATOM     35  F   UNL     1       6.642   5.331  15.078  0.00  0.00    +0.000 F 
ATOM     36  C   UNL     1       5.538   4.480  16.980  0.00  0.00    +0.000 A 
ENDBRANCH  28  29
ENDBRANCH   9  28
TORSDOF 7
ENDMDL
MODEL 6
REMARK VINA RESULT:      -9.1      2.931      4.290
REMARK  Name = 
REMARK  9 active torsions:
REMARK  status: ('A' for Active; 'I' for Inactive)
REMARK    1  A    between atoms: C_1  and  O_2
REMARK    2  A    between atoms: O_2  and  C_3
REMARK    3  A    between atoms: C_5  and  C_6
REMARK    4  A    between atoms: C_14  and  C_15
REMARK    5  A    between atoms: C_14  and  C_24
REMARK    6  A    between atoms: C_15  and  C_16
REMARK    7  A    between atoms: C_24  and  O_26
REMARK    8  A    between atoms: C_29  and  C_30
REMARK    9  A    between atoms: C_33  and  C_34
REMARK                            x       y       z     vdW  Elec       q    Type
REMARK                         _______ _______ _______ _____ _____    ______ ____
ROOT
ATOM      1  C   UNL     1       2.241   7.196  19.020  0.00  0.00    +0.000 A 
ATOM      2  N   UNL     1       2.939   7.077  17.900  0.00  0.00    +0.000 NA
ATOM      3  N   UNL     1       3.337   5.783  17.752  0.00  0.00    +0.000 NA
ATOM      4  C   UNL     1       2.884   5.107  18.784  0.00  0.00    +0.000 A 
ATOM      5  N   UNL     1       2.218   5.962  19.623  0.00  0.00    +0.000 N 
ATOM      6  C   UNL     1       1.645   5.573  20.889  0.00  0.00    +0.000 C 
ATOM      7  C   UNL     1       2.181   4.231  21.388  0.00  0.00    +0.000 C 
ATOM      8  C   UNL     1       2.248   3.200  20.255  0.00  0.00    +0.000 C 
ATOM      9  C   UNL     1       3.142   3.647  19.069  0.00  0.00    +0.000 C 
ENDROOT
BRANCH   1  12
ATOM     10  C   UNL     1       1.026   9.853  21.388  0.00  0.00    +0.000 A 
ATOM     11  C   UNL     1       1.419   8.621  20.843  0.00  0.00    +0.000 A 
ATOM     12  C   UNL     1       1.636   8.452  19.468  0.00  0.00    +0.000 A 
ATOM     13  C   UNL     1       1.369   9.528  18.625  0.00  0.00    +0.000 A 
ATOM     14  C   UNL     1       0.917  10.744  19.151  0.00  0.00    +0.000 A 
ATOM     15  C   UNL     1       0.757  10.942  20.537  0.00  0.00    +0.000 A 
BRANCH  15  16
ATOM     16  C   UNL     1       0.391  12.271  21.029  0.00  0.00    +0.000 A 
ATOM     17  C   UNL     1      -0.765  12.932  21.387  0.00  0.00    +0.000 A 
ATOM     18  N   UNL     1      -0.481  14.203  21.832  0.00  0.00    +0.000 NA
ATOM     19  C   UNL     1       0.828  14.280  21.730  0.00  0.00    +0.000 A 
ATOM     20  C   UNL     1       1.724  15.404  22.064  0.00  0.00    +0.000 C 
ATOM     21  O   UNL     1       1.426  13.151  21.250  0.00  0.00    +0.000 OA
ENDBRANCH  15  16
BRANCH  10  23
ATOM     22  C   UNL     1      -0.331   9.511  23.293  0.00  0.00    +0.000 C 
ATOM     23  O   UNL     1       0.886  10.022  22.745  0.00  0.00    +0.000 OA
ENDBRANCH  10  23
ENDBRANCH   1  12
BRANCH   9  24
ATOM     24  C   UNL     1       2.773   2.829  17.824  0.00  0.00    +0.000 C 
ATOM     25  O   UNL     1       3.210   1.702  17.601  0.00  0.00    +0.000 OA
BRANCH  24  26
ATOM     26  O   UNL     1       1.971   3.443  16.917  0.00  0.00    +0.000 OA
ATOM     27  H   UNL     1       1.377   2.836  16.415  0.00  0.00    +0.000 HD
ENDBRANCH  24  26
ENDBRANCH   9  24
BRANCH   9  28
ATOM     28  C   UNL     1       4.665   3.496  19.337  0.00  0.00    +0.000 C 
BRANCH  28  29
ATOM     29  C   UNL     1       5.640   4.305  18.511  0.00  0.00    +0.000 A 
ATOM     30  C   UNL     1       5.683   4.160  17.111  0.00  0.00    +0.000 A 
ATOM     31  C   UNL     1       6.477   5.004  16.330  0.00  0.00    +0.000 A 
ATOM     32  C   UNL     1       7.234   5.996  16.943  0.00  0.00    +0.000 A 
ATOM     33  F   UNL     1       7.955   6.837  16.188  0.00  0.00    +0.000 F 
ATOM     34  C   UNL     1       7.226   6.127  18.325  0.00  0.00    +0.000 A 
ATOM     35  F   UNL     1       7.950   7.087  18.917  0.00  0.00    +0.000 F 
ATOM     36  C   UNL     1       6.441   5.286  19.112  0.00  0.00    +0.000 A 
ENDBRANCH  28  29
ENDBRANCH   9  28
TORSDOF 7
ENDMDL
MODEL 7
REMARK VINA RESULT:      -8.9      2.896      4.215
REMARK  Name = 
REMARK  9 active torsions:
REMARK  status: ('A' for Active; 'I' for Inactive)
REMARK    1  A    between atoms: C_1  and  O_2
REMARK    2  A    between atoms: O_2  and  C_3
REMARK    3  A    between atoms: C_5  and  C_6
REMARK    4  A    between atoms: C_14  and  C_15
REMARK    5  A    between atoms: C_14  and  C_24
REMARK    6  A    between atoms: C_15  and  C_16
REMARK    7  A    between atoms: C_24  and  O_26
REMARK    8  A    between atoms: C_29  and  C_30
REMARK    9  A    between atoms: C_33  and  C_34
REMARK                            x       y       z     vdW  Elec       q    Type
REMARK                         _______ _______ _______ _____ _____    ______ ____
ROOT
ATOM      1  C   UNL     1       2.050   7.446  18.982  0.00  0.00    +0.000 A 
ATOM      2  N   UNL     1       2.577   7.300  17.776  0.00  0.00    +0.000 NA
ATOM      3  N   UNL     1       2.948   6.001  17.599  0.00  0.00    +0.000 NA
ATOM      4  C   UNL     1       2.651   5.350  18.702  0.00  0.00    +0.000 A 
ATOM      5  N   UNL     1       2.114   6.226  19.609  0.00  0.00    +0.000 N 
ATOM      6  C   UNL     1       1.732   5.866  20.954  0.00  0.00    +0.000 C 
ATOM      7  C   UNL     1       2.335   4.534  21.399  0.00  0.00    +0.000 C 
ATOM      8  C   UNL     1       2.235   3.478  20.292  0.00  0.00    +0.000 C 
ATOM      9  C   UNL     1       2.947   3.896  18.978  0.00  0.00    +0.000 C 
ENDROOT
BRANCH   1  12
ATOM     10  C   UNL     1       0.945  10.044  21.467  0.00  0.00    +0.000 A 
ATOM     11  C   UNL     1       1.271   8.820  20.862  0.00  0.00    +0.000 A 
ATOM     12  C   UNL     1       1.518   8.714  19.486  0.00  0.00    +0.000 A 
ATOM     13  C   UNL     1       1.350   9.851  18.700  0.00  0.00    +0.000 A 
ATOM     14  C   UNL     1       0.965  11.065  19.284  0.00  0.00    +0.000 A 
ATOM     15  C   UNL     1       0.777  11.195  20.674  0.00  0.00    +0.000 A 
BRANCH  15  16
ATOM     16  C   UNL     1       0.486  12.516  21.232  0.00  0.00    +0.000 A 
ATOM     17  C   UNL     1      -0.604  13.169  21.767  0.00  0.00    +0.000 A 
ATOM     18  N   UNL     1      -0.259  14.436  22.181  0.00  0.00    +0.000 NA
ATOM     19  C   UNL     1       1.020  14.518  21.886  0.00  0.00    +0.000 A 
ATOM     20  C   UNL     1       1.955  15.640  22.097  0.00  0.00    +0.000 C 
ATOM     21  O   UNL     1       1.541  13.397  21.308  0.00  0.00    +0.000 OA
ENDBRANCH  15  16
BRANCH  10  23
ATOM     22  C   UNL     1      -0.455   9.609  23.322  0.00  0.00    +0.000 C 
ATOM     23  O   UNL     1       0.774  10.146  22.827  0.00  0.00    +0.000 OA
ENDBRANCH  10  23
ENDBRANCH   1  12
BRANCH   9  24
ATOM     24  C   UNL     1       2.399   3.052  17.819  0.00  0.00    +0.000 C 
ATOM     25  O   UNL     1       2.729   1.885  17.617  0.00  0.00    +0.000 OA
BRANCH  24  26
ATOM     26  O   UNL     1       1.560   3.684  16.959  0.00  0.00    +0.000 OA
ATOM     27  H   UNL     1       2.002   4.311  16.338  0.00  0.00    +0.000 HD
ENDBRANCH  24  26
ENDBRANCH   9  24
BRANCH   9  28
ATOM     28  C   UNL     1       4.493   3.744  19.024  0.00  0.00    +0.000 C 
BRANCH  28  29
ATOM     29  C   UNL     1       5.315   4.255  17.862  0.00  0.00    +0.000 A 
ATOM     30  C   UNL     1       6.270   5.271  18.054  0.00  0.00    +0.000 A 
ATOM     31  C   UNL     1       7.131   5.646  17.019  0.00  0.00    +0.000 A 
ATOM     32  C   UNL     1       7.040   5.011  15.785  0.00  0.00    +0.000 A 
ATOM     33  F   UNL     1       7.899   5.338  14.810  0.00  0.00    +0.000 F 
ATOM     34  C   UNL     1       6.078   4.032  15.574  0.00  0.00    +0.000 A 
ATOM     35  F   UNL     1       5.993   3.415  14.387  0.00  0.00    +0.000 F 
ATOM     36  C   UNL     1       5.212   3.655  16.599  0.00  0.00    +0.000 A 
ENDBRANCH  28  29
ENDBRANCH   9  28
TORSDOF 7
ENDMDL
MODEL 8
REMARK VINA RESULT:      -8.9      3.622      9.721
REMARK  Name = 
REMARK  9 active torsions:
REMARK  status: ('A' for Active; 'I' for Inactive)
REMARK    1  A    between atoms: C_1  and  O_2
REMARK    2  A    between atoms: O_2  and  C_3
REMARK    3  A    between atoms: C_5  and  C_6
REMARK    4  A    between atoms: C_14  and  C_15
REMARK    5  A    between atoms: C_14  and  C_24
REMARK    6  A    between atoms: C_15  and  C_16
REMARK    7  A    between atoms: C_24  and  O_26
REMARK    8  A    between atoms: C_29  and  C_30
REMARK    9  A    between atoms: C_33  and  C_34
REMARK                            x       y       z     vdW  Elec       q    Type
REMARK                         _______ _______ _______ _____ _____    ______ ____
ROOT
ATOM      1  C   UNL     1       0.676   9.856  20.647  0.00  0.00    +0.000 A 
ATOM      2  N   UNL     1       0.812  10.121  21.938  0.00  0.00    +0.000 NA
ATOM      3  N   UNL     1      -0.074  11.092  22.296  0.00  0.00    +0.000 NA
ATOM      4  C   UNL     1      -0.753  11.426  21.221  0.00  0.00    +0.000 A 
ATOM      5  N   UNL     1      -0.292  10.697  20.155  0.00  0.00    +0.000 N 
ATOM      6  C   UNL     1      -0.768  10.853  18.801  0.00  0.00    +0.000 C 
ATOM      7  C   UNL     1      -1.539  12.157  18.596  0.00  0.00    +0.000 C 
ATOM      8  C   UNL     1      -2.505  12.423  19.757  0.00  0.00    +0.000 C 
ATOM      9  C   UNL     1      -1.799  12.511  21.135  0.00  0.00    +0.000 C 
ENDROOT
BRANCH   1  12
ATOM     10  C   UNL     1       2.257   6.518  19.941  0.00  0.00    +0.000 A 
ATOM     11  C   UNL     1       1.690   7.621  20.598  0.00  0.00    +0.000 A 
ATOM     12  C   UNL     1       1.456   8.838  19.942  0.00  0.00    +0.000 A 
ATOM     13  C   UNL     1       1.882   8.963  18.622  0.00  0.00    +0.000 A 
ATOM     14  C   UNL     1       2.505   7.889  17.974  0.00  0.00    +0.000 A 
ATOM     15  C   UNL     1       2.686   6.642  18.606  0.00  0.00    +0.000 A 
BRANCH  15  16
ATOM     16  C   UNL     1       3.240   5.528  17.836  0.00  0.00    +0.000 A 
ATOM     17  C   UNL     1       2.857   4.248  17.492  0.00  0.00    +0.000 A 
ATOM     18  N   UNL     1       3.801   3.658  16.683  0.00  0.00    +0.000 NA
ATOM     19  C   UNL     1       4.725   4.586  16.560  0.00  0.00    +0.000 A 
ATOM     20  C   UNL     1       5.991   4.546  15.803  0.00  0.00    +0.000 C 
ATOM     21  O   UNL     1       4.457   5.744  17.230  0.00  0.00    +0.000 OA
ENDBRANCH  15  16
BRANCH  10  23
ATOM     22  C   UNL     1       1.225   4.524  20.684  0.00  0.00    +0.000 C 
ATOM     23  O   UNL     1       2.415   5.310  20.577  0.00  0.00    +0.000 OA
ENDBRANCH  10  23
ENDBRANCH   1  12
BRANCH   9  24
ATOM     24  C   UNL     1      -2.834  12.287  22.246  0.00  0.00    +0.000 C 
ATOM     25  O   UNL     1      -4.047  12.257  22.045  0.00  0.00    +0.000 OA
BRANCH  24  26
ATOM     26  O   UNL     1      -2.348  12.184  23.510  0.00  0.00    +0.000 OA
ATOM     27  H   UNL     1      -1.990  13.024  23.883  0.00  0.00    +0.000 HD
ENDBRANCH  24  26
ENDBRANCH   9  24
BRANCH   9  28
ATOM     28  C   UNL     1      -1.076  13.863  21.387  0.00  0.00    +0.000 C 
BRANCH  28  29
ATOM     29  C   UNL     1      -0.124  14.393  20.338  0.00  0.00    +0.000 A 
ATOM     30  C   UNL     1      -0.512  15.443  19.484  0.00  0.00    +0.000 A 
ATOM     31  C   UNL     1       0.408  16.031  18.613  0.00  0.00    +0.000 A 
ATOM     32  C   UNL     1       1.720  15.572  18.585  0.00  0.00    +0.000 A 
ATOM     33  F   UNL     1       2.612  16.171  17.785  0.00  0.00    +0.000 F 
ATOM     34  C   UNL     1       2.105  14.514  19.397  0.00  0.00    +0.000 A 
ATOM     35  F   UNL     1       3.371  14.074  19.377  0.00  0.00    +0.000 F 
ATOM     36  C   UNL     1       1.193  13.918  20.266  0.00  0.00    +0.000 A 
ENDBRANCH  28  29
ENDBRANCH   9  28
TORSDOF 7
ENDMDL
MODEL 9
REMARK VINA RESULT:      -8.8      2.988      4.499
REMARK  Name = 
REMARK  9 active torsions:
REMARK  status: ('A' for Active; 'I' for Inactive)
REMARK    1  A    between atoms: C_1  and  O_2
REMARK    2  A    between atoms: O_2  and  C_3
REMARK    3  A    between atoms: C_5  and  C_6
REMARK    4  A    between atoms: C_14  and  C_15
REMARK    5  A    between atoms: C_14  and  C_24
REMARK    6  A    between atoms: C_15  and  C_16
REMARK    7  A    between atoms: C_24  and  O_26
REMARK    8  A    between atoms: C_29  and  C_30
REMARK    9  A    between atoms: C_33  and  C_34
REMARK                            x       y       z     vdW  Elec       q    Type
REMARK                         _______ _______ _______ _____ _____    ______ ____
ROOT
ATOM      1  C   UNL     1       1.955   6.761  19.304  0.00  0.00    +0.000 A 
ATOM      2  N   UNL     1       2.198   6.551  18.019  0.00  0.00    +0.000 NA
ATOM      3  N   UNL     1       2.391   5.219  17.807  0.00  0.00    +0.000 NA
ATOM      4  C   UNL     1       2.269   4.611  18.966  0.00  0.00    +0.000 A 
ATOM      5  N   UNL     1       2.027   5.545  19.939  0.00  0.00    +0.000 N 
ATOM      6  C   UNL     1       1.903   5.238  21.344  0.00  0.00    +0.000 C 
ATOM      7  C   UNL     1       2.449   3.854  21.693  0.00  0.00    +0.000 C 
ATOM      8  C   UNL     1       2.012   2.805  20.663  0.00  0.00    +0.000 C 
ATOM      9  C   UNL     1       2.469   3.136  19.217  0.00  0.00    +0.000 C 
ENDROOT
BRANCH   1  12
ATOM     10  C   UNL     1       1.166  10.437  19.402  0.00  0.00    +0.000 A 
ATOM     11  C   UNL     1       1.616   9.173  18.991  0.00  0.00    +0.000 A 
ATOM     12  C   UNL     1       1.671   8.081  19.870  0.00  0.00    +0.000 A 
ATOM     13  C   UNL     1       1.343   8.298  21.206  0.00  0.00    +0.000 A 
ATOM     14  C   UNL     1       0.951   9.570  21.641  0.00  0.00    +0.000 A 
ATOM     15  C   UNL     1       0.833  10.657  20.752  0.00  0.00    +0.000 A 
BRANCH  15  16
ATOM     16  C   UNL     1       0.309  11.929  21.251  0.00  0.00    +0.000 A 
ATOM     17  C   UNL     1      -0.900  12.417  21.701  0.00  0.00    +0.000 A 
ATOM     18  N   UNL     1      -0.780  13.730  22.095  0.00  0.00    +0.000 NA
ATOM     19  C   UNL     1       0.488  14.003  21.874  0.00  0.00    +0.000 A 
ATOM     20  C   UNL     1       1.225  15.260  22.105  0.00  0.00    +0.000 C 
ATOM     21  O   UNL     1       1.210  12.964  21.362  0.00  0.00    +0.000 OA
ENDBRANCH  15  16
BRANCH  10  23
ATOM     22  C   UNL     1       2.283  12.120  18.174  0.00  0.00    +0.000 C 
ATOM     23  O   UNL     1       1.052  11.479  18.514  0.00  0.00    +0.000 OA
ENDBRANCH  10  23
ENDBRANCH   1  12
BRANCH   9  24
ATOM     24  C   UNL     1       1.607   2.345  18.223  0.00  0.00    +0.000 C 
ATOM     25  O   UNL     1       0.421   2.086  18.414  0.00  0.00    +0.000 OA
BRANCH  24  26
ATOM     26  O   UNL     1       2.242   1.873  17.120  0.00  0.00    +0.000 OA
ATOM     27  H   UNL     1       3.204   1.693  17.244  0.00  0.00    +0.000 HD
ENDBRANCH  24  26
ENDBRANCH   9  24
BRANCH   9  28
ATOM     28  C   UNL     1       3.966   2.824  18.944  0.00  0.00    +0.000 C 
BRANCH  28  29
ATOM     29  C   UNL     1       4.851   3.913  18.378  0.00  0.00    +0.000 A 
ATOM     30  C   UNL     1       5.528   4.802  19.234  0.00  0.00    +0.000 A 
ATOM     31  C   UNL     1       6.455   5.715  18.726  0.00  0.00    +0.000 A 
ATOM     32  C   UNL     1       6.710   5.748  17.359  0.00  0.00    +0.000 A 
ATOM     33  F   UNL     1       7.636   6.590  16.881  0.00  0.00    +0.000 F 
ATOM     34  C   UNL     1       6.023   4.900  16.501  0.00  0.00    +0.000 A 
ATOM     35  F   UNL     1       6.272   4.925  15.184  0.00  0.00    +0.000 F 
ATOM     36  C   UNL     1       5.092   3.990  16.999  0.00  0.00    +0.000 A 
ENDBRANCH  28  29
ENDBRANCH   9  28
TORSDOF 7
ENDMDL
