MODEL 1
REMARK VINA RESULT:      -7.7      0.000      0.000
REMARK  Name = 
REMARK  6 active torsions:
REMARK  status: ('A' for Active; 'I' for Inactive)
REMARK    1  A    between atoms: C_2  and  C_3
REMARK    2  A    between atoms: C_3  and  N_4
REMARK    3  A    between atoms: C_9  and  C_10
REMARK    4  A    between atoms: N_20  and  C_21
REMARK    5  A    between atoms: C_21  and  C_22
REMARK    6  A    between atoms: C_22  and  C_23
REMARK                            x       y       z     vdW  Elec       q    Type
REMARK                         _______ _______ _______ _____ _____    ______ ____
ROOT
ATOM      1  N   UNL     1      -1.867  12.210  21.670  0.00  0.00    +0.000 N 
ATOM      2  C   UNL     1      -1.521  11.613  22.867  0.00  0.00    +0.000 A 
ATOM      3  N   UNL     1      -0.694  10.627  23.005  0.00  0.00    +0.000 NA
ATOM      4  C   UNL     1      -0.170  10.174  21.840  0.00  0.00    +0.000 A 
ATOM      5  S   UNL     1       0.942   8.892  21.810  0.00  0.00    +0.000 S 
ATOM      6  C   UNL     1       1.087   8.943  20.096  0.00  0.00    +0.000 A 
ATOM      7  C   UNL     1       0.261   9.922  19.566  0.00  0.00    +0.000 A 
ATOM      8  C   UNL     1      -0.447  10.642  20.575  0.00  0.00    +0.000 A 
ATOM      9  C   UNL     1      -1.378  11.747  20.450  0.00  0.00    +0.000 A 
ATOM     10  O   UNL     1      -1.714  12.219  19.366  0.00  0.00    +0.000 OA
ENDROOT
BRANCH   6  11
ATOM     11  C   UNL     1       1.993   8.011  19.401  0.00  0.00    +0.000 A 
ATOM     12  C   UNL     1       2.531   8.342  18.149  0.00  0.00    +0.000 A 
ATOM     13  C   UNL     1       3.427   7.481  17.504  0.00  0.00    +0.000 A 
ATOM     14  C   UNL     1       3.783   6.272  18.098  0.00  0.00    +0.000 A 
ATOM     15  C   UNL     1       3.246   5.919  19.327  0.00  0.00    +0.000 A 
ATOM     16  C   UNL     1       2.362   6.784  19.978  0.00  0.00    +0.000 A 
ENDBRANCH   6  11
BRANCH   1  17
ATOM     17  C   UNL     1      -2.761  13.351  21.664  0.00  0.00    +0.000 C 
BRANCH  17  19
ATOM     18  O   UNL     1      -4.947  12.390  21.958  0.00  0.00    +0.000 OA
ATOM     19  C   UNL     1      -4.143  12.917  21.190  0.00  0.00    +0.000 C 
ATOM     20  N   UNL     1      -4.386  13.111  19.845  0.00  0.00    +0.000 N 
ATOM     21  H   UNL     1      -3.566  13.173  19.241  0.00  0.00    +0.000 HD
BRANCH  20  22
ATOM     22  C   UNL     1      -5.643  12.708  19.224  0.00  0.00    +0.000 C 
BRANCH  22  23
ATOM     23  C   UNL     1      -5.662  11.229  18.817  0.00  0.00    +0.000 C 
BRANCH  23  24
ATOM     24  C   UNL     1      -4.617  10.869  17.790  0.00  0.00    +0.000 A 
ATOM     25  C   UNL     1      -4.556  11.553  16.566  0.00  0.00    +0.000 A 
ATOM     26  C   UNL     1      -3.537  11.278  15.652  0.00  0.00    +0.000 A 
ATOM     27  C   UNL     1      -2.583  10.304  15.941  0.00  0.00    +0.000 A 
ATOM     28  C   UNL     1      -2.655   9.594  17.137  0.00  0.00    +0.000 A 
ATOM     29  C   UNL     1      -3.666   9.876  18.059  0.00  0.00    +0.000 A 
ENDBRANCH  23  24
ENDBRANCH  22  23
ENDBRANCH  20  22
ENDBRANCH  17  19
ENDBRANCH   1  17
TORSDOF 6
ENDMDL
MODEL 2
REMARK VINA RESULT:      -7.6      4.958      9.891
REMARK  Name = 
REMARK  6 active torsions:
REMARK  status: ('A' for Active; 'I' for Inactive)
REMARK    1  A    between atoms: C_2  and  C_3
REMARK    2  A    between atoms: C_3  and  N_4
REMARK    3  A    between atoms: C_9  and  C_10
REMARK    4  A    between atoms: N_20  and  C_21
REMARK    5  A    between atoms: C_21  and  C_22
REMARK    6  A    between atoms: C_22  and  C_23
REMARK                            x       y       z     vdW  Elec       q    Type
REMARK                         _______ _______ _______ _____ _____    ______ ____
ROOT
ATOM      1  N   UNL     1       3.163   5.532  19.019  0.00  0.00    +0.000 N 
ATOM      2  C   UNL     1       3.321   6.407  17.960  0.00  0.00    +0.000 A 
ATOM      3  N   UNL     1       2.839   7.606  17.898  0.00  0.00    +0.000 NA
ATOM      4  C   UNL     1       2.111   7.970  18.982  0.00  0.00    +0.000 A 
ATOM      5  S   UNL     1       1.403   9.508  19.094  0.00  0.00    +0.000 S 
ATOM      6  C   UNL     1       0.721   9.176  20.639  0.00  0.00    +0.000 A 
ATOM      7  C   UNL     1       1.021   7.883  21.037  0.00  0.00    +0.000 A 
ATOM      8  C   UNL     1       1.839   7.198  20.088  0.00  0.00    +0.000 A 
ATOM      9  C   UNL     1       2.391   5.858  20.132  0.00  0.00    +0.000 A 
ATOM     10  O   UNL     1       2.184   5.078  21.059  0.00  0.00    +0.000 OA
ENDROOT
BRANCH   6  11
ATOM     11  C   UNL     1      -0.066  10.208  21.339  0.00  0.00    +0.000 A 
ATOM     12  C   UNL     1      -0.621   9.946  22.601  0.00  0.00    +0.000 A 
ATOM     13  C   UNL     1      -1.331  10.936  23.290  0.00  0.00    +0.000 A 
ATOM     14  C   UNL     1      -1.507  12.194  22.719  0.00  0.00    +0.000 A 
ATOM     15  C   UNL     1      -0.982  12.465  21.464  0.00  0.00    +0.000 A 
ATOM     16  C   UNL     1      -0.261  11.482  20.781  0.00  0.00    +0.000 A 
ENDBRANCH   6  11
BRANCH   1  17
ATOM     17  C   UNL     1       3.811   4.235  18.986  0.00  0.00    +0.000 C 
BRANCH  17  19
ATOM     18  O   UNL     1       6.068   4.753  19.637  0.00  0.00    +0.000 OA
ATOM     19  C   UNL     1       5.304   4.414  18.736  0.00  0.00    +0.000 C 
ATOM     20  N   UNL     1       5.702   4.222  17.428  0.00  0.00    +0.000 N 
ATOM     21  H   UNL     1       4.983   4.337  16.713  0.00  0.00    +0.000 HD
BRANCH  20  22
ATOM     22  C   UNL     1       7.090   4.399  17.012  0.00  0.00    +0.000 C 
BRANCH  22  23
ATOM     23  C   UNL     1       7.247   5.411  15.870  0.00  0.00    +0.000 C 
BRANCH  23  24
ATOM     24  C   UNL     1       6.916   4.847  14.510  0.00  0.00    +0.000 A 
ATOM     25  C   UNL     1       7.710   5.160  13.397  0.00  0.00    +0.000 A 
ATOM     26  C   UNL     1       7.454   4.570  12.157  0.00  0.00    +0.000 A 
ATOM     27  C   UNL     1       6.390   3.682  12.013  0.00  0.00    +0.000 A 
ATOM     28  C   UNL     1       5.574   3.391  13.104  0.00  0.00    +0.000 A 
ATOM     29  C   UNL     1       5.836   3.970  14.348  0.00  0.00    +0.000 A 
ENDBRANCH  23  24
ENDBRANCH  22  23
ENDBRANCH  20  22
ENDBRANCH  17  19
ENDBRANCH   1  17
TORSDOF 6
ENDMDL
MODEL 3
REMARK VINA RESULT:      -7.5      3.870      8.797
REMARK  Name = 
REMARK  6 active torsions:
REMARK  status: ('A' for Active; 'I' for Inactive)
REMARK    1  A    between atoms: C_2  and  C_3
REMARK    2  A    between atoms: C_3  and  N_4
REMARK    3  A    between atoms: C_9  and  C_10
REMARK    4  A    between atoms: N_20  and  C_21
REMARK    5  A    between atoms: C_21  and  C_22
REMARK    6  A    between atoms: C_22  and  C_23
REMARK                            x       y       z     vdW  Elec       q    Type
REMARK                         _______ _______ _______ _____ _____    ______ ____
ROOT
ATOM      1  N   UNL     1       2.741   7.474  18.375  0.00  0.00    +0.000 N 
ATOM      2  C   UNL     1       2.562   6.695  19.504  0.00  0.00    +0.000 A 
ATOM      3  N   UNL     1       1.813   6.997  20.514  0.00  0.00    +0.000 NA
ATOM      4  C   UNL     1       1.192   8.197  20.408  0.00  0.00    +0.000 A 
ATOM      5  S   UNL     1       0.158   8.768  21.626  0.00  0.00    +0.000 S 
ATOM      6  C   UNL     1      -0.175  10.229  20.780  0.00  0.00    +0.000 A 
ATOM      7  C   UNL     1       0.531  10.273  19.587  0.00  0.00    +0.000 A 
ATOM      8  C   UNL     1       1.303   9.092  19.368  0.00  0.00    +0.000 A 
ATOM      9  C   UNL     1       2.150   8.729  18.248  0.00  0.00    +0.000 A 
ATOM     10  O   UNL     1       2.339   9.468  17.284  0.00  0.00    +0.000 OA
ENDROOT
BRANCH   6  11
ATOM     11  C   UNL     1      -1.096  11.226  21.354  0.00  0.00    +0.000 A 
ATOM     12  C   UNL     1      -1.277  11.310  22.743  0.00  0.00    +0.000 A 
ATOM     13  C   UNL     1      -2.116  12.283  23.298  0.00  0.00    +0.000 A 
ATOM     14  C   UNL     1      -2.795  13.174  22.469  0.00  0.00    +0.000 A 
ATOM     15  C   UNL     1      -2.643  13.094  21.093  0.00  0.00    +0.000 A 
ATOM     16  C   UNL     1      -1.795  12.131  20.539  0.00  0.00    +0.000 A 
ENDBRANCH   6  11
BRANCH   1  17
ATOM     17  C   UNL     1       3.563   6.986  17.285  0.00  0.00    +0.000 C 
BRANCH  17  19
ATOM     18  O   UNL     1       5.245   5.763  18.493  0.00  0.00    +0.000 OA
ATOM     19  C   UNL     1       4.292   5.720  17.718  0.00  0.00    +0.000 C 
ATOM     20  N   UNL     1       3.833   4.556  17.135  0.00  0.00    +0.000 N 
ATOM     21  H   UNL     1       3.338   4.657  16.249  0.00  0.00    +0.000 HD
BRANCH  20  22
ATOM     22  C   UNL     1       4.452   3.262  17.409  0.00  0.00    +0.000 C 
BRANCH  22  23
ATOM     23  C   UNL     1       3.434   2.186  17.810  0.00  0.00    +0.000 C 
BRANCH  23  24
ATOM     24  C   UNL     1       2.681   2.506  19.078  0.00  0.00    +0.000 A 
ATOM     25  C   UNL     1       3.340   2.511  20.316  0.00  0.00    +0.000 A 
ATOM     26  C   UNL     1       2.663   2.891  21.476  0.00  0.00    +0.000 A 
ATOM     27  C   UNL     1       1.316   3.245  21.415  0.00  0.00    +0.000 A 
ATOM     28  C   UNL     1       0.643   3.210  20.196  0.00  0.00    +0.000 A 
ATOM     29  C   UNL     1       1.322   2.843  19.032  0.00  0.00    +0.000 A 
ENDBRANCH  23  24
ENDBRANCH  22  23
ENDBRANCH  20  22
ENDBRANCH  17  19
ENDBRANCH   1  17
TORSDOF 6
ENDMDL
MODEL 4
REMARK VINA RESULT:      -7.4      4.934      9.813
REMARK  Name = 
REMARK  6 active torsions:
REMARK  status: ('A' for Active; 'I' for Inactive)
REMARK    1  A    between atoms: C_2  and  C_3
REMARK    2  A    between atoms: C_3  and  N_4
REMARK    3  A    between atoms: C_9  and  C_10
REMARK    4  A    between atoms: N_20  and  C_21
REMARK    5  A    between atoms: C_21  and  C_22
REMARK    6  A    between atoms: C_22  and  C_23
REMARK                            x       y       z     vdW  Elec       q    Type
REMARK                         _______ _______ _______ _____ _____    ______ ____
ROOT
ATOM      1  N   UNL     1       3.275   5.474  19.323  0.00  0.00    +0.000 N 
ATOM      2  C   UNL     1       3.451   6.299  18.227  0.00  0.00    +0.000 A 
ATOM      3  N   UNL     1       2.935   7.475  18.080  0.00  0.00    +0.000 NA
ATOM      4  C   UNL     1       2.150   7.871  19.112  0.00  0.00    +0.000 A 
ATOM      5  S   UNL     1       1.389   9.388  19.113  0.00  0.00    +0.000 S 
ATOM      6  C   UNL     1       0.650   9.113  20.642  0.00  0.00    +0.000 A 
ATOM      7  C   UNL     1       0.973   7.853  21.121  0.00  0.00    +0.000 A 
ATOM      8  C   UNL     1       1.853   7.148  20.245  0.00  0.00    +0.000 A 
ATOM      9  C   UNL     1       2.445   5.831  20.383  0.00  0.00    +0.000 A 
ATOM     10  O   UNL     1       2.221   5.094  21.341  0.00  0.00    +0.000 OA
ENDROOT
BRANCH   6  11
ATOM     11  C   UNL     1      -0.199  10.152  21.253  0.00  0.00    +0.000 A 
ATOM     12  C   UNL     1      -0.720  11.195  20.472  0.00  0.00    +0.000 A 
ATOM     13  C   UNL     1      -1.563  12.160  21.036  0.00  0.00    +0.000 A 
ATOM     14  C   UNL     1      -1.883  12.100  22.391  0.00  0.00    +0.000 A 
ATOM     15  C   UNL     1      -1.362  11.088  23.182  0.00  0.00    +0.000 A 
ATOM     16  C   UNL     1      -0.531  10.117  22.617  0.00  0.00    +0.000 A 
ENDBRANCH   6  11
BRANCH   1  17
ATOM     17  C   UNL     1       3.964   4.200  19.386  0.00  0.00    +0.000 C 
BRANCH  17  19
ATOM     18  O   UNL     1       4.258   3.304  17.174  0.00  0.00    +0.000 OA
ATOM     19  C   UNL     1       4.734   3.969  18.091  0.00  0.00    +0.000 C 
ATOM     20  N   UNL     1       6.003   4.512  18.064  0.00  0.00    +0.000 N 
ATOM     21  H   UNL     1       6.442   4.685  18.968  0.00  0.00    +0.000 HD
BRANCH  20  22
ATOM     22  C   UNL     1       6.888   4.342  16.916  0.00  0.00    +0.000 C 
BRANCH  22  23
ATOM     23  C   UNL     1       6.662   5.397  15.826  0.00  0.00    +0.000 C 
BRANCH  23  24
ATOM     24  C   UNL     1       6.563   4.821  14.435  0.00  0.00    +0.000 A 
ATOM     25  C   UNL     1       7.595   5.020  13.506  0.00  0.00    +0.000 A 
ATOM     26  C   UNL     1       7.543   4.415  12.249  0.00  0.00    +0.000 A 
ATOM     27  C   UNL     1       6.449   3.625  11.899  0.00  0.00    +0.000 A 
ATOM     28  C   UNL     1       5.402   3.449  12.801  0.00  0.00    +0.000 A 
ATOM     29  C   UNL     1       5.458   4.044  14.064  0.00  0.00    +0.000 A 
ENDBRANCH  23  24
ENDBRANCH  22  23
ENDBRANCH  20  22
ENDBRANCH  17  19
ENDBRANCH   1  17
TORSDOF 6
ENDMDL
MODEL 5
REMARK VINA RESULT:      -7.4      5.070      9.769
REMARK  Name = 
REMARK  6 active torsions:
REMARK  status: ('A' for Active; 'I' for Inactive)
REMARK    1  A    between atoms: C_2  and  C_3
REMARK    2  A    between atoms: C_3  and  N_4
REMARK    3  A    between atoms: C_9  and  C_10
REMARK    4  A    between atoms: N_20  and  C_21
REMARK    5  A    between atoms: C_21  and  C_22
REMARK    6  A    between atoms: C_22  and  C_23
REMARK                            x       y       z     vdW  Elec       q    Type
REMARK                         _______ _______ _______ _____ _____    ______ ____
ROOT
ATOM      1  N   UNL     1       3.101   5.096  19.361  0.00  0.00    +0.000 N 
ATOM      2  C   UNL     1       2.512   5.151  20.610  0.00  0.00    +0.000 A 
ATOM      3  N   UNL     1       1.836   6.149  21.079  0.00  0.00    +0.000 NA
ATOM      4  C   UNL     1       1.749   7.207  20.236  0.00  0.00    +0.000 A 
ATOM      5  S   UNL     1       0.896   8.610  20.665  0.00  0.00    +0.000 S 
ATOM      6  C   UNL     1       1.254   9.388  19.172  0.00  0.00    +0.000 A 
ATOM      7  C   UNL     1       2.046   8.575  18.376  0.00  0.00    +0.000 A 
ATOM      8  C   UNL     1       2.313   7.311  18.985  0.00  0.00    +0.000 A 
ATOM      9  C   UNL     1       3.065   6.178  18.484  0.00  0.00    +0.000 A 
ATOM     10  O   UNL     1       3.632   6.179  17.392  0.00  0.00    +0.000 OA
ENDROOT
BRANCH   6  11
ATOM     11  C   UNL     1       0.740  10.742  18.900  0.00  0.00    +0.000 A 
ATOM     12  C   UNL     1       1.622  11.825  18.765  0.00  0.00    +0.000 A 
ATOM     13  C   UNL     1       1.143  13.105  18.462  0.00  0.00    +0.000 A 
ATOM     14  C   UNL     1      -0.224  13.319  18.305  0.00  0.00    +0.000 A 
ATOM     15  C   UNL     1      -1.113  12.265  18.454  0.00  0.00    +0.000 A 
ATOM     16  C   UNL     1      -0.635  10.984  18.743  0.00  0.00    +0.000 A 
ENDBRANCH   6  11
BRANCH   1  17
ATOM     17  C   UNL     1       3.780   3.887  18.935  0.00  0.00    +0.000 C 
BRANCH  17  19
ATOM     18  O   UNL     1       6.008   4.582  19.514  0.00  0.00    +0.000 OA
ATOM     19  C   UNL     1       5.242   4.198  18.634  0.00  0.00    +0.000 C 
ATOM     20  N   UNL     1       5.603   4.068  17.308  0.00  0.00    +0.000 N 
ATOM     21  H   UNL     1       4.850   4.136  16.624  0.00  0.00    +0.000 HD
BRANCH  20  22
ATOM     22  C   UNL     1       6.954   4.372  16.846  0.00  0.00    +0.000 C 
BRANCH  22  23
ATOM     23  C   UNL     1       6.980   5.420  15.726  0.00  0.00    +0.000 C 
BRANCH  23  24
ATOM     24  C   UNL     1       6.913   4.828  14.340  0.00  0.00    +0.000 A 
ATOM     25  C   UNL     1       5.962   3.844  14.030  0.00  0.00    +0.000 A 
ATOM     26  C   UNL     1       5.843   3.360  12.726  0.00  0.00    +0.000 A 
ATOM     27  C   UNL     1       6.688   3.835  11.725  0.00  0.00    +0.000 A 
ATOM     28  C   UNL     1       7.660   4.786  12.029  0.00  0.00    +0.000 A 
ATOM     29  C   UNL     1       7.772   5.281  13.330  0.00  0.00    +0.000 A 
ENDBRANCH  23  24
ENDBRANCH  22  23
ENDBRANCH  20  22
ENDBRANCH  17  19
ENDBRANCH   1  17
TORSDOF 6
ENDMDL
MODEL 6
REMARK VINA RESULT:      -7.3      5.379      8.696
REMARK  Name = 
REMARK  6 active torsions:
REMARK  status: ('A' for Active; 'I' for Inactive)
REMARK    1  A    between atoms: C_2  and  C_3
REMARK    2  A    between atoms: C_3  and  N_4
REMARK    3  A    between atoms: C_9  and  C_10
REMARK    4  A    between atoms: N_20  and  C_21
REMARK    5  A    between atoms: C_21  and  C_22
REMARK    6  A    between atoms: C_22  and  C_23
REMARK                            x       y       z     vdW  Elec       q    Type
REMARK                         _______ _______ _______ _____ _____    ______ ____
ROOT
ATOM      1  N   UNL     1       3.771   3.631  19.692  0.00  0.00    +0.000 N 
ATOM      2  C   UNL     1       4.907   4.294  20.116  0.00  0.00    +0.000 A 
ATOM      3  N   UNL     1       5.867   4.705  19.352  0.00  0.00    +0.000 NA
ATOM      4  C   UNL     1       5.696   4.416  18.039  0.00  0.00    +0.000 A 
ATOM      5  S   UNL     1       6.841   4.879  16.875  0.00  0.00    +0.000 S 
ATOM      6  C   UNL     1       5.940   4.183  15.585  0.00  0.00    +0.000 A 
ATOM      7  C   UNL     1       4.787   3.581  16.065  0.00  0.00    +0.000 A 
ATOM      8  C   UNL     1       4.641   3.733  17.477  0.00  0.00    +0.000 A 
ATOM      9  C   UNL     1       3.579   3.284  18.356  0.00  0.00    +0.000 A 
ATOM     10  O   UNL     1       2.608   2.642  17.960  0.00  0.00    +0.000 OA
ENDROOT
BRANCH   6  11
ATOM     11  C   UNL     1       6.438   4.273  14.201  0.00  0.00    +0.000 A 
ATOM     12  C   UNL     1       5.920   3.434  13.202  0.00  0.00    +0.000 A 
ATOM     13  C   UNL     1       6.356   3.545  11.877  0.00  0.00    +0.000 A 
ATOM     14  C   UNL     1       7.326   4.485  11.538  0.00  0.00    +0.000 A 
ATOM     15  C   UNL     1       7.863   5.310  12.515  0.00  0.00    +0.000 A 
ATOM     16  C   UNL     1       7.419   5.209  13.836  0.00  0.00    +0.000 A 
ENDBRANCH   6  11
BRANCH   1  17
ATOM     17  C   UNL     1       2.740   3.280  20.649  0.00  0.00    +0.000 C 
BRANCH  17  19
ATOM     18  O   UNL     1       0.494   4.006  20.185  0.00  0.00    +0.000 OA
ATOM     19  C   UNL     1       1.615   4.307  20.591  0.00  0.00    +0.000 C 
ATOM     20  N   UNL     1       1.973   5.585  20.972  0.00  0.00    +0.000 N 
ATOM     21  H   UNL     1       2.964   5.816  20.907  0.00  0.00    +0.000 HD
BRANCH  20  22
ATOM     22  C   UNL     1       1.025   6.694  20.931  0.00  0.00    +0.000 C 
BRANCH  22  23
ATOM     23  C   UNL     1       1.710   8.061  20.811  0.00  0.00    +0.000 C 
BRANCH  23  24
ATOM     24  C   UNL     1       0.901   9.197  21.386  0.00  0.00    +0.000 A 
ATOM     25  C   UNL     1       0.763  10.402  20.681  0.00  0.00    +0.000 A 
ATOM     26  C   UNL     1      -0.056  11.420  21.173  0.00  0.00    +0.000 A 
ATOM     27  C   UNL     1      -0.725  11.255  22.385  0.00  0.00    +0.000 A 
ATOM     28  C   UNL     1      -0.567  10.076  23.110  0.00  0.00    +0.000 A 
ATOM     29  C   UNL     1       0.242   9.051  22.613  0.00  0.00    +0.000 A 
ENDBRANCH  23  24
ENDBRANCH  22  23
ENDBRANCH  20  22
ENDBRANCH  17  19
ENDBRANCH   1  17
TORSDOF 6
ENDMDL
MODEL 7
REMARK VINA RESULT:      -7.3      5.464     10.150
REMARK  Name = 
REMARK  6 active torsions:
REMARK  status: ('A' for Active; 'I' for Inactive)
REMARK    1  A    between atoms: C_2  and  C_3
REMARK    2  A    between atoms: C_3  and  N_4
REMARK    3  A    between atoms: C_9  and  C_10
REMARK    4  A    between atoms: N_20  and  C_21
REMARK    5  A    between atoms: C_21  and  C_22
REMARK    6  A    between atoms: C_22  and  C_23
REMARK                            x       y       z     vdW  Elec       q    Type
REMARK                         _______ _______ _______ _____ _____    ______ ____
ROOT
ATOM      1  N   UNL     1       3.744   5.219  18.670  0.00  0.00    +0.000 N 
ATOM      2  C   UNL     1       3.801   6.120  17.624  0.00  0.00    +0.000 A 
ATOM      3  N   UNL     1       3.227   7.280  17.598  0.00  0.00    +0.000 NA
ATOM      4  C   UNL     1       2.510   7.570  18.711  0.00  0.00    +0.000 A 
ATOM      5  S   UNL     1       1.690   9.047  18.873  0.00  0.00    +0.000 S 
ATOM      6  C   UNL     1       1.085   8.639  20.432  0.00  0.00    +0.000 A 
ATOM      7  C   UNL     1       1.495   7.366  20.796  0.00  0.00    +0.000 A 
ATOM      8  C   UNL     1       2.332   6.761  19.810  0.00  0.00    +0.000 A 
ATOM      9  C   UNL     1       2.986   5.467  19.812  0.00  0.00    +0.000 A 
ATOM     10  O   UNL     1       2.868   4.658  20.731  0.00  0.00    +0.000 OA
ENDROOT
BRANCH   6  11
ATOM     11  C   UNL     1       0.245   9.596  21.174  0.00  0.00    +0.000 A 
ATOM     12  C   UNL     1      -0.075   9.367  22.521  0.00  0.00    +0.000 A 
ATOM     13  C   UNL     1      -0.835  10.293  23.244  0.00  0.00    +0.000 A 
ATOM     14  C   UNL     1      -1.295  11.453  22.624  0.00  0.00    +0.000 A 
ATOM     15  C   UNL     1      -1.005  11.688  21.289  0.00  0.00    +0.000 A 
ATOM     16  C   UNL     1      -0.235  10.769  20.570  0.00  0.00    +0.000 A 
ENDBRANCH   6  11
BRANCH   1  17
ATOM     17  C   UNL     1       4.487   3.976  18.594  0.00  0.00    +0.000 C 
BRANCH  17  19
ATOM     18  O   UNL     1       6.794   4.657  18.558  0.00  0.00    +0.000 OA
ATOM     19  C   UNL     1       5.834   4.224  17.924  0.00  0.00    +0.000 C 
ATOM     20  N   UNL     1       5.862   3.979  16.566  0.00  0.00    +0.000 N 
ATOM     21  H   UNL     1       4.966   4.013  16.080  0.00  0.00    +0.000 HD
BRANCH  20  22
ATOM     22  C   UNL     1       7.062   4.210  15.767  0.00  0.00    +0.000 C 
BRANCH  22  23
ATOM     23  C   UNL     1       6.772   4.942  14.450  0.00  0.00    +0.000 C 
BRANCH  23  24
ATOM     24  C   UNL     1       6.293   4.033  13.345  0.00  0.00    +0.000 A 
ATOM     25  C   UNL     1       4.925   3.921  13.057  0.00  0.00    +0.000 A 
ATOM     26  C   UNL     1       4.489   3.147  11.980  0.00  0.00    +0.000 A 
ATOM     27  C   UNL     1       5.413   2.460  11.194  0.00  0.00    +0.000 A 
ATOM     28  C   UNL     1       6.772   2.537  11.493  0.00  0.00    +0.000 A 
ATOM     29  C   UNL     1       7.211   3.320  12.563  0.00  0.00    +0.000 A 
ENDBRANCH  23  24
ENDBRANCH  22  23
ENDBRANCH  20  22
ENDBRANCH  17  19
ENDBRANCH   1  17
TORSDOF 6
ENDMDL
MODEL 8
REMARK VINA RESULT:      -7.2      4.966      9.419
REMARK  Name = 
REMARK  6 active torsions:
REMARK  status: ('A' for Active; 'I' for Inactive)
REMARK    1  A    between atoms: C_2  and  C_3
REMARK    2  A    between atoms: C_3  and  N_4
REMARK    3  A    between atoms: C_9  and  C_10
REMARK    4  A    between atoms: N_20  and  C_21
REMARK    5  A    between atoms: C_21  and  C_22
REMARK    6  A    between atoms: C_22  and  C_23
REMARK                            x       y       z     vdW  Elec       q    Type
REMARK                         _______ _______ _______ _____ _____    ______ ____
ROOT
ATOM      1  N   UNL     1       2.714   5.183  19.219  0.00  0.00    +0.000 N 
ATOM      2  C   UNL     1       2.812   5.927  18.058  0.00  0.00    +0.000 A 
ATOM      3  N   UNL     1       2.440   7.159  17.921  0.00  0.00    +0.000 NA
ATOM      4  C   UNL     1       1.899   7.704  19.038  0.00  0.00    +0.000 A 
ATOM      5  S   UNL     1       1.357   9.312  19.063  0.00  0.00    +0.000 S 
ATOM      6  C   UNL     1       0.857   9.209  20.707  0.00  0.00    +0.000 A 
ATOM      7  C   UNL     1       1.086   7.936  21.207  0.00  0.00    +0.000 A 
ATOM      8  C   UNL     1       1.703   7.078  20.248  0.00  0.00    +0.000 A 
ATOM      9  C   UNL     1       2.130   5.698  20.374  0.00  0.00    +0.000 A 
ATOM     10  O   UNL     1       1.975   5.040  21.401  0.00  0.00    +0.000 OA
ENDROOT
BRANCH   6  11
ATOM     11  C   UNL     1       0.269  10.382  21.377  0.00  0.00    +0.000 A 
ATOM     12  C   UNL     1       0.515  11.677  20.894  0.00  0.00    +0.000 A 
ATOM     13  C   UNL     1      -0.076  12.791  21.499  0.00  0.00    +0.000 A 
ATOM     14  C   UNL     1      -0.910  12.626  22.604  0.00  0.00    +0.000 A 
ATOM     15  C   UNL     1      -1.150  11.356  23.107  0.00  0.00    +0.000 A 
ATOM     16  C   UNL     1      -0.570  10.241  22.495  0.00  0.00    +0.000 A 
ENDBRANCH   6  11
BRANCH   1  17
ATOM     17  C   UNL     1       3.229   3.827  19.253  0.00  0.00    +0.000 C 
BRANCH  17  19
ATOM     18  O   UNL     1       5.295   2.884  20.044  0.00  0.00    +0.000 OA
ATOM     19  C   UNL     1       4.724   3.854  19.550  0.00  0.00    +0.000 C 
ATOM     20  N   UNL     1       5.351   5.052  19.273  0.00  0.00    +0.000 N 
ATOM     21  H   UNL     1       4.756   5.881  19.251  0.00  0.00    +0.000 HD
BRANCH  20  22
ATOM     22  C   UNL     1       6.771   5.258  19.542  0.00  0.00    +0.000 C 
BRANCH  22  23
ATOM     23  C   UNL     1       7.512   5.914  18.371  0.00  0.00    +0.000 C 
BRANCH  23  24
ATOM     24  C   UNL     1       6.893   5.628  17.025  0.00  0.00    +0.000 A 
ATOM     25  C   UNL     1       7.252   4.479  16.305  0.00  0.00    +0.000 A 
ATOM     26  C   UNL     1       6.617   4.171  15.101  0.00  0.00    +0.000 A 
ATOM     27  C   UNL     1       5.635   5.019  14.592  0.00  0.00    +0.000 A 
ATOM     28  C   UNL     1       5.296   6.181  15.281  0.00  0.00    +0.000 A 
ATOM     29  C   UNL     1       5.921   6.485  16.492  0.00  0.00    +0.000 A 
ENDBRANCH  23  24
ENDBRANCH  22  23
ENDBRANCH  20  22
ENDBRANCH  17  19
ENDBRANCH   1  17
TORSDOF 6
ENDMDL
MODEL 9
REMARK VINA RESULT:      -7.1      3.978      5.554
REMARK  Name = 
REMARK  6 active torsions:
REMARK  status: ('A' for Active; 'I' for Inactive)
REMARK    1  A    between atoms: C_2  and  C_3
REMARK    2  A    between atoms: C_3  and  N_4
REMARK    3  A    between atoms: C_9  and  C_10
REMARK    4  A    between atoms: N_20  and  C_21
REMARK    5  A    between atoms: C_21  and  C_22
REMARK    6  A    between atoms: C_22  and  C_23
REMARK                            x       y       z     vdW  Elec       q    Type
REMARK                         _______ _______ _______ _____ _____    ______ ____
ROOT
ATOM      1  N   UNL     1       0.442   9.789  20.077  0.00  0.00    +0.000 N 
ATOM      2  C   UNL     1       0.551   8.879  21.112  0.00  0.00    +0.000 A 
ATOM      3  N   UNL     1       1.267   7.802  21.093  0.00  0.00    +0.000 NA
ATOM      4  C   UNL     1       1.928   7.593  19.928  0.00  0.00    +0.000 A 
ATOM      5  S   UNL     1       2.927   6.239  19.709  0.00  0.00    +0.000 S 
ATOM      6  C   UNL     1       3.338   6.694  18.101  0.00  0.00    +0.000 A 
ATOM      7  C   UNL     1       2.682   7.862  17.742  0.00  0.00    +0.000 A 
ATOM      8  C   UNL     1       1.886   8.387  18.804  0.00  0.00    +0.000 A 
ATOM      9  C   UNL     1       1.075   9.588  18.853  0.00  0.00    +0.000 A 
ATOM     10  O   UNL     1       0.947  10.349  17.895  0.00  0.00    +0.000 OA
ENDROOT
BRANCH   6  11
ATOM     11  C   UNL     1       4.264   5.864  17.310  0.00  0.00    +0.000 A 
ATOM     12  C   UNL     1       5.386   6.439  16.694  0.00  0.00    +0.000 A 
ATOM     13  C   UNL     1       6.293   5.650  15.978  0.00  0.00    +0.000 A 
ATOM     14  C   UNL     1       6.081   4.278  15.859  0.00  0.00    +0.000 A 
ATOM     15  C   UNL     1       4.968   3.695  16.445  0.00  0.00    +0.000 A 
ATOM     16  C   UNL     1       4.068   4.481  17.171  0.00  0.00    +0.000 A 
ENDBRANCH   6  11
BRANCH   1  17
ATOM     17  C   UNL     1      -0.350  10.992  20.254  0.00  0.00    +0.000 C 
BRANCH  17  19
ATOM     18  O   UNL     1       1.239  12.371  21.420  0.00  0.00    +0.000 OA
ATOM     19  C   UNL     1       0.573  12.196  20.401  0.00  0.00    +0.000 C 
ATOM     20  N   UNL     1       0.553  13.078  19.340  0.00  0.00    +0.000 N 
ATOM     21  H   UNL     1      -0.282  13.065  18.755  0.00  0.00    +0.000 HD
BRANCH  20  22
ATOM     22  C   UNL     1       1.345  14.304  19.343  0.00  0.00    +0.000 C 
BRANCH  22  23
ATOM     23  C   UNL     1       0.523  15.546  19.710  0.00  0.00    +0.000 C 
BRANCH  23  24
ATOM     24  C   UNL     1       0.544  16.621  18.651  0.00  0.00    +0.000 A 
ATOM     25  C   UNL     1       1.745  16.978  18.022  0.00  0.00    +0.000 A 
ATOM     26  C   UNL     1       1.750  17.911  16.983  0.00  0.00    +0.000 A 
ATOM     27  C   UNL     1       0.559  18.514  16.580  0.00  0.00    +0.000 A 
ATOM     28  C   UNL     1      -0.635  18.192  17.222  0.00  0.00    +0.000 A 
ATOM     29  C   UNL     1      -0.643  17.249  18.253  0.00  0.00    +0.000 A 
ENDBRANCH  23  24
ENDBRANCH  22  23
ENDBRANCH  20  22
ENDBRANCH  17  19
ENDBRANCH   1  17
TORSDOF 6
ENDMDL
