MODEL 1
REMARK VINA RESULT:      -7.6      0.000      0.000
REMARK  Name = 
REMARK  11 active torsions:
REMARK  status: ('A' for Active; 'I' for Inactive)
REMARK    1  A    between atoms: C_1  and  C_2
REMARK    2  A    between atoms: C_2  and  O_3
REMARK    3  A    between atoms: O_3  and  C_4
REMARK    4  A    between atoms: C_7  and  N_8
REMARK    5  A    between atoms: C_9  and  C_11
REMARK    6  A    between atoms: C_11  and  N_12
REMARK    7  A    between atoms: N_12  and  C_13
REMARK    8  A    between atoms: C_14  and  C_16
REMARK    9  A    between atoms: C_25  and  O_26
REMARK   10  A    between atoms: O_26  and  C_27
REMARK   11  A    between atoms: C_27  and  C_28
REMARK                            x       y       z     vdW  Elec       q    Type
REMARK                         _______ _______ _______ _____ _____    ______ ____
ROOT
ATOM      1  N   UNL     1       8.838   8.666  18.835  0.00  0.00    +0.000 N 
ATOM      2  C   UNL     1       7.913   8.099  17.972  0.00  0.00    +0.000 C 
ATOM      3  O   UNL     1       7.120   8.720  17.267  0.00  0.00    +0.000 OA
ATOM      4  H   UNL     1       9.238   8.053  19.539  0.00  0.00    +0.000 HD
ENDROOT
BRANCH   1   8
ATOM      5  C   UNL     1       9.271  12.838  19.458  0.00  0.00    +0.000 A 
ATOM      6  C   UNL     1       9.300  12.311  18.163  0.00  0.00    +0.000 A 
ATOM      7  C   UNL     1       9.196  10.935  17.941  0.00  0.00    +0.000 A 
ATOM      8  C   UNL     1       9.068  10.052  19.009  0.00  0.00    +0.000 A 
ATOM      9  C   UNL     1       9.176  10.566  20.308  0.00  0.00    +0.000 A 
ATOM     10  C   UNL     1       9.304  11.950  20.543  0.00  0.00    +0.000 A 
BRANCH   5  11
ATOM     11  O   UNL     1       9.188  14.188  19.687  0.00  0.00    +0.000 OA
BRANCH  11  13
ATOM     12  C   UNL     1       9.742  15.972  18.172  0.00  0.00    +0.000 C 
ATOM     13  C   UNL     1      10.275  14.972  19.179  0.00  0.00    +0.000 C 
ENDBRANCH  11  13
ENDBRANCH   5  11
BRANCH  10  14
ATOM     14  O   UNL     1       9.395  12.266  21.878  0.00  0.00    +0.000 OA
BRANCH  14  15
ATOM     15  C   UNL     1       8.178  12.507  22.587  0.00  0.00    +0.000 C 
ATOM     16  C   UNL     1       8.154  11.608  23.813  0.00  0.00    +0.000 C 
ENDBRANCH  14  15
ENDBRANCH  10  14
ENDBRANCH   1   8
BRANCH   2  17
ATOM     17  C   UNL     1       7.923   6.563  17.942  0.00  0.00    +0.000 C 
BRANCH  17  18
ATOM     18  N   UNL     1       6.568   6.003  17.903  0.00  0.00    +0.000 N 
ATOM     19  C   UNL     1       5.728   6.393  16.780  0.00  0.00    +0.000 C 
ATOM     20  C   UNL     1       6.118   5.327  19.047  0.00  0.00    +0.000 C 
ATOM     21  O   UNL     1       6.869   5.284  20.029  0.00  0.00    +0.000 OA
BRANCH  20  22
ATOM     22  C   UNL     1       4.802   4.676  19.048  0.00  0.00    +0.000 A 
ATOM     23  C   UNL     1       4.387   3.416  18.619  0.00  0.00    +0.000 A 
ATOM     24  C   UNL     1       3.010   3.211  18.848  0.00  0.00    +0.000 A 
ATOM     25  C   UNL     1       2.436   4.259  19.502  0.00  0.00    +0.000 A 
ATOM     26  S   UNL     1       3.474   5.537  19.782  0.00  0.00    +0.000 S 
ATOM     27  C   UNL     1       1.023   4.048  19.879  0.00  0.00    +0.000 C 
ATOM     28  C   UNL     1       0.729   2.646  19.256  0.00  0.00    +0.000 C 
ATOM     29  C   UNL     1       2.047   2.110  18.616  0.00  0.00    +0.000 C 
ENDBRANCH  20  22
ENDBRANCH  17  18
ENDBRANCH   2  17
TORSDOF 8
ENDMDL
MODEL 2
REMARK VINA RESULT:      -7.6      1.781      2.732
REMARK  Name = 
REMARK  11 active torsions:
REMARK  status: ('A' for Active; 'I' for Inactive)
REMARK    1  A    between atoms: C_1  and  C_2
REMARK    2  A    between atoms: C_2  and  O_3
REMARK    3  A    between atoms: O_3  and  C_4
REMARK    4  A    between atoms: C_7  and  N_8
REMARK    5  A    between atoms: C_9  and  C_11
REMARK    6  A    between atoms: C_11  and  N_12
REMARK    7  A    between atoms: N_12  and  C_13
REMARK    8  A    between atoms: C_14  and  C_16
REMARK    9  A    between atoms: C_25  and  O_26
REMARK   10  A    between atoms: O_26  and  C_27
REMARK   11  A    between atoms: C_27  and  C_28
REMARK                            x       y       z     vdW  Elec       q    Type
REMARK                         _______ _______ _______ _____ _____    ______ ____
ROOT
ATOM      1  N   UNL     1       7.951   9.049  17.457  0.00  0.00    +0.000 N 
ATOM      2  C   UNL     1       7.898   7.718  17.840  0.00  0.00    +0.000 C 
ATOM      3  O   UNL     1       8.402   7.248  18.859  0.00  0.00    +0.000 OA
ATOM      4  H   UNL     1       7.731   9.251  16.485  0.00  0.00    +0.000 HD
ENDROOT
BRANCH   1   8
ATOM      5  C   UNL     1       9.906  12.225  19.474  0.00  0.00    +0.000 A 
ATOM      6  C   UNL     1       9.857  10.949  20.046  0.00  0.00    +0.000 A 
ATOM      7  C   UNL     1       9.186   9.901  19.413  0.00  0.00    +0.000 A 
ATOM      8  C   UNL     1       8.540  10.102  18.197  0.00  0.00    +0.000 A 
ATOM      9  C   UNL     1       8.473  11.408  17.693  0.00  0.00    +0.000 A 
ATOM     10  C   UNL     1       9.129  12.479  18.335  0.00  0.00    +0.000 A 
BRANCH   5  11
ATOM     11  O   UNL     1      10.709  13.215  19.984  0.00  0.00    +0.000 OA
BRANCH  11  13
ATOM     12  C   UNL     1      12.333  14.699  19.013  0.00  0.00    +0.000 C 
ATOM     13  C   UNL     1      12.035  13.276  19.445  0.00  0.00    +0.000 C 
ENDBRANCH  11  13
ENDBRANCH   5  11
BRANCH  10  14
ATOM     14  O   UNL     1       8.952  13.683  17.696  0.00  0.00    +0.000 OA
BRANCH  14  15
ATOM     15  C   UNL     1       7.995  14.591  18.246  0.00  0.00    +0.000 C 
ATOM     16  C   UNL     1       8.497  16.009  18.019  0.00  0.00    +0.000 C 
ENDBRANCH  14  15
ENDBRANCH  10  14
ENDBRANCH   1   8
BRANCH   2  17
ATOM     17  C   UNL     1       7.138   6.801  16.869  0.00  0.00    +0.000 C 
BRANCH  17  18
ATOM     18  N   UNL     1       6.258   5.862  17.574  0.00  0.00    +0.000 N 
ATOM     19  C   UNL     1       6.806   4.546  17.871  0.00  0.00    +0.000 C 
ATOM     20  C   UNL     1       4.908   6.220  17.705  0.00  0.00    +0.000 C 
ATOM     21  O   UNL     1       4.535   7.277  17.183  0.00  0.00    +0.000 OA
BRANCH  20  22
ATOM     22  C   UNL     1       3.990   5.364  18.467  0.00  0.00    +0.000 A 
ATOM     23  C   UNL     1       3.674   5.314  19.823  0.00  0.00    +0.000 A 
ATOM     24  C   UNL     1       2.698   4.332  20.099  0.00  0.00    +0.000 A 
ATOM     25  C   UNL     1       2.246   3.726  18.967  0.00  0.00    +0.000 A 
ATOM     26  S   UNL     1       3.012   4.229  17.571  0.00  0.00    +0.000 S 
ATOM     27  C   UNL     1       1.133   2.777  19.182  0.00  0.00    +0.000 C 
ATOM     28  C   UNL     1       0.983   2.802  20.736  0.00  0.00    +0.000 C 
ATOM     29  C   UNL     1       1.994   3.846  21.307  0.00  0.00    +0.000 C 
ENDBRANCH  20  22
ENDBRANCH  17  18
ENDBRANCH   2  17
TORSDOF 8
ENDMDL
MODEL 3
REMARK VINA RESULT:      -7.6      1.002      1.349
REMARK  Name = 
REMARK  11 active torsions:
REMARK  status: ('A' for Active; 'I' for Inactive)
REMARK    1  A    between atoms: C_1  and  C_2
REMARK    2  A    between atoms: C_2  and  O_3
REMARK    3  A    between atoms: O_3  and  C_4
REMARK    4  A    between atoms: C_7  and  N_8
REMARK    5  A    between atoms: C_9  and  C_11
REMARK    6  A    between atoms: C_11  and  N_12
REMARK    7  A    between atoms: N_12  and  C_13
REMARK    8  A    between atoms: C_14  and  C_16
REMARK    9  A    between atoms: C_25  and  O_26
REMARK   10  A    between atoms: O_26  and  C_27
REMARK   11  A    between atoms: C_27  and  C_28
REMARK                            x       y       z     vdW  Elec       q    Type
REMARK                         _______ _______ _______ _____ _____    ______ ____
ROOT
ATOM      1  N   UNL     1       8.839   8.713  18.771  0.00  0.00    +0.000 N 
ATOM      2  C   UNL     1       7.867   8.247  17.899  0.00  0.00    +0.000 C 
ATOM      3  O   UNL     1       7.090   8.950  17.256  0.00  0.00    +0.000 OA
ATOM      4  H   UNL     1       9.224   8.036  19.425  0.00  0.00    +0.000 HD
ENDROOT
BRANCH   1   8
ATOM      5  C   UNL     1       9.480  12.818  19.613  0.00  0.00    +0.000 A 
ATOM      6  C   UNL     1       9.614  12.336  18.306  0.00  0.00    +0.000 A 
ATOM      7  C   UNL     1       9.443  10.980  18.017  0.00  0.00    +0.000 A 
ATOM      8  C   UNL     1       9.141  10.072  19.027  0.00  0.00    +0.000 A 
ATOM      9  C   UNL     1       9.142  10.531  20.351  0.00  0.00    +0.000 A 
ATOM     10  C   UNL     1       9.336  11.894  20.657  0.00  0.00    +0.000 A 
BRANCH   5  11
ATOM     11  O   UNL     1       9.463  14.163  19.888  0.00  0.00    +0.000 OA
BRANCH  11  13
ATOM     12  C   UNL     1       8.189  15.826  21.069  0.00  0.00    +0.000 C 
ATOM     13  C   UNL     1       8.164  14.758  19.992  0.00  0.00    +0.000 C 
ENDBRANCH  11  13
ENDBRANCH   5  11
BRANCH  10  14
ATOM     14  O   UNL     1       9.303  12.155  22.006  0.00  0.00    +0.000 OA
BRANCH  14  15
ATOM     15  C   UNL     1       8.110  11.818  22.717  0.00  0.00    +0.000 C 
ATOM     16  C   UNL     1       7.718  13.006  23.582  0.00  0.00    +0.000 C 
ENDBRANCH  14  15
ENDBRANCH  10  14
ENDBRANCH   1   8
BRANCH   2  17
ATOM     17  C   UNL     1       7.801   6.717  17.770  0.00  0.00    +0.000 C 
BRANCH  17  18
ATOM     18  N   UNL     1       6.436   6.209  17.946  0.00  0.00    +0.000 N 
ATOM     19  C   UNL     1       5.437   6.664  16.990  0.00  0.00    +0.000 C 
ATOM     20  C   UNL     1       6.156   5.512  19.131  0.00  0.00    +0.000 C 
ATOM     21  O   UNL     1       7.058   5.410  19.971  0.00  0.00    +0.000 OA
BRANCH  20  22
ATOM     22  C   UNL     1       4.833   4.909  19.336  0.00  0.00    +0.000 A 
ATOM     23  C   UNL     1       3.654   5.416  19.880  0.00  0.00    +0.000 A 
ATOM     24  C   UNL     1       2.609   4.468  19.844  0.00  0.00    +0.000 A 
ATOM     25  C   UNL     1       2.981   3.318  19.217  0.00  0.00    +0.000 A 
ATOM     26  S   UNL     1       4.581   3.289  18.738  0.00  0.00    +0.000 S 
ATOM     27  C   UNL     1       1.892   2.336  19.039  0.00  0.00    +0.000 C 
ATOM     28  C   UNL     1       0.702   3.038  19.767  0.00  0.00    +0.000 C 
ATOM     29  C   UNL     1       1.188   4.439  20.256  0.00  0.00    +0.000 C 
ENDBRANCH  20  22
ENDBRANCH  17  18
ENDBRANCH   2  17
TORSDOF 8
ENDMDL
MODEL 4
REMARK VINA RESULT:      -7.6      1.754      2.938
REMARK  Name = 
REMARK  11 active torsions:
REMARK  status: ('A' for Active; 'I' for Inactive)
REMARK    1  A    between atoms: C_1  and  C_2
REMARK    2  A    between atoms: C_2  and  O_3
REMARK    3  A    between atoms: O_3  and  C_4
REMARK    4  A    between atoms: C_7  and  N_8
REMARK    5  A    between atoms: C_9  and  C_11
REMARK    6  A    between atoms: C_11  and  N_12
REMARK    7  A    between atoms: N_12  and  C_13
REMARK    8  A    between atoms: C_14  and  C_16
REMARK    9  A    between atoms: C_25  and  O_26
REMARK   10  A    between atoms: O_26  and  C_27
REMARK   11  A    between atoms: C_27  and  C_28
REMARK                            x       y       z     vdW  Elec       q    Type
REMARK                         _______ _______ _______ _____ _____    ______ ____
ROOT
ATOM      1  N   UNL     1       8.061   9.092  17.580  0.00  0.00    +0.000 N 
ATOM      2  C   UNL     1       7.989   7.752  17.930  0.00  0.00    +0.000 C 
ATOM      3  O   UNL     1       8.495   7.248  18.931  0.00  0.00    +0.000 OA
ATOM      4  H   UNL     1       7.835   9.322  16.616  0.00  0.00    +0.000 HD
ENDROOT
BRANCH   1   8
ATOM      5  C   UNL     1      10.129  12.130  19.695  0.00  0.00    +0.000 A 
ATOM      6  C   UNL     1       9.771  10.940  20.338  0.00  0.00    +0.000 A 
ATOM      7  C   UNL     1       9.057   9.944  19.667  0.00  0.00    +0.000 A 
ATOM      8  C   UNL     1       8.677  10.115  18.340  0.00  0.00    +0.000 A 
ATOM      9  C   UNL     1       8.915  11.359  17.739  0.00  0.00    +0.000 A 
ATOM     10  C   UNL     1       9.615  12.380  18.414  0.00  0.00    +0.000 A 
BRANCH   5  11
ATOM     11  O   UNL     1      10.982  13.036  20.274  0.00  0.00    +0.000 OA
BRANCH  11  13
ATOM     12  C   UNL     1      10.938  15.388  20.774  0.00  0.00    +0.000 C 
ATOM     13  C   UNL     1      10.363  14.024  21.107  0.00  0.00    +0.000 C 
ENDBRANCH  11  13
ENDBRANCH   5  11
BRANCH  10  14
ATOM     14  O   UNL     1       9.754  13.525  17.668  0.00  0.00    +0.000 OA
BRANCH  14  15
ATOM     15  C   UNL     1      10.985  13.715  16.967  0.00  0.00    +0.000 C 
ATOM     16  C   UNL     1      11.361  15.186  17.053  0.00  0.00    +0.000 C 
ENDBRANCH  14  15
ENDBRANCH  10  14
ENDBRANCH   1   8
BRANCH   2  17
ATOM     17  C   UNL     1       7.203   6.874  16.944  0.00  0.00    +0.000 C 
BRANCH  17  18
ATOM     18  N   UNL     1       6.323   5.924  17.635  0.00  0.00    +0.000 N 
ATOM     19  C   UNL     1       6.882   4.615  17.942  0.00  0.00    +0.000 C 
ATOM     20  C   UNL     1       4.967   6.265  17.744  0.00  0.00    +0.000 C 
ATOM     21  O   UNL     1       4.589   7.317  17.215  0.00  0.00    +0.000 OA
BRANCH  20  22
ATOM     22  C   UNL     1       4.047   5.398  18.491  0.00  0.00    +0.000 A 
ATOM     23  C   UNL     1       3.728   5.328  19.846  0.00  0.00    +0.000 A 
ATOM     24  C   UNL     1       2.752   4.342  20.105  0.00  0.00    +0.000 A 
ATOM     25  C   UNL     1       2.301   3.754  18.963  0.00  0.00    +0.000 A 
ATOM     26  S   UNL     1       3.071   4.277  17.576  0.00  0.00    +0.000 S 
ATOM     27  C   UNL     1       1.188   2.801  19.161  0.00  0.00    +0.000 C 
ATOM     28  C   UNL     1       1.035   2.803  20.715  0.00  0.00    +0.000 C 
ATOM     29  C   UNL     1       2.045   3.838  21.304  0.00  0.00    +0.000 C 
ENDBRANCH  20  22
ENDBRANCH  17  18
ENDBRANCH   2  17
TORSDOF 8
ENDMDL
MODEL 5
REMARK VINA RESULT:      -7.5      1.602      2.626
REMARK  Name = 
REMARK  11 active torsions:
REMARK  status: ('A' for Active; 'I' for Inactive)
REMARK    1  A    between atoms: C_1  and  C_2
REMARK    2  A    between atoms: C_2  and  O_3
REMARK    3  A    between atoms: O_3  and  C_4
REMARK    4  A    between atoms: C_7  and  N_8
REMARK    5  A    between atoms: C_9  and  C_11
REMARK    6  A    between atoms: C_11  and  N_12
REMARK    7  A    between atoms: N_12  and  C_13
REMARK    8  A    between atoms: C_14  and  C_16
REMARK    9  A    between atoms: C_25  and  O_26
REMARK   10  A    between atoms: O_26  and  C_27
REMARK   11  A    between atoms: C_27  and  C_28
REMARK                            x       y       z     vdW  Elec       q    Type
REMARK                         _______ _______ _______ _____ _____    ______ ____
ROOT
ATOM      1  N   UNL     1       8.005   8.910  17.443  0.00  0.00    +0.000 N 
ATOM      2  C   UNL     1       7.904   7.580  17.821  0.00  0.00    +0.000 C 
ATOM      3  O   UNL     1       8.320   7.105  18.875  0.00  0.00    +0.000 OA
ATOM      4  H   UNL     1       7.865   9.114  16.457  0.00  0.00    +0.000 HD
ENDROOT
BRANCH   1   8
ATOM      5  C   UNL     1       9.831  12.075  19.594  0.00  0.00    +0.000 A 
ATOM      6  C   UNL     1       9.807  10.781  20.126  0.00  0.00    +0.000 A 
ATOM      7  C   UNL     1       9.177   9.734  19.448  0.00  0.00    +0.000 A 
ATOM      8  C   UNL     1       8.550   9.956  18.226  0.00  0.00    +0.000 A 
ATOM      9  C   UNL     1       8.457  11.274  17.760  0.00  0.00    +0.000 A 
ATOM     10  C   UNL     1       9.070  12.342  18.448  0.00  0.00    +0.000 A 
BRANCH   5  11
ATOM     11  O   UNL     1      10.596  13.070  20.150  0.00  0.00    +0.000 OA
BRANCH  11  13
ATOM     12  C   UNL     1      10.236  15.198  21.210  0.00  0.00    +0.000 C 
ATOM     13  C   UNL     1      10.045  13.698  21.314  0.00  0.00    +0.000 C 
ENDBRANCH  11  13
ENDBRANCH   5  11
BRANCH  10  14
ATOM     14  O   UNL     1       8.872  13.560  17.842  0.00  0.00    +0.000 OA
BRANCH  14  15
ATOM     15  C   UNL     1       7.816  14.384  18.340  0.00  0.00    +0.000 C 
ATOM     16  C   UNL     1       8.026  15.797  17.816  0.00  0.00    +0.000 C 
ENDBRANCH  14  15
ENDBRANCH  10  14
ENDBRANCH   1   8
BRANCH   2  17
ATOM     17  C   UNL     1       7.209   6.673  16.794  0.00  0.00    +0.000 C 
BRANCH  17  18
ATOM     18  N   UNL     1       6.188   5.821  17.414  0.00  0.00    +0.000 N 
ATOM     19  C   UNL     1       6.650   4.590  18.039  0.00  0.00    +0.000 C 
ATOM     20  C   UNL     1       4.844   6.142  17.166  0.00  0.00    +0.000 C 
ATOM     21  O   UNL     1       4.605   7.089  16.408  0.00  0.00    +0.000 OA
BRANCH  20  22
ATOM     22  C   UNL     1       3.773   5.380  17.818  0.00  0.00    +0.000 A 
ATOM     23  C   UNL     1       3.112   4.208  17.455  0.00  0.00    +0.000 A 
ATOM     24  C   UNL     1       2.157   3.822  18.420  0.00  0.00    +0.000 A 
ATOM     25  C   UNL     1       2.168   4.642  19.507  0.00  0.00    +0.000 A 
ATOM     26  S   UNL     1       3.229   5.926  19.384  0.00  0.00    +0.000 S 
ATOM     27  C   UNL     1       1.276   4.215  20.607  0.00  0.00    +0.000 C 
ATOM     28  C   UNL     1       0.582   2.960  19.990  0.00  0.00    +0.000 C 
ATOM     29  C   UNL     1       1.196   2.708  18.577  0.00  0.00    +0.000 C 
ENDBRANCH  20  22
ENDBRANCH  17  18
ENDBRANCH   2  17
TORSDOF 8
ENDMDL
MODEL 6
REMARK VINA RESULT:      -7.5      6.075      7.579
REMARK  Name = 
REMARK  11 active torsions:
REMARK  status: ('A' for Active; 'I' for Inactive)
REMARK    1  A    between atoms: C_1  and  C_2
REMARK    2  A    between atoms: C_2  and  O_3
REMARK    3  A    between atoms: O_3  and  C_4
REMARK    4  A    between atoms: C_7  and  N_8
REMARK    5  A    between atoms: C_9  and  C_11
REMARK    6  A    between atoms: C_11  and  N_12
REMARK    7  A    between atoms: N_12  and  C_13
REMARK    8  A    between atoms: C_14  and  C_16
REMARK    9  A    between atoms: C_25  and  O_26
REMARK   10  A    between atoms: O_26  and  C_27
REMARK   11  A    between atoms: C_27  and  C_28
REMARK                            x       y       z     vdW  Elec       q    Type
REMARK                         _______ _______ _______ _____ _____    ______ ____
ROOT
ATOM      1  N   UNL     1       3.044   6.421  18.936  0.00  0.00    +0.000 N 
ATOM      2  C   UNL     1       2.789   5.354  19.784  0.00  0.00    +0.000 C 
ATOM      3  O   UNL     1       1.963   5.347  20.694  0.00  0.00    +0.000 OA
ATOM      4  H   UNL     1       3.916   6.388  18.414  0.00  0.00    +0.000 HD
ENDROOT
BRANCH   1   8
ATOM      5  C   UNL     1       0.759   9.992  18.907  0.00  0.00    +0.000 A 
ATOM      6  C   UNL     1       1.657   9.720  17.870  0.00  0.00    +0.000 A 
ATOM      7  C   UNL     1       2.445   8.567  17.882  0.00  0.00    +0.000 A 
ATOM      8  C   UNL     1       2.360   7.660  18.934  0.00  0.00    +0.000 A 
ATOM      9  C   UNL     1       1.563   7.999  20.036  0.00  0.00    +0.000 A 
ATOM     10  C   UNL     1       0.781   9.172  20.044  0.00  0.00    +0.000 A 
BRANCH   5  11
ATOM     11  O   UNL     1      -0.149  11.018  18.826  0.00  0.00    +0.000 OA
BRANCH  11  13
ATOM     12  C   UNL     1      -2.248  10.019  18.209  0.00  0.00    +0.000 C 
ATOM     13  C   UNL     1      -1.108  10.914  17.766  0.00  0.00    +0.000 C 
ENDBRANCH  11  13
ENDBRANCH   5  11
BRANCH  10  14
ATOM     14  O   UNL     1       0.066   9.336  21.206  0.00  0.00    +0.000 OA
BRANCH  14  15
ATOM     15  C   UNL     1       0.768   9.196  22.443  0.00  0.00    +0.000 C 
ATOM     16  C   UNL     1      -0.146   9.659  23.567  0.00  0.00    +0.000 C 
ENDBRANCH  14  15
ENDBRANCH  10  14
ENDBRANCH   1   8
BRANCH   2  17
ATOM     17  C   UNL     1       3.645   4.105  19.518  0.00  0.00    +0.000 C 
BRANCH  17  18
ATOM     18  N   UNL     1       4.051   4.006  18.112  0.00  0.00    +0.000 N 
ATOM     19  C   UNL     1       3.065   3.481  17.178  0.00  0.00    +0.000 C 
ATOM     20  C   UNL     1       5.408   4.209  17.818  0.00  0.00    +0.000 C 
ATOM     21  O   UNL     1       6.182   4.414  18.761  0.00  0.00    +0.000 OA
BRANCH  20  22
ATOM     22  C   UNL     1       5.869   4.202  16.424  0.00  0.00    +0.000 A 
ATOM     23  C   UNL     1       5.431   3.498  15.304  0.00  0.00    +0.000 A 
ATOM     24  C   UNL     1       6.166   3.839  14.148  0.00  0.00    +0.000 A 
ATOM     25  C   UNL     1       7.070   4.827  14.390  0.00  0.00    +0.000 A 
ATOM     26  S   UNL     1       7.140   5.314  15.986  0.00  0.00    +0.000 S 
ATOM     27  C   UNL     1       7.783   5.314  13.190  0.00  0.00    +0.000 C 
ATOM     28  C   UNL     1       7.225   4.370  12.078  0.00  0.00    +0.000 C 
ATOM     29  C   UNL     1       6.151   3.438  12.723  0.00  0.00    +0.000 C 
ENDBRANCH  20  22
ENDBRANCH  17  18
ENDBRANCH   2  17
TORSDOF 8
ENDMDL
MODEL 7
REMARK VINA RESULT:      -7.4      1.625      2.341
REMARK  Name = 
REMARK  11 active torsions:
REMARK  status: ('A' for Active; 'I' for Inactive)
REMARK    1  A    between atoms: C_1  and  C_2
REMARK    2  A    between atoms: C_2  and  O_3
REMARK    3  A    between atoms: O_3  and  C_4
REMARK    4  A    between atoms: C_7  and  N_8
REMARK    5  A    between atoms: C_9  and  C_11
REMARK    6  A    between atoms: C_11  and  N_12
REMARK    7  A    between atoms: N_12  and  C_13
REMARK    8  A    between atoms: C_14  and  C_16
REMARK    9  A    between atoms: C_25  and  O_26
REMARK   10  A    between atoms: O_26  and  C_27
REMARK   11  A    between atoms: C_27  and  C_28
REMARK                            x       y       z     vdW  Elec       q    Type
REMARK                         _______ _______ _______ _____ _____    ______ ____
ROOT
ATOM      1  N   UNL     1       8.029   8.877  17.409  0.00  0.00    +0.000 N 
ATOM      2  C   UNL     1       7.937   7.562  17.839  0.00  0.00    +0.000 C 
ATOM      3  O   UNL     1       8.327   7.137  18.924  0.00  0.00    +0.000 OA
ATOM      4  H   UNL     1       7.915   9.038  16.412  0.00  0.00    +0.000 HD
ENDROOT
BRANCH   1   8
ATOM      5  C   UNL     1       9.725  12.172  19.467  0.00  0.00    +0.000 A 
ATOM      6  C   UNL     1       9.809  10.884  20.006  0.00  0.00    +0.000 A 
ATOM      7  C   UNL     1       9.224   9.793  19.361  0.00  0.00    +0.000 A 
ATOM      8  C   UNL     1       8.534   9.963  18.164  0.00  0.00    +0.000 A 
ATOM      9  C   UNL     1       8.334  11.268  17.696  0.00  0.00    +0.000 A 
ATOM     10  C   UNL     1       8.902  12.380  18.352  0.00  0.00    +0.000 A 
BRANCH   5  11
ATOM     11  O   UNL     1      10.444  13.221  19.987  0.00  0.00    +0.000 OA
BRANCH  11  13
ATOM     12  C   UNL     1      11.931  14.979  19.295  0.00  0.00    +0.000 C 
ATOM     13  C   UNL     1      11.704  13.481  19.356  0.00  0.00    +0.000 C 
ENDBRANCH  11  13
ENDBRANCH   5  11
BRANCH  10  14
ATOM     14  O   UNL     1       8.599  13.577  17.749  0.00  0.00    +0.000 OA
BRANCH  14  15
ATOM     15  C   UNL     1       7.222  13.855  17.482  0.00  0.00    +0.000 C 
ATOM     16  C   UNL     1       6.822  15.090  18.274  0.00  0.00    +0.000 C 
ENDBRANCH  14  15
ENDBRANCH  10  14
ENDBRANCH   1   8
BRANCH   2  17
ATOM     17  C   UNL     1       7.286   6.602  16.830  0.00  0.00    +0.000 C 
BRANCH  17  18
ATOM     18  N   UNL     1       5.946   6.184  17.254  0.00  0.00    +0.000 N 
ATOM     19  C   UNL     1       4.879   7.167  17.125  0.00  0.00    +0.000 C 
ATOM     20  C   UNL     1       5.840   4.968  17.946  0.00  0.00    +0.000 C 
ATOM     21  O   UNL     1       6.881   4.350  18.196  0.00  0.00    +0.000 OA
BRANCH  20  22
ATOM     22  C   UNL     1       4.520   4.452  18.330  0.00  0.00    +0.000 A 
ATOM     23  C   UNL     1       3.738   3.420  17.813  0.00  0.00    +0.000 A 
ATOM     24  C   UNL     1       2.535   3.261  18.533  0.00  0.00    +0.000 A 
ATOM     25  C   UNL     1       2.464   4.099  19.604  0.00  0.00    +0.000 A 
ATOM     26  S   UNL     1       3.758   5.146  19.738  0.00  0.00    +0.000 S 
ATOM     27  C   UNL     1       1.283   3.893  20.468  0.00  0.00    +0.000 C 
ATOM     28  C   UNL     1       0.510   2.777  19.696  0.00  0.00    +0.000 C 
ATOM     29  C   UNL     1       1.362   2.362  18.456  0.00  0.00    +0.000 C 
ENDBRANCH  20  22
ENDBRANCH  17  18
ENDBRANCH   2  17
TORSDOF 8
ENDMDL
MODEL 8
REMARK VINA RESULT:      -7.4      1.524      2.747
REMARK  Name = 
REMARK  11 active torsions:
REMARK  status: ('A' for Active; 'I' for Inactive)
REMARK    1  A    between atoms: C_1  and  C_2
REMARK    2  A    between atoms: C_2  and  O_3
REMARK    3  A    between atoms: O_3  and  C_4
REMARK    4  A    between atoms: C_7  and  N_8
REMARK    5  A    between atoms: C_9  and  C_11
REMARK    6  A    between atoms: C_11  and  N_12
REMARK    7  A    between atoms: N_12  and  C_13
REMARK    8  A    between atoms: C_14  and  C_16
REMARK    9  A    between atoms: C_25  and  O_26
REMARK   10  A    between atoms: O_26  and  C_27
REMARK   11  A    between atoms: C_27  and  C_28
REMARK                            x       y       z     vdW  Elec       q    Type
REMARK                         _______ _______ _______ _____ _____    ______ ____
ROOT
ATOM      1  N   UNL     1       8.951   8.743  18.583  0.00  0.00    +0.000 N 
ATOM      2  C   UNL     1       7.842   8.404  17.824  0.00  0.00    +0.000 C 
ATOM      3  O   UNL     1       6.946   9.175  17.486  0.00  0.00    +0.000 OA
ATOM      4  H   UNL     1       9.464   7.975  19.006  0.00  0.00    +0.000 HD
ENDROOT
BRANCH   1   8
ATOM      5  C   UNL     1      10.174  12.581  19.906  0.00  0.00    +0.000 A 
ATOM      6  C   UNL     1       9.682  11.643  20.819  0.00  0.00    +0.000 A 
ATOM      7  C   UNL     1       9.240  10.388  20.396  0.00  0.00    +0.000 A 
ATOM      8  C   UNL     1       9.272  10.041  19.049  0.00  0.00    +0.000 A 
ATOM      9  C   UNL     1       9.636  11.026  18.121  0.00  0.00    +0.000 A 
ATOM     10  C   UNL     1      10.063  12.305  18.536  0.00  0.00    +0.000 A 
BRANCH   5  11
ATOM     11  O   UNL     1      10.779  13.742  20.318  0.00  0.00    +0.000 OA
BRANCH  11  13
ATOM     12  C   UNL     1      10.763  16.114  20.717  0.00  0.00    +0.000 C 
ATOM     13  C   UNL     1       9.924  14.888  20.411  0.00  0.00    +0.000 C 
ENDBRANCH  11  13
ENDBRANCH   5  11
BRANCH  10  14
ATOM     14  O   UNL     1      10.379  13.135  17.488  0.00  0.00    +0.000 OA
BRANCH  14  15
ATOM     15  C   UNL     1      11.717  13.091  16.988  0.00  0.00    +0.000 C 
ATOM     16  C   UNL     1      12.333  14.472  17.147  0.00  0.00    +0.000 C 
ENDBRANCH  14  15
ENDBRANCH  10  14
ENDBRANCH   1   8
BRANCH   2  17
ATOM     17  C   UNL     1       7.780   6.928  17.403  0.00  0.00    +0.000 C 
BRANCH  17  18
ATOM     18  N   UNL     1       6.736   6.193  18.125  0.00  0.00    +0.000 N 
ATOM     19  C   UNL     1       7.112   5.600  19.401  0.00  0.00    +0.000 C 
ATOM     20  C   UNL     1       5.540   5.932  17.439  0.00  0.00    +0.000 C 
ATOM     21  O   UNL     1       5.457   6.295  16.259  0.00  0.00    +0.000 OA
BRANCH  20  22
ATOM     22  C   UNL     1       4.425   5.271  18.127  0.00  0.00    +0.000 A 
ATOM     23  C   UNL     1       4.058   3.930  18.228  0.00  0.00    +0.000 A 
ATOM     24  C   UNL     1       2.911   3.758  19.032  0.00  0.00    +0.000 A 
ATOM     25  C   UNL     1       2.487   4.931  19.577  0.00  0.00    +0.000 A 
ATOM     26  S   UNL     1       3.365   6.266  19.093  0.00  0.00    +0.000 S 
ATOM     27  C   UNL     1       1.364   4.795  20.528  0.00  0.00    +0.000 C 
ATOM     28  C   UNL     1       1.054   3.266  20.445  0.00  0.00    +0.000 C 
ATOM     29  C   UNL     1       2.095   2.609  19.486  0.00  0.00    +0.000 C 
ENDBRANCH  20  22
ENDBRANCH  17  18
ENDBRANCH   2  17
TORSDOF 8
ENDMDL
MODEL 9
REMARK VINA RESULT:      -7.4      1.334      2.692
REMARK  Name = 
REMARK  11 active torsions:
REMARK  status: ('A' for Active; 'I' for Inactive)
REMARK    1  A    between atoms: C_1  and  C_2
REMARK    2  A    between atoms: C_2  and  O_3
REMARK    3  A    between atoms: O_3  and  C_4
REMARK    4  A    between atoms: C_7  and  N_8
REMARK    5  A    between atoms: C_9  and  C_11
REMARK    6  A    between atoms: C_11  and  N_12
REMARK    7  A    between atoms: N_12  and  C_13
REMARK    8  A    between atoms: C_14  and  C_16
REMARK    9  A    between atoms: C_25  and  O_26
REMARK   10  A    between atoms: O_26  and  C_27
REMARK   11  A    between atoms: C_27  and  C_28
REMARK                            x       y       z     vdW  Elec       q    Type
REMARK                         _______ _______ _______ _____ _____    ______ ____
ROOT
ATOM      1  N   UNL     1       8.842   8.663  18.862  0.00  0.00    +0.000 N 
ATOM      2  C   UNL     1       7.901   8.291  17.914  0.00  0.00    +0.000 C 
ATOM      3  O   UNL     1       7.169   9.061  17.296  0.00  0.00    +0.000 OA
ATOM      4  H   UNL     1       9.183   7.929  19.476  0.00  0.00    +0.000 HD
ENDROOT
BRANCH   1   8
ATOM      5  C   UNL     1      10.060  12.584  19.920  0.00  0.00    +0.000 A 
ATOM      6  C   UNL     1       9.551  11.716  20.893  0.00  0.00    +0.000 A 
ATOM      7  C   UNL     1       9.110  10.435  20.555  0.00  0.00    +0.000 A 
ATOM      8  C   UNL     1       9.161   9.991  19.237  0.00  0.00    +0.000 A 
ATOM      9  C   UNL     1       9.543  10.905  18.246  0.00  0.00    +0.000 A 
ATOM     10  C   UNL     1       9.968  12.209  18.573  0.00  0.00    +0.000 A 
BRANCH   5  11
ATOM     11  O   UNL     1      10.664  13.770  20.256  0.00  0.00    +0.000 OA
BRANCH  11  13
ATOM     12  C   UNL     1       9.230  15.640  19.778  0.00  0.00    +0.000 C 
ATOM     13  C   UNL     1       9.811  14.751  20.860  0.00  0.00    +0.000 C 
ENDBRANCH  11  13
ENDBRANCH   5  11
BRANCH  10  14
ATOM     14  O   UNL     1      10.304  12.960  17.472  0.00  0.00    +0.000 OA
BRANCH  14  15
ATOM     15  C   UNL     1      11.557  13.647  17.495  0.00  0.00    +0.000 C 
ATOM     16  C   UNL     1      12.333  13.266  16.243  0.00  0.00    +0.000 C 
ENDBRANCH  14  15
ENDBRANCH  10  14
ENDBRANCH   1   8
BRANCH   2  17
ATOM     17  C   UNL     1       7.809   6.778  17.662  0.00  0.00    +0.000 C 
BRANCH  17  18
ATOM     18  N   UNL     1       6.449   6.268  17.867  0.00  0.00    +0.000 N 
ATOM     19  C   UNL     1       5.432   6.713  16.925  0.00  0.00    +0.000 C 
ATOM     20  C   UNL     1       6.192   5.581  19.064  0.00  0.00    +0.000 C 
ATOM     21  O   UNL     1       7.110   5.489  19.888  0.00  0.00    +0.000 OA
BRANCH  20  22
ATOM     22  C   UNL     1       4.875   4.977  19.298  0.00  0.00    +0.000 A 
ATOM     23  C   UNL     1       3.702   5.488  19.851  0.00  0.00    +0.000 A 
ATOM     24  C   UNL     1       2.660   4.537  19.845  0.00  0.00    +0.000 A 
ATOM     25  C   UNL     1       3.028   3.378  19.232  0.00  0.00    +0.000 A 
ATOM     26  S   UNL     1       4.620   3.347  18.729  0.00  0.00    +0.000 S 
ATOM     27  C   UNL     1       1.939   2.389  19.085  0.00  0.00    +0.000 C 
ATOM     28  C   UNL     1       0.758   3.099  19.819  0.00  0.00    +0.000 C 
ATOM     29  C   UNL     1       1.245   4.509  20.279  0.00  0.00    +0.000 C 
ENDBRANCH  20  22
ENDBRANCH  17  18
ENDBRANCH   2  17
TORSDOF 8
ENDMDL
