MODEL 1
REMARK VINA RESULT:      -9.1      0.000      0.000
REMARK  Name = 
REMARK  7 active torsions:
REMARK  status: ('A' for Active; 'I' for Inactive)
REMARK    1  A    between atoms: C_2  and  C_3
REMARK    2  A    between atoms: N_5  and  C_6
REMARK    3  A    between atoms: C_13  and  C_14
REMARK    4  A    between atoms: C_17  and  O_18
REMARK    5  A    between atoms: O_18  and  C_19
REMARK    6  A    between atoms: C_22  and  O_23
REMARK    7  A    between atoms: O_23  and  C_24
REMARK                            x       y       z     vdW  Elec       q    Type
REMARK                         _______ _______ _______ _____ _____    ______ ____
ROOT
ATOM      1  C   UNL     1       6.869   6.180  15.910  0.00  0.00    +0.000 C 
ATOM      2  C   UNL     1       7.386   4.764  16.181  0.00  0.00    +0.000 C 
ATOM      3  C   UNL     1       6.151   3.879  16.137  0.00  0.00    +0.000 C 
ATOM      4  N   UNL     1       5.108   4.749  16.637  0.00  0.00    +0.000 N 
ATOM      5  C   UNL     1       3.998   4.333  17.314  0.00  0.00    +0.000 A 
ATOM      6  C   UNL     1       3.544   3.026  17.240  0.00  0.00    +0.000 A 
ATOM      7  C   UNL     1       2.489   2.605  18.048  0.00  0.00    +0.000 A 
ATOM      8  C   UNL     1       1.942   3.465  19.004  0.00  0.00    +0.000 A 
ATOM      9  C   UNL     1       2.485   4.743  19.065  0.00  0.00    +0.000 A 
ATOM     10  N   UNL     1       3.401   5.196  18.156  0.00  0.00    +0.000 NA
ATOM     11  C   UNL     1       5.369   6.147  16.305  0.00  0.00    +0.000 C 
ENDROOT
BRANCH   8  12
ATOM     12  C   UNL     1       0.864   2.894  19.854  0.00  0.00    +0.000 C 
ATOM     13  N   UNL     1       0.939   2.991  21.210  0.00  0.00    +0.000 N 
ATOM     14  O   UNL     1      -0.108   2.337  19.347  0.00  0.00    +0.000 OA
ATOM     15  H   UNL     1       1.704   3.434  21.690  0.00  0.00    +0.000 HD
ATOM     16  H   UNL     1       0.167   2.602  21.738  0.00  0.00    +0.000 HD
ENDBRANCH   8  12
BRANCH   1  19
ATOM     17  C   UNL     1       7.762   7.105  18.029  0.00  0.00    +0.000 C 
ATOM     18  O   UNL     1       7.201   6.276  18.733  0.00  0.00    +0.000 OA
ATOM     19  N   UNL     1       7.654   7.152  16.664  0.00  0.00    +0.000 N 
ATOM     20  H   UNL     1       8.262   7.768  16.144  0.00  0.00    +0.000 HD
BRANCH  17  22
ATOM     21  C   UNL     1       8.439   9.467  18.184  0.00  0.00    +0.000 C 
ATOM     22  C   UNL     1       8.609   8.198  18.575  0.00  0.00    +0.000 C 
ENDBRANCH  17  22
ENDBRANCH   1  19
BRANCH   9  23
ATOM     23  O   UNL     1       2.161   5.589  20.130  0.00  0.00    +0.000 OA
BRANCH  23  24
ATOM     24  C   UNL     1       1.887   6.925  19.873  0.00  0.00    +0.000 A 
ATOM     25  C   UNL     1       2.222   7.598  18.693  0.00  0.00    +0.000 A 
ATOM     26  C   UNL     1       1.771   8.896  18.452  0.00  0.00    +0.000 A 
ATOM     27  C   UNL     1       1.060   9.582  19.429  0.00  0.00    +0.000 A 
ATOM     28  C   UNL     1       0.889   8.991  20.683  0.00  0.00    +0.000 A 
ATOM     29  C   UNL     1       1.268   7.654  20.893  0.00  0.00    +0.000 A 
BRANCH  27  30
ATOM     30  O   UNL     1       0.654  10.847  19.077  0.00  0.00    +0.000 OA
BRANCH  30  31
ATOM     31  C   UNL     1      -0.680  11.156  18.949  0.00  0.00    +0.000 A 
ATOM     32  C   UNL     1      -1.170  12.063  19.895  0.00  0.00    +0.000 A 
ATOM     33  C   UNL     1      -2.519  12.423  19.897  0.00  0.00    +0.000 A 
ATOM     34  C   UNL     1      -3.383  11.878  18.949  0.00  0.00    +0.000 A 
ATOM     35  C   UNL     1      -2.889  11.017  17.971  0.00  0.00    +0.000 A 
ATOM     36  C   UNL     1      -1.533  10.684  17.950  0.00  0.00    +0.000 A 
ENDBRANCH  30  31
ENDBRANCH  27  30
ENDBRANCH  23  24
ENDBRANCH   9  23
TORSDOF 7
ENDMDL
MODEL 2
REMARK VINA RESULT:      -8.9      1.599      2.124
REMARK  Name = 
REMARK  7 active torsions:
REMARK  status: ('A' for Active; 'I' for Inactive)
REMARK    1  A    between atoms: C_2  and  C_3
REMARK    2  A    between atoms: N_5  and  C_6
REMARK    3  A    between atoms: C_13  and  C_14
REMARK    4  A    between atoms: C_17  and  O_18
REMARK    5  A    between atoms: O_18  and  C_19
REMARK    6  A    between atoms: C_22  and  O_23
REMARK    7  A    between atoms: O_23  and  C_24
REMARK                            x       y       z     vdW  Elec       q    Type
REMARK                         _______ _______ _______ _____ _____    ______ ____
ROOT
ATOM      1  C   UNL     1       6.950   6.380  15.975  0.00  0.00    +0.000 C 
ATOM      2  C   UNL     1       7.483   4.968  16.231  0.00  0.00    +0.000 C 
ATOM      3  C   UNL     1       6.265   4.064  16.134  0.00  0.00    +0.000 C 
ATOM      4  N   UNL     1       5.193   4.906  16.621  0.00  0.00    +0.000 N 
ATOM      5  C   UNL     1       4.071   4.457  17.257  0.00  0.00    +0.000 A 
ATOM      6  C   UNL     1       3.642   3.145  17.143  0.00  0.00    +0.000 A 
ATOM      7  C   UNL     1       2.573   2.690  17.912  0.00  0.00    +0.000 A 
ATOM      8  C   UNL     1       1.984   3.521  18.869  0.00  0.00    +0.000 A 
ATOM      9  C   UNL     1       2.503   4.806  18.972  0.00  0.00    +0.000 A 
ATOM     10  N   UNL     1       3.437   5.293  18.100  0.00  0.00    +0.000 NA
ATOM     11  C   UNL     1       5.440   6.315  16.326  0.00  0.00    +0.000 C 
ENDROOT
BRANCH   8  12
ATOM     12  C   UNL     1       0.892   2.914  19.676  0.00  0.00    +0.000 C 
ATOM     13  N   UNL     1       0.884   3.056  21.030  0.00  0.00    +0.000 N 
ATOM     14  O   UNL     1      -0.016   2.288  19.134  0.00  0.00    +0.000 OA
ATOM     15  H   UNL     1       1.594   3.556  21.538  0.00  0.00    +0.000 HD
ATOM     16  H   UNL     1       0.105   2.638  21.527  0.00  0.00    +0.000 HD
ENDBRANCH   8  12
BRANCH   1  19
ATOM     17  C   UNL     1       7.870   7.208  18.122  0.00  0.00    +0.000 C 
ATOM     18  O   UNL     1       7.403   6.288  18.781  0.00  0.00    +0.000 OA
ATOM     19  N   UNL     1       7.697   7.349  16.771  0.00  0.00    +0.000 N 
ATOM     20  H   UNL     1       8.234   8.048  16.277  0.00  0.00    +0.000 HD
BRANCH  17  22
ATOM     21  C   UNL     1       8.597   9.558  18.219  0.00  0.00    +0.000 C 
ATOM     22  C   UNL     1       8.660   8.317  18.718  0.00  0.00    +0.000 C 
ENDBRANCH  17  22
ENDBRANCH   1  19
BRANCH   9  23
ATOM     23  O   UNL     1       2.135   5.623  20.045  0.00  0.00    +0.000 OA
BRANCH  23  24
ATOM     24  C   UNL     1       1.865   6.964  19.811  0.00  0.00    +0.000 A 
ATOM     25  C   UNL     1       2.148   7.642  18.620  0.00  0.00    +0.000 A 
ATOM     26  C   UNL     1       1.701   8.946  18.410  0.00  0.00    +0.000 A 
ATOM     27  C   UNL     1       1.048   9.634  19.427  0.00  0.00    +0.000 A 
ATOM     28  C   UNL     1       0.934   9.037  20.683  0.00  0.00    +0.000 A 
ATOM     29  C   UNL     1       1.306   7.694  20.865  0.00  0.00    +0.000 A 
BRANCH  27  30
ATOM     30  O   UNL     1       0.641  10.906  19.104  0.00  0.00    +0.000 OA
BRANCH  30  31
ATOM     31  C   UNL     1       1.497  11.977  19.212  0.00  0.00    +0.000 A 
ATOM     32  C   UNL     1       1.510  12.599  20.465  0.00  0.00    +0.000 A 
ATOM     33  C   UNL     1       2.305  13.725  20.687  0.00  0.00    +0.000 A 
ATOM     34  C   UNL     1       3.094  14.231  19.656  0.00  0.00    +0.000 A 
ATOM     35  C   UNL     1       3.128  13.582  18.423  0.00  0.00    +0.000 A 
ATOM     36  C   UNL     1       2.357  12.437  18.213  0.00  0.00    +0.000 A 
ENDBRANCH  30  31
ENDBRANCH  27  30
ENDBRANCH  23  24
ENDBRANCH   9  23
TORSDOF 7
ENDMDL
MODEL 3
REMARK VINA RESULT:      -8.7      0.714      1.118
REMARK  Name = 
REMARK  7 active torsions:
REMARK  status: ('A' for Active; 'I' for Inactive)
REMARK    1  A    between atoms: C_2  and  C_3
REMARK    2  A    between atoms: N_5  and  C_6
REMARK    3  A    between atoms: C_13  and  C_14
REMARK    4  A    between atoms: C_17  and  O_18
REMARK    5  A    between atoms: O_18  and  C_19
REMARK    6  A    between atoms: C_22  and  O_23
REMARK    7  A    between atoms: O_23  and  C_24
REMARK                            x       y       z     vdW  Elec       q    Type
REMARK                         _______ _______ _______ _____ _____    ______ ____
ROOT
ATOM      1  C   UNL     1       6.925   6.466  16.268  0.00  0.00    +0.000 C 
ATOM      2  C   UNL     1       7.577   5.147  16.692  0.00  0.00    +0.000 C 
ATOM      3  C   UNL     1       6.432   4.149  16.768  0.00  0.00    +0.000 C 
ATOM      4  N   UNL     1       5.312   4.967  17.180  0.00  0.00    +0.000 N 
ATOM      5  C   UNL     1       4.250   4.528  17.916  0.00  0.00    +0.000 A 
ATOM      6  C   UNL     1       3.924   3.184  17.999  0.00  0.00    +0.000 A 
ATOM      7  C   UNL     1       2.918   2.761  18.865  0.00  0.00    +0.000 A 
ATOM      8  C   UNL     1       2.293   3.669  19.724  0.00  0.00    +0.000 A 
ATOM      9  C   UNL     1       2.711   4.991  19.630  0.00  0.00    +0.000 A 
ATOM     10  N   UNL     1       3.576   5.422  18.663  0.00  0.00    +0.000 NA
ATOM     11  C   UNL     1       5.436   6.336  16.686  0.00  0.00    +0.000 C 
ENDROOT
BRANCH   8  12
ATOM     12  C   UNL     1       1.279   3.100  20.650  0.00  0.00    +0.000 C 
ATOM     13  N   UNL     1       1.587   2.896  21.960  0.00  0.00    +0.000 N 
ATOM     14  O   UNL     1       0.152   2.815  20.249  0.00  0.00    +0.000 OA
ATOM     15  H   UNL     1       2.487   3.108  22.355  0.00  0.00    +0.000 HD
ATOM     16  H   UNL     1       0.850   2.525  22.549  0.00  0.00    +0.000 HD
ENDBRANCH   8  12
BRANCH   1  19
ATOM     17  C   UNL     1       8.044   7.552  18.194  0.00  0.00    +0.000 C 
ATOM     18  O   UNL     1       7.870   6.602  18.947  0.00  0.00    +0.000 OA
ATOM     19  N   UNL     1       7.615   7.589  16.894  0.00  0.00    +0.000 N 
ATOM     20  H   UNL     1       7.925   8.342  16.296  0.00  0.00    +0.000 HD
BRANCH  17  22
ATOM     21  C   UNL     1       8.489   9.963  17.972  0.00  0.00    +0.000 C 
ATOM     22  C   UNL     1       8.716   8.810  18.613  0.00  0.00    +0.000 C 
ENDBRANCH  17  22
ENDBRANCH   1  19
BRANCH   9  23
ATOM     23  O   UNL     1       2.311   5.920  20.596  0.00  0.00    +0.000 OA
BRANCH  23  24
ATOM     24  C   UNL     1       1.888   7.178  20.190  0.00  0.00    +0.000 A 
ATOM     25  C   UNL     1       2.210   7.774  18.966  0.00  0.00    +0.000 A 
ATOM     26  C   UNL     1       1.616   8.972  18.570  0.00  0.00    +0.000 A 
ATOM     27  C   UNL     1       0.764   9.650  19.435  0.00  0.00    +0.000 A 
ATOM     28  C   UNL     1       0.590   9.164  20.732  0.00  0.00    +0.000 A 
ATOM     29  C   UNL     1       1.119   7.914  21.097  0.00  0.00    +0.000 A 
BRANCH  27  30
ATOM     30  O   UNL     1       0.226  10.811  18.936  0.00  0.00    +0.000 OA
BRANCH  30  31
ATOM     31  C   UNL     1      -1.102  10.888  18.586  0.00  0.00    +0.000 A 
ATOM     32  C   UNL     1      -1.578   9.811  17.832  0.00  0.00    +0.000 A 
ATOM     33  C   UNL     1      -2.898   9.795  17.379  0.00  0.00    +0.000 A 
ATOM     34  C   UNL     1      -3.749  10.855  17.682  0.00  0.00    +0.000 A 
ATOM     35  C   UNL     1      -3.296  11.904  18.480  0.00  0.00    +0.000 A 
ATOM     36  C   UNL     1      -1.984  11.903  18.960  0.00  0.00    +0.000 A 
ENDBRANCH  30  31
ENDBRANCH  27  30
ENDBRANCH  23  24
ENDBRANCH   9  23
TORSDOF 7
ENDMDL
MODEL 4
REMARK VINA RESULT:      -8.5      1.116      1.484
REMARK  Name = 
REMARK  7 active torsions:
REMARK  status: ('A' for Active; 'I' for Inactive)
REMARK    1  A    between atoms: C_2  and  C_3
REMARK    2  A    between atoms: N_5  and  C_6
REMARK    3  A    between atoms: C_13  and  C_14
REMARK    4  A    between atoms: C_17  and  O_18
REMARK    5  A    between atoms: O_18  and  C_19
REMARK    6  A    between atoms: C_22  and  O_23
REMARK    7  A    between atoms: O_23  and  C_24
REMARK                            x       y       z     vdW  Elec       q    Type
REMARK                         _______ _______ _______ _____ _____    ______ ____
ROOT
ATOM      1  C   UNL     1       7.709   6.603  17.601  0.00  0.00    +0.000 C 
ATOM      2  C   UNL     1       8.171   5.191  17.969  0.00  0.00    +0.000 C 
ATOM      3  C   UNL     1       7.013   4.285  17.581  0.00  0.00    +0.000 C 
ATOM      4  N   UNL     1       5.854   5.122  17.805  0.00  0.00    +0.000 N 
ATOM      5  C   UNL     1       4.615   4.668  18.154  0.00  0.00    +0.000 A 
ATOM      6  C   UNL     1       4.229   3.355  17.935  0.00  0.00    +0.000 A 
ATOM      7  C   UNL     1       3.009   2.894  18.426  0.00  0.00    +0.000 A 
ATOM      8  C   UNL     1       2.208   3.718  19.221  0.00  0.00    +0.000 A 
ATOM      9  C   UNL     1       2.684   5.004  19.451  0.00  0.00    +0.000 A 
ATOM     10  N   UNL     1       3.796   5.497  18.827  0.00  0.00    +0.000 NA
ATOM     11  C   UNL     1       6.159   6.533  17.584  0.00  0.00    +0.000 C 
ENDROOT
BRANCH   8  12
ATOM     12  C   UNL     1       0.958   3.105  19.743  0.00  0.00    +0.000 C 
ATOM     13  N   UNL     1       0.710   3.092  21.082  0.00  0.00    +0.000 N 
ATOM     14  O   UNL     1       0.132   2.612  18.977  0.00  0.00    +0.000 OA
ATOM     15  H   UNL     1       1.341   3.479  21.764  0.00  0.00    +0.000 HD
ATOM     16  H   UNL     1      -0.166   2.679  21.379  0.00  0.00    +0.000 HD
ENDBRANCH   8  12
BRANCH   1  19
ATOM     17  C   UNL     1       8.378   8.899  18.256  0.00  0.00    +0.000 C 
ATOM     18  O   UNL     1       8.093   9.388  17.170  0.00  0.00    +0.000 OA
ATOM     19  N   UNL     1       8.243   7.569  18.556  0.00  0.00    +0.000 N 
ATOM     20  H   UNL     1       8.358   7.268  19.513  0.00  0.00    +0.000 HD
BRANCH  17  22
ATOM     21  C   UNL     1       9.698  10.772  19.156  0.00  0.00    +0.000 C 
ATOM     22  C   UNL     1       8.947   9.686  19.380  0.00  0.00    +0.000 C 
ENDBRANCH  17  22
ENDBRANCH   1  19
BRANCH   9  23
ATOM     23  O   UNL     1       2.069   5.814  20.410  0.00  0.00    +0.000 OA
BRANCH  23  24
ATOM     24  C   UNL     1       1.785   7.136  20.096  0.00  0.00    +0.000 A 
ATOM     25  C   UNL     1       2.122   7.763  18.891  0.00  0.00    +0.000 A 
ATOM     26  C   UNL     1       1.660   9.045  18.593  0.00  0.00    +0.000 A 
ATOM     27  C   UNL     1       0.935   9.764  19.535  0.00  0.00    +0.000 A 
ATOM     28  C   UNL     1       0.760   9.224  20.811  0.00  0.00    +0.000 A 
ATOM     29  C   UNL     1       1.149   7.901  21.079  0.00  0.00    +0.000 A 
BRANCH  27  30
ATOM     30  O   UNL     1       0.520  11.009  19.128  0.00  0.00    +0.000 OA
BRANCH  30  31
ATOM     31  C   UNL     1      -0.782  11.418  19.304  0.00  0.00    +0.000 A 
ATOM     32  C   UNL     1      -1.654  11.076  18.265  0.00  0.00    +0.000 A 
ATOM     33  C   UNL     1      -2.991  11.474  18.305  0.00  0.00    +0.000 A 
ATOM     34  C   UNL     1      -3.463  12.213  19.388  0.00  0.00    +0.000 A 
ATOM     35  C   UNL     1      -2.612  12.508  20.452  0.00  0.00    +0.000 A 
ATOM     36  C   UNL     1      -1.283  12.082  20.425  0.00  0.00    +0.000 A 
ENDBRANCH  30  31
ENDBRANCH  27  30
ENDBRANCH  23  24
ENDBRANCH   9  23
TORSDOF 7
ENDMDL
MODEL 5
REMARK VINA RESULT:      -8.3      1.874      2.353
REMARK  Name = 
REMARK  7 active torsions:
REMARK  status: ('A' for Active; 'I' for Inactive)
REMARK    1  A    between atoms: C_2  and  C_3
REMARK    2  A    between atoms: N_5  and  C_6
REMARK    3  A    between atoms: C_13  and  C_14
REMARK    4  A    between atoms: C_17  and  O_18
REMARK    5  A    between atoms: O_18  and  C_19
REMARK    6  A    between atoms: C_22  and  O_23
REMARK    7  A    between atoms: O_23  and  C_24
REMARK                            x       y       z     vdW  Elec       q    Type
REMARK                         _______ _______ _______ _____ _____    ______ ____
ROOT
ATOM      1  C   UNL     1       7.485   6.950  17.168  0.00  0.00    +0.000 C 
ATOM      2  C   UNL     1       7.938   5.491  17.276  0.00  0.00    +0.000 C 
ATOM      3  C   UNL     1       6.731   4.673  16.845  0.00  0.00    +0.000 C 
ATOM      4  N   UNL     1       5.614   5.479  17.286  0.00  0.00    +0.000 N 
ATOM      5  C   UNL     1       4.394   4.992  17.658  0.00  0.00    +0.000 A 
ATOM      6  C   UNL     1       3.960   3.735  17.269  0.00  0.00    +0.000 A 
ATOM      7  C   UNL     1       2.770   3.219  17.778  0.00  0.00    +0.000 A 
ATOM      8  C   UNL     1       2.052   3.919  18.751  0.00  0.00    +0.000 A 
ATOM      9  C   UNL     1       2.576   5.147  19.138  0.00  0.00    +0.000 A 
ATOM     10  N   UNL     1       3.650   5.717  18.513  0.00  0.00    +0.000 NA
ATOM     11  C   UNL     1       5.937   6.904  17.262  0.00  0.00    +0.000 C 
ENDROOT
BRANCH   8  12
ATOM     12  C   UNL     1       0.830   3.249  19.269  0.00  0.00    +0.000 C 
ATOM     13  N   UNL     1       0.486   3.372  20.580  0.00  0.00    +0.000 N 
ATOM     14  O   UNL     1       0.113   2.585  18.523  0.00  0.00    +0.000 OA
ATOM     15  H   UNL     1       1.025   3.901  21.245  0.00  0.00    +0.000 HD
ATOM     16  H   UNL     1      -0.367   2.911  20.873  0.00  0.00    +0.000 HD
ENDBRANCH   8  12
BRANCH   1  19
ATOM     17  C   UNL     1       8.281   9.103  18.104  0.00  0.00    +0.000 C 
ATOM     18  O   UNL     1       7.947   9.756  17.124  0.00  0.00    +0.000 OA
ATOM     19  N   UNL     1       8.115   7.747  18.216  0.00  0.00    +0.000 N 
ATOM     20  H   UNL     1       8.277   7.305  19.109  0.00  0.00    +0.000 HD
BRANCH  17  22
ATOM     21  C   UNL     1       9.758  10.758  19.171  0.00  0.00    +0.000 C 
ATOM     22  C   UNL     1       8.948   9.699  19.291  0.00  0.00    +0.000 C 
ENDBRANCH  17  22
ENDBRANCH   1  19
BRANCH   9  23
ATOM     23  O   UNL     1       2.057   5.806  20.257  0.00  0.00    +0.000 OA
BRANCH  23  24
ATOM     24  C   UNL     1       1.716   7.148  20.153  0.00  0.00    +0.000 A 
ATOM     25  C   UNL     1       1.941   7.945  19.025  0.00  0.00    +0.000 A 
ATOM     26  C   UNL     1       1.426   9.239  18.945  0.00  0.00    +0.000 A 
ATOM     27  C   UNL     1       0.761   9.796  20.031  0.00  0.00    +0.000 A 
ATOM     28  C   UNL     1       0.702   9.081  21.229  0.00  0.00    +0.000 A 
ATOM     29  C   UNL     1       1.144   7.747  21.279  0.00  0.00    +0.000 A 
BRANCH  27  30
ATOM     30  O   UNL     1       0.285  11.070  19.835  0.00  0.00    +0.000 OA
BRANCH  30  31
ATOM     31  C   UNL     1       1.140  12.123  19.608  0.00  0.00    +0.000 A 
ATOM     32  C   UNL     1       1.823  12.583  20.738  0.00  0.00    +0.000 A 
ATOM     33  C   UNL     1       2.687  13.676  20.645  0.00  0.00    +0.000 A 
ATOM     34  C   UNL     1       2.874  14.311  19.419  0.00  0.00    +0.000 A 
ATOM     35  C   UNL     1       2.239  13.821  18.279  0.00  0.00    +0.000 A 
ATOM     36  C   UNL     1       1.400  12.708  18.367  0.00  0.00    +0.000 A 
ENDBRANCH  30  31
ENDBRANCH  27  30
ENDBRANCH  23  24
ENDBRANCH   9  23
TORSDOF 7
ENDMDL
MODEL 6
REMARK VINA RESULT:      -8.3      1.285      1.500
REMARK  Name = 
REMARK  7 active torsions:
REMARK  status: ('A' for Active; 'I' for Inactive)
REMARK    1  A    between atoms: C_2  and  C_3
REMARK    2  A    between atoms: N_5  and  C_6
REMARK    3  A    between atoms: C_13  and  C_14
REMARK    4  A    between atoms: C_17  and  O_18
REMARK    5  A    between atoms: O_18  and  C_19
REMARK    6  A    between atoms: C_22  and  O_23
REMARK    7  A    between atoms: O_23  and  C_24
REMARK                            x       y       z     vdW  Elec       q    Type
REMARK                         _______ _______ _______ _____ _____    ______ ____
ROOT
ATOM      1  C   UNL     1       7.658   7.281  17.397  0.00  0.00    +0.000 C 
ATOM      2  C   UNL     1       8.140   5.832  17.507  0.00  0.00    +0.000 C 
ATOM      3  C   UNL     1       6.962   4.990  17.045  0.00  0.00    +0.000 C 
ATOM      4  N   UNL     1       5.817   5.769  17.464  0.00  0.00    +0.000 N 
ATOM      5  C   UNL     1       4.600   5.254  17.805  0.00  0.00    +0.000 A 
ATOM      6  C   UNL     1       4.203   3.990  17.400  0.00  0.00    +0.000 A 
ATOM      7  C   UNL     1       3.012   3.445  17.878  0.00  0.00    +0.000 A 
ATOM      8  C   UNL     1       2.257   4.123  18.838  0.00  0.00    +0.000 A 
ATOM      9  C   UNL     1       2.745   5.360  19.244  0.00  0.00    +0.000 A 
ATOM     10  N   UNL     1       3.821   5.957  18.647  0.00  0.00    +0.000 NA
ATOM     11  C   UNL     1       6.109   7.200  17.455  0.00  0.00    +0.000 C 
ENDROOT
BRANCH   8  12
ATOM     12  C   UNL     1       1.039   3.423  19.324  0.00  0.00    +0.000 C 
ATOM     13  N   UNL     1       0.572   3.657  20.582  0.00  0.00    +0.000 N 
ATOM     14  O   UNL     1       0.435   2.636  18.599  0.00  0.00    +0.000 OA
ATOM     15  H   UNL     1       1.015   4.289  21.227  0.00  0.00    +0.000 HD
ATOM     16  H   UNL     1      -0.273   3.167  20.852  0.00  0.00    +0.000 HD
ENDBRANCH   8  12
BRANCH   1  19
ATOM     17  C   UNL     1       8.453   9.434  18.333  0.00  0.00    +0.000 C 
ATOM     18  O   UNL     1       8.194  10.073  17.321  0.00  0.00    +0.000 OA
ATOM     19  N   UNL     1       8.245   8.086  18.463  0.00  0.00    +0.000 N 
ATOM     20  H   UNL     1       8.344   7.660  19.373  0.00  0.00    +0.000 HD
BRANCH  17  22
ATOM     21  C   UNL     1       9.497  11.306  19.543  0.00  0.00    +0.000 C 
ATOM     22  C   UNL     1       9.065  10.039  19.545  0.00  0.00    +0.000 C 
ENDBRANCH  17  22
ENDBRANCH   1  19
BRANCH   9  23
ATOM     23  O   UNL     1       2.186   6.001  20.354  0.00  0.00    +0.000 OA
BRANCH  23  24
ATOM     24  C   UNL     1       1.675   7.283  20.207  0.00  0.00    +0.000 A 
ATOM     25  C   UNL     1       1.932   8.128  19.122  0.00  0.00    +0.000 A 
ATOM     26  C   UNL     1       1.254   9.338  18.975  0.00  0.00    +0.000 A 
ATOM     27  C   UNL     1       0.377   9.772  19.962  0.00  0.00    +0.000 A 
ATOM     28  C   UNL     1       0.261   9.031  21.139  0.00  0.00    +0.000 A 
ATOM     29  C   UNL     1       0.878   7.772  21.247  0.00  0.00    +0.000 A 
BRANCH  27  30
ATOM     30  O   UNL     1      -0.245  10.970  19.705  0.00  0.00    +0.000 OA
BRANCH  30  31
ATOM     31  C   UNL     1      -1.478  11.016  19.098  0.00  0.00    +0.000 A 
ATOM     32  C   UNL     1      -2.317  12.044  19.539  0.00  0.00    +0.000 A 
ATOM     33  C   UNL     1      -3.611  12.168  19.030  0.00  0.00    +0.000 A 
ATOM     34  C   UNL     1      -4.070  11.265  18.074  0.00  0.00    +0.000 A 
ATOM     35  C   UNL     1      -3.219  10.272  17.590  0.00  0.00    +0.000 A 
ATOM     36  C   UNL     1      -1.914  10.170  18.076  0.00  0.00    +0.000 A 
ENDBRANCH  30  31
ENDBRANCH  27  30
ENDBRANCH  23  24
ENDBRANCH   9  23
TORSDOF 7
ENDMDL
MODEL 7
REMARK VINA RESULT:      -8.3      4.473      8.632
REMARK  Name = 
REMARK  7 active torsions:
REMARK  status: ('A' for Active; 'I' for Inactive)
REMARK    1  A    between atoms: C_2  and  C_3
REMARK    2  A    between atoms: N_5  and  C_6
REMARK    3  A    between atoms: C_13  and  C_14
REMARK    4  A    between atoms: C_17  and  O_18
REMARK    5  A    between atoms: O_18  and  C_19
REMARK    6  A    between atoms: C_22  and  O_23
REMARK    7  A    between atoms: O_23  and  C_24
REMARK                            x       y       z     vdW  Elec       q    Type
REMARK                         _______ _______ _______ _____ _____    ______ ____
ROOT
ATOM      1  C   UNL     1       4.247  15.470  20.205  0.00  0.00    +0.000 C 
ATOM      2  C   UNL     1       3.317  16.606  19.769  0.00  0.00    +0.000 C 
ATOM      3  C   UNL     1       1.947  16.217  20.301  0.00  0.00    +0.000 C 
ATOM      4  N   UNL     1       1.970  14.771  20.237  0.00  0.00    +0.000 N 
ATOM      5  C   UNL     1       0.875  13.977  20.051  0.00  0.00    +0.000 A 
ATOM      6  C   UNL     1      -0.409  14.431  20.310  0.00  0.00    +0.000 A 
ATOM      7  C   UNL     1      -1.509  13.640  19.981  0.00  0.00    +0.000 A 
ATOM      8  C   UNL     1      -1.335  12.430  19.304  0.00  0.00    +0.000 A 
ATOM      9  C   UNL     1      -0.024  12.065  19.023  0.00  0.00    +0.000 A 
ATOM     10  N   UNL     1       1.051  12.764  19.497  0.00  0.00    +0.000 NA
ATOM     11  C   UNL     1       3.319  14.246  20.425  0.00  0.00    +0.000 C 
ENDROOT
BRANCH   8  12
ATOM     12  C   UNL     1      -2.579  11.698  18.947  0.00  0.00    +0.000 C 
ATOM     13  N   UNL     1      -2.507  10.504  18.298  0.00  0.00    +0.000 N 
ATOM     14  O   UNL     1      -3.683  12.154  19.240  0.00  0.00    +0.000 OA
ATOM     15  H   UNL     1      -1.639  10.072  18.031  0.00  0.00    +0.000 HD
ATOM     16  H   UNL     1      -3.386  10.040  18.098  0.00  0.00    +0.000 HD
ENDBRANCH   8  12
BRANCH   1  19
ATOM     17  C   UNL     1       6.580  15.633  19.382  0.00  0.00    +0.000 C 
ATOM     18  O   UNL     1       6.989  16.203  20.385  0.00  0.00    +0.000 OA
ATOM     19  N   UNL     1       5.277  15.252  19.194  0.00  0.00    +0.000 N 
ATOM     20  H   UNL     1       5.048  14.658  18.410  0.00  0.00    +0.000 HD
BRANCH  17  22
ATOM     21  C   UNL     1       8.023  14.112  18.092  0.00  0.00    +0.000 C 
ATOM     22  C   UNL     1       7.444  15.313  18.216  0.00  0.00    +0.000 C 
ENDBRANCH  17  22
ENDBRANCH   1  19
BRANCH   9  23
ATOM     23  O   UNL     1       0.232  10.997  18.158  0.00  0.00    +0.000 OA
BRANCH  23  24
ATOM     24  C   UNL     1       0.924   9.892  18.635  0.00  0.00    +0.000 A 
ATOM     25  C   UNL     1       0.810   9.374  19.930  0.00  0.00    +0.000 A 
ATOM     26  C   UNL     1       1.419   8.169  20.280  0.00  0.00    +0.000 A 
ATOM     27  C   UNL     1       2.237   7.509  19.370  0.00  0.00    +0.000 A 
ATOM     28  C   UNL     1       2.515   8.117  18.144  0.00  0.00    +0.000 A 
ATOM     29  C   UNL     1       1.832   9.284  17.762  0.00  0.00    +0.000 A 
BRANCH  27  30
ATOM     30  O   UNL     1       2.773   6.326  19.818  0.00  0.00    +0.000 OA
BRANCH  30  31
ATOM     31  C   UNL     1       2.149   5.125  19.574  0.00  0.00    +0.000 A 
ATOM     32  C   UNL     1       1.637   4.484  20.708  0.00  0.00    +0.000 A 
ATOM     33  C   UNL     1       1.020   3.237  20.597  0.00  0.00    +0.000 A 
ATOM     34  C   UNL     1       0.909   2.627  19.349  0.00  0.00    +0.000 A 
ATOM     35  C   UNL     1       1.367   3.286  18.210  0.00  0.00    +0.000 A 
ATOM     36  C   UNL     1       1.955   4.547  18.318  0.00  0.00    +0.000 A 
ENDBRANCH  30  31
ENDBRANCH  27  30
ENDBRANCH  23  24
ENDBRANCH   9  23
TORSDOF 7
ENDMDL
MODEL 8
REMARK VINA RESULT:      -8.2      1.466      1.918
REMARK  Name = 
REMARK  7 active torsions:
REMARK  status: ('A' for Active; 'I' for Inactive)
REMARK    1  A    between atoms: C_2  and  C_3
REMARK    2  A    between atoms: N_5  and  C_6
REMARK    3  A    between atoms: C_13  and  C_14
REMARK    4  A    between atoms: C_17  and  O_18
REMARK    5  A    between atoms: O_18  and  C_19
REMARK    6  A    between atoms: C_22  and  O_23
REMARK    7  A    between atoms: O_23  and  C_24
REMARK                            x       y       z     vdW  Elec       q    Type
REMARK                         _______ _______ _______ _____ _____    ______ ____
ROOT
ATOM      1  C   UNL     1       7.554   6.702  17.347  0.00  0.00    +0.000 C 
ATOM      2  C   UNL     1       8.023   5.266  17.597  0.00  0.00    +0.000 C 
ATOM      3  C   UNL     1       6.838   4.394  17.217  0.00  0.00    +0.000 C 
ATOM      4  N   UNL     1       5.701   5.220  17.560  0.00  0.00    +0.000 N 
ATOM      5  C   UNL     1       4.479   4.751  17.949  0.00  0.00    +0.000 A 
ATOM      6  C   UNL     1       4.070   3.457  17.668  0.00  0.00    +0.000 A 
ATOM      7  C   UNL     1       2.876   2.971  18.197  0.00  0.00    +0.000 A 
ATOM      8  C   UNL     1       2.128   3.746  19.087  0.00  0.00    +0.000 A 
ATOM      9  C   UNL     1       2.627   5.011  19.371  0.00  0.00    +0.000 A 
ATOM     10  N   UNL     1       3.707   5.539  18.719  0.00  0.00    +0.000 NA
ATOM     11  C   UNL     1       6.005   6.641  17.413  0.00  0.00    +0.000 C 
ENDROOT
BRANCH   8  12
ATOM     12  C   UNL     1       0.903   3.107  19.638  0.00  0.00    +0.000 C 
ATOM     13  N   UNL     1       0.664   3.131  20.978  0.00  0.00    +0.000 N 
ATOM     14  O   UNL     1       0.092   2.558  18.895  0.00  0.00    +0.000 OA
ATOM     15  H   UNL     1       1.284   3.563  21.642  0.00  0.00    +0.000 HD
ATOM     16  H   UNL     1      -0.195   2.698  21.295  0.00  0.00    +0.000 HD
ENDBRANCH   8  12
BRANCH   1  19
ATOM     17  C   UNL     1       8.278   8.947  18.109  0.00  0.00    +0.000 C 
ATOM     18  O   UNL     1       7.937   9.507  17.075  0.00  0.00    +0.000 OA
ATOM     19  N   UNL     1       8.150   7.601  18.330  0.00  0.00    +0.000 N 
ATOM     20  H   UNL     1       8.315   7.239  19.258  0.00  0.00    +0.000 HD
BRANCH  17  22
ATOM     21  C   UNL     1       9.596  10.796  19.061  0.00  0.00    +0.000 C 
ATOM     22  C   UNL     1       8.916   9.657  19.248  0.00  0.00    +0.000 C 
ENDBRANCH  17  22
ENDBRANCH   1  19
BRANCH   9  23
ATOM     23  O   UNL     1       2.075   5.761  20.414  0.00  0.00    +0.000 OA
BRANCH  23  24
ATOM     24  C   UNL     1       1.721   7.084  20.182  0.00  0.00    +0.000 A 
ATOM     25  C   UNL     1       2.038   7.805  19.026  0.00  0.00    +0.000 A 
ATOM     26  C   UNL     1       1.510   9.077  18.805  0.00  0.00    +0.000 A 
ATOM     27  C   UNL     1       0.735   9.693  19.781  0.00  0.00    +0.000 A 
ATOM     28  C   UNL     1       0.576   9.062  21.016  0.00  0.00    +0.000 A 
ATOM     29  C   UNL     1       1.034   7.747  21.204  0.00  0.00    +0.000 A 
BRANCH  27  30
ATOM     30  O   UNL     1       0.257  10.938  19.450  0.00  0.00    +0.000 OA
BRANCH  30  31
ATOM     31  C   UNL     1      -0.122  11.836  20.420  0.00  0.00    +0.000 A 
ATOM     32  C   UNL     1       0.835  12.808  20.732  0.00  0.00    +0.000 A 
ATOM     33  C   UNL     1       0.586  13.749  21.732  0.00  0.00    +0.000 A 
ATOM     34  C   UNL     1      -0.624  13.725  22.422  0.00  0.00    +0.000 A 
ATOM     35  C   UNL     1      -1.603  12.794  22.077  0.00  0.00    +0.000 A 
ATOM     36  C   UNL     1      -1.365  11.873  21.054  0.00  0.00    +0.000 A 
ENDBRANCH  30  31
ENDBRANCH  27  30
ENDBRANCH  23  24
ENDBRANCH   9  23
TORSDOF 7
ENDMDL
MODEL 9
REMARK VINA RESULT:      -8.2      0.769      1.308
REMARK  Name = 
REMARK  7 active torsions:
REMARK  status: ('A' for Active; 'I' for Inactive)
REMARK    1  A    between atoms: C_2  and  C_3
REMARK    2  A    between atoms: N_5  and  C_6
REMARK    3  A    between atoms: C_13  and  C_14
REMARK    4  A    between atoms: C_17  and  O_18
REMARK    5  A    between atoms: O_18  and  C_19
REMARK    6  A    between atoms: C_22  and  O_23
REMARK    7  A    between atoms: O_23  and  C_24
REMARK                            x       y       z     vdW  Elec       q    Type
REMARK                         _______ _______ _______ _____ _____    ______ ____
ROOT
ATOM      1  C   UNL     1       6.689   6.269  15.845  0.00  0.00    +0.000 C 
ATOM      2  C   UNL     1       7.167   4.815  15.862  0.00  0.00    +0.000 C 
ATOM      3  C   UNL     1       5.896   3.982  15.818  0.00  0.00    +0.000 C 
ATOM      4  N   UNL     1       4.944   4.801  16.536  0.00  0.00    +0.000 N 
ATOM      5  C   UNL     1       3.885   4.325  17.255  0.00  0.00    +0.000 A 
ATOM      6  C   UNL     1       3.370   3.056  17.044  0.00  0.00    +0.000 A 
ATOM      7  C   UNL     1       2.380   2.555  17.886  0.00  0.00    +0.000 A 
ATOM      8  C   UNL     1       1.963   3.284  19.003  0.00  0.00    +0.000 A 
ATOM      9  C   UNL     1       2.564   4.524  19.188  0.00  0.00    +0.000 A 
ATOM     10  N   UNL     1       3.409   5.075  18.265  0.00  0.00    +0.000 NA
ATOM     11  C   UNL     1       5.233   6.224  16.379  0.00  0.00    +0.000 C 
ENDROOT
BRANCH   8  12
ATOM     12  C   UNL     1       0.946   2.629  19.868  0.00  0.00    +0.000 C 
ATOM     13  N   UNL     1       1.016   2.757  21.221  0.00  0.00    +0.000 N 
ATOM     14  O   UNL     1       0.030   1.974  19.375  0.00  0.00    +0.000 OA
ATOM     15  H   UNL     1       1.736   3.279  21.690  0.00  0.00    +0.000 HD
ATOM     16  H   UNL     1       0.285   2.306  21.759  0.00  0.00    +0.000 HD
ENDBRANCH   8  12
BRANCH   1  19
ATOM     17  C   UNL     1       7.644   7.004  18.011  0.00  0.00    +0.000 C 
ATOM     18  O   UNL     1       6.949   6.248  18.677  0.00  0.00    +0.000 OA
ATOM     19  N   UNL     1       7.583   7.099  16.645  0.00  0.00    +0.000 N 
ATOM     20  H   UNL     1       8.288   7.634  16.159  0.00  0.00    +0.000 HD
BRANCH  17  22
ATOM     21  C   UNL     1       8.544   9.266  18.376  0.00  0.00    +0.000 C 
ATOM     22  C   UNL     1       8.622   7.950  18.609  0.00  0.00    +0.000 C 
ENDBRANCH  17  22
ENDBRANCH   1  19
BRANCH   9  23
ATOM     23  O   UNL     1       2.380   5.217  20.388  0.00  0.00    +0.000 OA
BRANCH  23  24
ATOM     24  C   UNL     1       1.883   6.512  20.351  0.00  0.00    +0.000 A 
ATOM     25  C   UNL     1       1.021   7.067  21.304  0.00  0.00    +0.000 A 
ATOM     26  C   UNL     1       0.696   8.423  21.277  0.00  0.00    +0.000 A 
ATOM     27  C   UNL     1       1.147   9.230  20.240  0.00  0.00    +0.000 A 
ATOM     28  C   UNL     1       1.845   8.646  19.181  0.00  0.00    +0.000 A 
ATOM     29  C   UNL     1       2.245   7.300  19.254  0.00  0.00    +0.000 A 
BRANCH  27  30
ATOM     30  O   UNL     1       0.778  10.551  20.324  0.00  0.00    +0.000 OA
BRANCH  30  31
ATOM     31  C   UNL     1      -0.103  11.103  19.422  0.00  0.00    +0.000 A 
ATOM     32  C   UNL     1      -1.211  10.307  19.116  0.00  0.00    +0.000 A 
ATOM     33  C   UNL     1      -2.154  10.738  18.181  0.00  0.00    +0.000 A 
ATOM     34  C   UNL     1      -1.992  11.969  17.549  0.00  0.00    +0.000 A 
ATOM     35  C   UNL     1      -0.919  12.790  17.892  0.00  0.00    +0.000 A 
ATOM     36  C   UNL     1       0.005  12.372  18.851  0.00  0.00    +0.000 A 
ENDBRANCH  30  31
ENDBRANCH  27  30
ENDBRANCH  23  24
ENDBRANCH   9  23
TORSDOF 7
ENDMDL
