MODEL 1
REMARK VINA RESULT:      -9.3      0.000      0.000
REMARK  Name = 
REMARK  3 active torsions:
REMARK  status: ('A' for Active; 'I' for Inactive)
REMARK    1  A    between atoms: C_6  and  C_7
REMARK    2  A    between atoms: N_16  and  C_17
REMARK    3  A    between atoms: C_17  and  C_18
REMARK                            x       y       z     vdW  Elec       q    Type
REMARK                         _______ _______ _______ _____ _____    ______ ____
ROOT
ATOM      1  O   UNL     1       5.408   5.138  20.108  0.00  0.00    +0.000 OA
ATOM      2  C   UNL     1       5.334   5.587  18.968  0.00  0.00    +0.000 C 
ATOM      3  C   UNL     1       6.251   5.258  17.897  0.00  0.00    +0.000 A 
ATOM      4  N   UNL     1       7.320   4.502  17.990  0.00  0.00    +0.000 NA
ATOM      5  N   UNL     1       7.755   4.239  16.713  0.00  0.00    +0.000 NA
ATOM      6  C   UNL     1       6.945   4.833  15.848  0.00  0.00    +0.000 A 
ATOM      7  N   UNL     1       6.034   5.556  16.573  0.00  0.00    +0.000 N 
ATOM      8  C   UNL     1       4.899   6.348  16.147  0.00  0.00    +0.000 C 
ATOM      9  C   UNL     1       4.357   7.168  17.322  0.00  0.00    +0.000 C 
ATOM     10  N   UNL     1       4.252   6.368  18.546  0.00  0.00    +0.000 N 
ENDROOT
BRANCH   6  11
ATOM     11  C   UNL     1       7.020   4.693  14.399  0.00  0.00    +0.000 A 
ATOM     12  C   UNL     1       6.232   3.760  13.729  0.00  0.00    +0.000 A 
ATOM     13  N   UNL     1       6.291   3.571  12.385  0.00  0.00    +0.000 NA
ATOM     14  C   UNL     1       7.177   4.352  11.734  0.00  0.00    +0.000 A 
ATOM     15  C   UNL     1       7.953   5.294  12.392  0.00  0.00    +0.000 A 
ATOM     16  N   UNL     1       7.890   5.494  13.732  0.00  0.00    +0.000 NA
ENDBRANCH   6  11
BRANCH  10  17
ATOM     17  C   UNL     1       2.979   6.242  19.235  0.00  0.00    +0.000 C 
BRANCH  17  18
ATOM     18  C   UNL     1       2.394   4.862  19.254  0.00  0.00    +0.000 A 
ATOM     19  C   UNL     1       2.139   4.170  18.055  0.00  0.00    +0.000 A 
ATOM     20  C   UNL     1       1.482   2.934  18.069  0.00  0.00    +0.000 A 
ATOM     21  C   UNL     1       1.084   2.373  19.277  0.00  0.00    +0.000 A 
ATOM     22  C   UNL     1       1.359   3.036  20.468  0.00  0.00    +0.000 A 
ATOM     23  F   UNL     1       0.972   2.495  21.629  0.00  0.00    +0.000 F 
ATOM     24  C   UNL     1       2.013   4.266  20.456  0.00  0.00    +0.000 A 
ATOM     25  F   UNL     1       2.246   4.903  21.615  0.00  0.00    +0.000 F 
ENDBRANCH  17  18
ENDBRANCH  10  17
TORSDOF 3
ENDMDL
MODEL 2
REMARK VINA RESULT:      -8.8      1.307      1.616
REMARK  Name = 
REMARK  3 active torsions:
REMARK  status: ('A' for Active; 'I' for Inactive)
REMARK    1  A    between atoms: C_6  and  C_7
REMARK    2  A    between atoms: N_16  and  C_17
REMARK    3  A    between atoms: C_17  and  C_18
REMARK                            x       y       z     vdW  Elec       q    Type
REMARK                         _______ _______ _______ _____ _____    ______ ____
ROOT
ATOM      1  O   UNL     1       5.104   5.133  20.085  0.00  0.00    +0.000 OA
ATOM      2  C   UNL     1       5.094   5.593  18.947  0.00  0.00    +0.000 C 
ATOM      3  C   UNL     1       6.069   5.274  17.926  0.00  0.00    +0.000 A 
ATOM      4  N   UNL     1       7.130   4.514  18.071  0.00  0.00    +0.000 NA
ATOM      5  N   UNL     1       7.635   4.263  16.818  0.00  0.00    +0.000 NA
ATOM      6  C   UNL     1       6.876   4.867  15.915  0.00  0.00    +0.000 A 
ATOM      7  N   UNL     1       5.927   5.585  16.595  0.00  0.00    +0.000 N 
ATOM      8  C   UNL     1       4.818   6.383  16.114  0.00  0.00    +0.000 C 
ATOM      9  C   UNL     1       4.213   7.193  17.266  0.00  0.00    +0.000 C 
ATOM     10  N   UNL     1       4.039   6.381  18.474  0.00  0.00    +0.000 N 
ENDROOT
BRANCH   6  11
ATOM     11  C   UNL     1       7.032   4.742  14.471  0.00  0.00    +0.000 A 
ATOM     12  C   UNL     1       6.268   3.829  13.746  0.00  0.00    +0.000 A 
ATOM     13  N   UNL     1       6.401   3.653  12.406  0.00  0.00    +0.000 NA
ATOM     14  C   UNL     1       7.335   4.427  11.815  0.00  0.00    +0.000 A 
ATOM     15  C   UNL     1       8.087   5.349  12.527  0.00  0.00    +0.000 A 
ATOM     16  N   UNL     1       7.950   5.536  13.864  0.00  0.00    +0.000 NA
ENDBRANCH   6  11
BRANCH  10  17
ATOM     17  C   UNL     1       2.729   6.251  19.089  0.00  0.00    +0.000 C 
BRANCH  17  18
ATOM     18  C   UNL     1       2.251   4.843  19.289  0.00  0.00    +0.000 A 
ATOM     19  C   UNL     1       1.815   4.402  20.553  0.00  0.00    +0.000 A 
ATOM     20  C   UNL     1       1.484   3.059  20.765  0.00  0.00    +0.000 A 
ATOM     21  C   UNL     1       1.574   2.147  19.718  0.00  0.00    +0.000 A 
ATOM     22  C   UNL     1       1.975   2.582  18.459  0.00  0.00    +0.000 A 
ATOM     23  F   UNL     1       2.064   1.702  17.456  0.00  0.00    +0.000 F 
ATOM     24  C   UNL     1       2.305   3.919  18.246  0.00  0.00    +0.000 A 
ATOM     25  F   UNL     1       2.715   4.313  17.030  0.00  0.00    +0.000 F 
ENDBRANCH  17  18
ENDBRANCH  10  17
TORSDOF 3
ENDMDL
MODEL 3
REMARK VINA RESULT:      -8.1      1.409      1.877
REMARK  Name = 
REMARK  3 active torsions:
REMARK  status: ('A' for Active; 'I' for Inactive)
REMARK    1  A    between atoms: C_6  and  C_7
REMARK    2  A    between atoms: N_16  and  C_17
REMARK    3  A    between atoms: C_17  and  C_18
REMARK                            x       y       z     vdW  Elec       q    Type
REMARK                         _______ _______ _______ _____ _____    ______ ____
ROOT
ATOM      1  O   UNL     1       5.549   5.215  20.117  0.00  0.00    +0.000 OA
ATOM      2  C   UNL     1       5.424   5.607  18.960  0.00  0.00    +0.000 C 
ATOM      3  C   UNL     1       6.316   5.254  17.876  0.00  0.00    +0.000 A 
ATOM      4  N   UNL     1       7.409   4.534  17.968  0.00  0.00    +0.000 NA
ATOM      5  N   UNL     1       7.811   4.223  16.691  0.00  0.00    +0.000 NA
ATOM      6  C   UNL     1       6.956   4.751  15.826  0.00  0.00    +0.000 A 
ATOM      7  N   UNL     1       6.047   5.482  16.547  0.00  0.00    +0.000 N 
ATOM      8  C   UNL     1       4.876   6.219  16.123  0.00  0.00    +0.000 C 
ATOM      9  C   UNL     1       4.347   7.079  17.276  0.00  0.00    +0.000 C 
ATOM     10  N   UNL     1       4.306   6.336  18.539  0.00  0.00    +0.000 N 
ENDROOT
BRANCH   6  11
ATOM     11  C   UNL     1       6.989   4.545  14.384  0.00  0.00    +0.000 A 
ATOM     12  C   UNL     1       7.801   5.330  13.568  0.00  0.00    +0.000 A 
ATOM     13  N   UNL     1       7.839   5.196  12.217  0.00  0.00    +0.000 NA
ATOM     14  C   UNL     1       7.028   4.246  11.709  0.00  0.00    +0.000 A 
ATOM     15  C   UNL     1       6.230   3.449  12.517  0.00  0.00    +0.000 A 
ATOM     16  N   UNL     1       6.195   3.571  13.867  0.00  0.00    +0.000 NA
ENDBRANCH   6  11
BRANCH  10  17
ATOM     17  C   UNL     1       3.061   6.206  19.275  0.00  0.00    +0.000 C 
BRANCH  17  18
ATOM     18  C   UNL     1       2.572   4.802  19.468  0.00  0.00    +0.000 A 
ATOM     19  C   UNL     1       2.309   4.299  20.756  0.00  0.00    +0.000 A 
ATOM     20  C   UNL     1       1.970   2.954  20.943  0.00  0.00    +0.000 A 
ATOM     21  C   UNL     1       1.879   2.102  19.848  0.00  0.00    +0.000 A 
ATOM     22  C   UNL     1       2.107   2.599  18.568  0.00  0.00    +0.000 A 
ATOM     23  F   UNL     1       2.021   1.775  17.517  0.00  0.00    +0.000 F 
ATOM     24  C   UNL     1       2.444   3.937  18.381  0.00  0.00    +0.000 A 
ATOM     25  F   UNL     1       2.686   4.391  17.140  0.00  0.00    +0.000 F 
ENDBRANCH  17  18
ENDBRANCH  10  17
TORSDOF 3
ENDMDL
MODEL 4
REMARK VINA RESULT:      -7.8      1.406      1.492
REMARK  Name = 
REMARK  3 active torsions:
REMARK  status: ('A' for Active; 'I' for Inactive)
REMARK    1  A    between atoms: C_6  and  C_7
REMARK    2  A    between atoms: N_16  and  C_17
REMARK    3  A    between atoms: C_17  and  C_18
REMARK                            x       y       z     vdW  Elec       q    Type
REMARK                         _______ _______ _______ _____ _____    ______ ____
ROOT
ATOM      1  O   UNL     1       6.298   4.916  20.281  0.00  0.00    +0.000 OA
ATOM      2  C   UNL     1       5.928   5.278  19.168  0.00  0.00    +0.000 C 
ATOM      3  C   UNL     1       6.695   5.105  17.953  0.00  0.00    +0.000 A 
ATOM      4  N   UNL     1       7.906   4.607  17.860  0.00  0.00    +0.000 NA
ATOM      5  N   UNL     1       8.161   4.382  16.529  0.00  0.00    +0.000 NA
ATOM      6  C   UNL     1       7.101   4.738  15.817  0.00  0.00    +0.000 A 
ATOM      7  N   UNL     1       6.190   5.280  16.686  0.00  0.00    +0.000 N 
ATOM      8  C   UNL     1       4.850   5.780  16.463  0.00  0.00    +0.000 C 
ATOM      9  C   UNL     1       4.349   6.520  17.709  0.00  0.00    +0.000 C 
ATOM     10  N   UNL     1       4.641   5.780  18.940  0.00  0.00    +0.000 N 
ENDROOT
BRANCH   6  11
ATOM     11  C   UNL     1       6.954   4.544  14.380  0.00  0.00    +0.000 A 
ATOM     12  C   UNL     1       6.041   3.621  13.873  0.00  0.00    +0.000 A 
ATOM     13  N   UNL     1       5.892   3.382  12.545  0.00  0.00    +0.000 NA
ATOM     14  C   UNL     1       6.697   4.103  11.737  0.00  0.00    +0.000 A 
ATOM     15  C   UNL     1       7.595   5.036  12.234  0.00  0.00    +0.000 A 
ATOM     16  N   UNL     1       7.741   5.286  13.559  0.00  0.00    +0.000 NA
ENDBRANCH   6  11
BRANCH  10  17
ATOM     17  C   UNL     1       3.569   5.413  19.849  0.00  0.00    +0.000 C 
BRANCH  17  18
ATOM     18  C   UNL     1       2.733   4.246  19.416  0.00  0.00    +0.000 A 
ATOM     19  C   UNL     1       1.328   4.332  19.398  0.00  0.00    +0.000 A 
ATOM     20  C   UNL     1       0.547   3.207  19.111  0.00  0.00    +0.000 A 
ATOM     21  C   UNL     1       1.159   1.990  18.829  0.00  0.00    +0.000 A 
ATOM     22  C   UNL     1       2.547   1.905  18.814  0.00  0.00    +0.000 A 
ATOM     23  F   UNL     1       3.132   0.732  18.545  0.00  0.00    +0.000 F 
ATOM     24  C   UNL     1       3.326   3.024  19.100  0.00  0.00    +0.000 A 
ATOM     25  F   UNL     1       4.664   2.915  19.106  0.00  0.00    +0.000 F 
ENDBRANCH  17  18
ENDBRANCH  10  17
TORSDOF 3
ENDMDL
MODEL 5
REMARK VINA RESULT:      -7.5      1.979      3.108
REMARK  Name = 
REMARK  3 active torsions:
REMARK  status: ('A' for Active; 'I' for Inactive)
REMARK    1  A    between atoms: C_6  and  C_7
REMARK    2  A    between atoms: N_16  and  C_17
REMARK    3  A    between atoms: C_17  and  C_18
REMARK                            x       y       z     vdW  Elec       q    Type
REMARK                         _______ _______ _______ _____ _____    ______ ____
ROOT
ATOM      1  O   UNL     1       5.154   5.092  20.067  0.00  0.00    +0.000 OA
ATOM      2  C   UNL     1       5.160   5.573  18.937  0.00  0.00    +0.000 C 
ATOM      3  C   UNL     1       6.128   5.244  17.912  0.00  0.00    +0.000 A 
ATOM      4  N   UNL     1       7.166   4.451  18.045  0.00  0.00    +0.000 NA
ATOM      5  N   UNL     1       7.666   4.208  16.789  0.00  0.00    +0.000 NA
ATOM      6  C   UNL     1       6.927   4.850  15.895  0.00  0.00    +0.000 A 
ATOM      7  N   UNL     1       5.997   5.583  16.586  0.00  0.00    +0.000 N 
ATOM      8  C   UNL     1       4.914   6.421  16.118  0.00  0.00    +0.000 C 
ATOM      9  C   UNL     1       4.329   7.227  17.283  0.00  0.00    +0.000 C 
ATOM     10  N   UNL     1       4.129   6.399  18.476  0.00  0.00    +0.000 N 
ENDROOT
BRANCH   6  11
ATOM     11  C   UNL     1       7.082   4.745  14.450  0.00  0.00    +0.000 A 
ATOM     12  C   UNL     1       6.316   3.846  13.712  0.00  0.00    +0.000 A 
ATOM     13  N   UNL     1       6.449   3.690  12.369  0.00  0.00    +0.000 NA
ATOM     14  C   UNL     1       7.385   4.470  11.790  0.00  0.00    +0.000 A 
ATOM     15  C   UNL     1       8.139   5.379  12.515  0.00  0.00    +0.000 A 
ATOM     16  N   UNL     1       8.003   5.546  13.854  0.00  0.00    +0.000 NA
ENDBRANCH   6  11
BRANCH  10  17
ATOM     17  C   UNL     1       2.815   6.296  19.087  0.00  0.00    +0.000 C 
BRANCH  17  18
ATOM     18  C   UNL     1       2.063   7.588  19.215  0.00  0.00    +0.000 A 
ATOM     19  C   UNL     1       1.961   8.473  18.126  0.00  0.00    +0.000 A 
ATOM     20  C   UNL     1       1.364   9.730  18.281  0.00  0.00    +0.000 A 
ATOM     21  C   UNL     1       0.856  10.109  19.519  0.00  0.00    +0.000 A 
ATOM     22  C   UNL     1       0.926   9.227  20.592  0.00  0.00    +0.000 A 
ATOM     23  F   UNL     1       0.438   9.597  21.782  0.00  0.00    +0.000 F 
ATOM     24  C   UNL     1       1.519   7.976  20.439  0.00  0.00    +0.000 A 
ATOM     25  F   UNL     1       1.601   7.149  21.494  0.00  0.00    +0.000 F 
ENDBRANCH  17  18
ENDBRANCH  10  17
TORSDOF 3
ENDMDL
MODEL 6
REMARK VINA RESULT:      -7.5      2.427      3.518
REMARK  Name = 
REMARK  3 active torsions:
REMARK  status: ('A' for Active; 'I' for Inactive)
REMARK    1  A    between atoms: C_6  and  C_7
REMARK    2  A    between atoms: N_16  and  C_17
REMARK    3  A    between atoms: C_17  and  C_18
REMARK                            x       y       z     vdW  Elec       q    Type
REMARK                         _______ _______ _______ _____ _____    ______ ____
ROOT
ATOM      1  O   UNL     1       4.814   5.135  20.061  0.00  0.00    +0.000 OA
ATOM      2  C   UNL     1       4.875   5.611  18.931  0.00  0.00    +0.000 C 
ATOM      3  C   UNL     1       5.897   5.286  17.959  0.00  0.00    +0.000 A 
ATOM      4  N   UNL     1       6.933   4.503  18.149  0.00  0.00    +0.000 NA
ATOM      5  N   UNL     1       7.500   4.260  16.921  0.00  0.00    +0.000 NA
ATOM      6  C   UNL     1       6.803   4.892  15.988  0.00  0.00    +0.000 A 
ATOM      7  N   UNL     1       5.832   5.619  16.627  0.00  0.00    +0.000 N 
ATOM      8  C   UNL     1       4.767   6.446  16.099  0.00  0.00    +0.000 C 
ATOM      9  C   UNL     1       4.116   7.252  17.229  0.00  0.00    +0.000 C 
ATOM     10  N   UNL     1       3.861   6.427  18.414  0.00  0.00    +0.000 N 
ENDROOT
BRANCH   6  11
ATOM     11  C   UNL     1       7.034   4.783  14.553  0.00  0.00    +0.000 A 
ATOM     12  C   UNL     1       6.305   3.884  13.777  0.00  0.00    +0.000 A 
ATOM     13  N   UNL     1       6.508   3.724  12.444  0.00  0.00    +0.000 NA
ATOM     14  C   UNL     1       7.475   4.500  11.913  0.00  0.00    +0.000 A 
ATOM     15  C   UNL     1       8.192   5.410  12.675  0.00  0.00    +0.000 A 
ATOM     16  N   UNL     1       7.987   5.581  14.005  0.00  0.00    +0.000 NA
ENDBRANCH   6  11
BRANCH  10  17
ATOM     17  C   UNL     1       2.518   6.315  18.956  0.00  0.00    +0.000 C 
BRANCH  17  18
ATOM     18  C   UNL     1       1.987   7.552  19.616  0.00  0.00    +0.000 A 
ATOM     19  C   UNL     1       1.860   7.624  21.016  0.00  0.00    +0.000 A 
ATOM     20  C   UNL     1       1.252   8.731  21.621  0.00  0.00    +0.000 A 
ATOM     21  C   UNL     1       0.778   9.778  20.838  0.00  0.00    +0.000 A 
ATOM     22  C   UNL     1       0.929   9.727  19.456  0.00  0.00    +0.000 A 
ATOM     23  F   UNL     1       0.468  10.735  18.706  0.00  0.00    +0.000 F 
ATOM     24  C   UNL     1       1.533   8.627  18.852  0.00  0.00    +0.000 A 
ATOM     25  F   UNL     1       1.645   8.585  17.515  0.00  0.00    +0.000 F 
ENDBRANCH  17  18
ENDBRANCH  10  17
TORSDOF 3
ENDMDL
MODEL 7
REMARK VINA RESULT:      -7.4      1.260      1.320
REMARK  Name = 
REMARK  3 active torsions:
REMARK  status: ('A' for Active; 'I' for Inactive)
REMARK    1  A    between atoms: C_6  and  C_7
REMARK    2  A    between atoms: N_16  and  C_17
REMARK    3  A    between atoms: C_17  and  C_18
REMARK                            x       y       z     vdW  Elec       q    Type
REMARK                         _______ _______ _______ _____ _____    ______ ____
ROOT
ATOM      1  O   UNL     1       6.268   5.075  20.193  0.00  0.00    +0.000 OA
ATOM      2  C   UNL     1       5.872   5.379  19.072  0.00  0.00    +0.000 C 
ATOM      3  C   UNL     1       6.642   5.214  17.858  0.00  0.00    +0.000 A 
ATOM      4  N   UNL     1       7.881   4.788  17.772  0.00  0.00    +0.000 NA
ATOM      5  N   UNL     1       8.143   4.536  16.447  0.00  0.00    +0.000 NA
ATOM      6  C   UNL     1       7.060   4.805  15.732  0.00  0.00    +0.000 A 
ATOM      7  N   UNL     1       6.122   5.318  16.590  0.00  0.00    +0.000 N 
ATOM      8  C   UNL     1       4.752   5.728  16.360  0.00  0.00    +0.000 C 
ATOM      9  C   UNL     1       4.213   6.475  17.585  0.00  0.00    +0.000 C 
ATOM     10  N   UNL     1       4.556   5.794  18.837  0.00  0.00    +0.000 N 
ENDROOT
BRANCH   6  11
ATOM     11  C   UNL     1       6.917   4.557  14.303  0.00  0.00    +0.000 A 
ATOM     12  C   UNL     1       6.041   3.582  13.830  0.00  0.00    +0.000 A 
ATOM     13  N   UNL     1       5.899   3.293  12.511  0.00  0.00    +0.000 NA
ATOM     14  C   UNL     1       6.674   4.017  11.677  0.00  0.00    +0.000 A 
ATOM     15  C   UNL     1       7.535   5.000  12.139  0.00  0.00    +0.000 A 
ATOM     16  N   UNL     1       7.674   5.300  13.454  0.00  0.00    +0.000 NA
ENDBRANCH   6  11
BRANCH  10  17
ATOM     17  C   UNL     1       3.512   5.392  19.764  0.00  0.00    +0.000 C 
BRANCH  17  18
ATOM     18  C   UNL     1       2.971   4.008  19.560  0.00  0.00    +0.000 A 
ATOM     19  C   UNL     1       3.831   2.894  19.536  0.00  0.00    +0.000 A 
ATOM     20  C   UNL     1       3.340   1.620  19.225  0.00  0.00    +0.000 A 
ATOM     21  C   UNL     1       1.989   1.445  18.947  0.00  0.00    +0.000 A 
ATOM     22  C   UNL     1       1.128   2.536  18.999  0.00  0.00    +0.000 A 
ATOM     23  F   UNL     1      -0.171   2.364  18.728  0.00  0.00    +0.000 F 
ATOM     24  C   UNL     1       1.614   3.805  19.308  0.00  0.00    +0.000 A 
ATOM     25  F   UNL     1       0.772   4.850  19.327  0.00  0.00    +0.000 F 
ENDBRANCH  17  18
ENDBRANCH  10  17
TORSDOF 3
ENDMDL
MODEL 8
REMARK VINA RESULT:      -7.3      3.659      7.268
REMARK  Name = 
REMARK  3 active torsions:
REMARK  status: ('A' for Active; 'I' for Inactive)
REMARK    1  A    between atoms: C_6  and  C_7
REMARK    2  A    between atoms: N_16  and  C_17
REMARK    3  A    between atoms: C_17  and  C_18
REMARK                            x       y       z     vdW  Elec       q    Type
REMARK                         _______ _______ _______ _____ _____    ______ ____
ROOT
ATOM      1  O   UNL     1       5.923   7.401  15.851  0.00  0.00    +0.000 OA
ATOM      2  C   UNL     1       5.842   6.590  16.770  0.00  0.00    +0.000 C 
ATOM      3  C   UNL     1       4.684   6.435  17.625  0.00  0.00    +0.000 A 
ATOM      4  N   UNL     1       3.592   7.163  17.599  0.00  0.00    +0.000 NA
ATOM      5  N   UNL     1       2.654   6.533  18.381  0.00  0.00    +0.000 NA
ATOM      6  C   UNL     1       3.178   5.421  18.876  0.00  0.00    +0.000 A 
ATOM      7  N   UNL     1       4.491   5.378  18.482  0.00  0.00    +0.000 N 
ATOM      8  C   UNL     1       5.510   4.372  18.692  0.00  0.00    +0.000 C 
ATOM      9  C   UNL     1       6.882   4.917  18.279  0.00  0.00    +0.000 C 
ATOM     10  N   UNL     1       6.828   5.623  16.996  0.00  0.00    +0.000 N 
ENDROOT
BRANCH   6  11
ATOM     11  C   UNL     1       2.453   4.432  19.663  0.00  0.00    +0.000 A 
ATOM     12  C   UNL     1       1.505   3.601  19.069  0.00  0.00    +0.000 A 
ATOM     13  N   UNL     1       0.782   2.688  19.767  0.00  0.00    +0.000 NA
ATOM     14  C   UNL     1       1.040   2.639  21.090  0.00  0.00    +0.000 A 
ATOM     15  C   UNL     1       1.994   3.451  21.685  0.00  0.00    +0.000 A 
ATOM     16  N   UNL     1       2.726   4.357  20.991  0.00  0.00    +0.000 NA
ENDBRANCH   6  11
BRANCH  10  17
ATOM     17  C   UNL     1       7.678   5.210  15.893  0.00  0.00    +0.000 C 
BRANCH  17  18
ATOM     18  C   UNL     1       6.955   4.708  14.679  0.00  0.00    +0.000 A 
ATOM     19  C   UNL     1       5.787   3.932  14.803  0.00  0.00    +0.000 A 
ATOM     20  C   UNL     1       5.184   3.365  13.675  0.00  0.00    +0.000 A 
ATOM     21  C   UNL     1       5.732   3.574  12.414  0.00  0.00    +0.000 A 
ATOM     22  C   UNL     1       6.868   4.365  12.281  0.00  0.00    +0.000 A 
ATOM     23  F   UNL     1       7.394   4.562  11.066  0.00  0.00    +0.000 F 
ATOM     24  C   UNL     1       7.471   4.931  13.402  0.00  0.00    +0.000 A 
ATOM     25  F   UNL     1       8.582   5.670  13.254  0.00  0.00    +0.000 F 
ENDBRANCH  17  18
ENDBRANCH  10  17
TORSDOF 3
ENDMDL
MODEL 9
REMARK VINA RESULT:      -7.3      5.486      7.250
REMARK  Name = 
REMARK  3 active torsions:
REMARK  status: ('A' for Active; 'I' for Inactive)
REMARK    1  A    between atoms: C_6  and  C_7
REMARK    2  A    between atoms: N_16  and  C_17
REMARK    3  A    between atoms: C_17  and  C_18
REMARK                            x       y       z     vdW  Elec       q    Type
REMARK                         _______ _______ _______ _____ _____    ______ ____
ROOT
ATOM      1  O   UNL     1       0.138  10.486  21.145  0.00  0.00    +0.000 OA
ATOM      2  C   UNL     1       0.852  10.018  20.263  0.00  0.00    +0.000 C 
ATOM      3  C   UNL     1       1.415   8.685  20.286  0.00  0.00    +0.000 A 
ATOM      4  N   UNL     1       1.310   7.811  21.260  0.00  0.00    +0.000 NA
ATOM      5  N   UNL     1       1.757   6.602  20.783  0.00  0.00    +0.000 NA
ATOM      6  C   UNL     1       2.127   6.744  19.519  0.00  0.00    +0.000 A 
ATOM      7  N   UNL     1       2.001   8.072  19.204  0.00  0.00    +0.000 N 
ATOM      8  C   UNL     1       2.215   8.774  17.956  0.00  0.00    +0.000 C 
ATOM      9  C   UNL     1       2.194  10.289  18.192  0.00  0.00    +0.000 C 
ATOM     10  N   UNL     1       1.083  10.693  19.059  0.00  0.00    +0.000 N 
ENDROOT
BRANCH   6  11
ATOM     11  C   UNL     1       2.553   5.659  18.643  0.00  0.00    +0.000 A 
ATOM     12  C   UNL     1       1.635   4.730  18.158  0.00  0.00    +0.000 A 
ATOM     13  N   UNL     1       1.990   3.684  17.367  0.00  0.00    +0.000 NA
ATOM     14  C   UNL     1       3.305   3.600  17.082  0.00  0.00    +0.000 A 
ATOM     15  C   UNL     1       4.222   4.530  17.548  0.00  0.00    +0.000 A 
ATOM     16  N   UNL     1       3.872   5.582  18.329  0.00  0.00    +0.000 NA
ENDBRANCH   6  11
BRANCH  10  17
ATOM     17  C   UNL     1       0.113  11.673  18.601  0.00  0.00    +0.000 C 
BRANCH  17  18
ATOM     18  C   UNL     1      -1.244  11.127  18.269  0.00  0.00    +0.000 A 
ATOM     19  C   UNL     1      -1.390  10.056  17.367  0.00  0.00    +0.000 A 
ATOM     20  C   UNL     1      -2.661   9.628  16.967  0.00  0.00    +0.000 A 
ATOM     21  C   UNL     1      -3.796  10.255  17.470  0.00  0.00    +0.000 A 
ATOM     22  C   UNL     1      -3.659  11.294  18.386  0.00  0.00    +0.000 A 
ATOM     23  F   UNL     1      -4.754  11.896  18.865  0.00  0.00    +0.000 F 
ATOM     24  C   UNL     1      -2.395  11.721  18.785  0.00  0.00    +0.000 A 
ATOM     25  F   UNL     1      -2.285  12.742  19.650  0.00  0.00    +0.000 F 
ENDBRANCH  17  18
ENDBRANCH  10  17
TORSDOF 3
ENDMDL
