MODEL 1
REMARK VINA RESULT:      -7.8      0.000      0.000
REMARK  Name = 
REMARK  1 active torsions:
REMARK  status: ('A' for Active; 'I' for Inactive)
REMARK    1  A    between atoms: C_7  and  C_8
REMARK                            x       y       z     vdW  Elec       q    Type
REMARK                         _______ _______ _______ _____ _____    ______ ____
ROOT
ATOM      1  C   UNL     1       4.194   3.988  18.592  0.00  0.00    +0.000 A 
ATOM      2  N   UNL     1       5.224   4.775  18.846  0.00  0.00    +0.000 NA
ATOM      3  C   UNL     1       5.891   4.835  17.660  0.00  0.00    +0.000 A 
ATOM      4  C   UNL     1       7.050   5.508  17.292  0.00  0.00    +0.000 A 
ATOM      5  C   UNL     1       7.470   5.338  15.970  0.00  0.00    +0.000 A 
ATOM      6  C   UNL     1       6.753   4.537  15.062  0.00  0.00    +0.000 A 
ATOM      7  N   UNL     1       7.216   4.388  13.767  0.00  0.00    +0.000 N 
ATOM      8  C   UNL     1       8.029   5.386  13.080  0.00  0.00    +0.000 C 
ATOM      9  C   UNL     1       7.465   5.408  11.664  0.00  0.00    +0.000 C 
ATOM     10  C   UNL     1       7.009   3.975  11.451  0.00  0.00    +0.000 C 
ATOM     11  C   UNL     1       6.466   3.564  12.821  0.00  0.00    +0.000 C 
ATOM     12  N   UNL     1       5.630   3.867  15.424  0.00  0.00    +0.000 NA
ATOM     13  C   UNL     1       5.259   4.058  16.704  0.00  0.00    +0.000 A 
ATOM     14  O   UNL     1       4.158   3.500  17.302  0.00  0.00    +0.000 OA
ENDROOT
BRANCH   1  21
ATOM     15 CL   UNL     1       1.196   4.480  17.753  0.00  0.00    +0.000 Cl
ATOM     16  C   UNL     1       1.771   3.784  19.233  0.00  0.00    +0.000 A 
ATOM     17  C   UNL     1       0.785   3.428  20.164  0.00  0.00    +0.000 A 
ATOM     18  C   UNL     1       1.137   2.830  21.370  0.00  0.00    +0.000 A 
ATOM     19  C   UNL     1       2.476   2.574  21.646  0.00  0.00    +0.000 A 
ATOM     20  C   UNL     1       3.465   2.929  20.722  0.00  0.00    +0.000 A 
ATOM     21  C   UNL     1       3.135   3.552  19.503  0.00  0.00    +0.000 A 
ENDBRANCH   1  21
TORSDOF 1
ENDMDL
MODEL 2
REMARK VINA RESULT:      -7.8      1.219      1.568
REMARK  Name = 
REMARK  1 active torsions:
REMARK  status: ('A' for Active; 'I' for Inactive)
REMARK    1  A    between atoms: C_7  and  C_8
REMARK                            x       y       z     vdW  Elec       q    Type
REMARK                         _______ _______ _______ _____ _____    ______ ____
ROOT
ATOM      1  C   UNL     1       4.223   4.223  18.756  0.00  0.00    +0.000 A 
ATOM      2  N   UNL     1       5.260   5.018  18.950  0.00  0.00    +0.000 NA
ATOM      3  C   UNL     1       5.905   5.015  17.751  0.00  0.00    +0.000 A 
ATOM      4  C   UNL     1       7.058   5.665  17.328  0.00  0.00    +0.000 A 
ATOM      5  C   UNL     1       7.454   5.426  16.008  0.00  0.00    +0.000 A 
ATOM      6  C   UNL     1       6.718   4.582  15.156  0.00  0.00    +0.000 A 
ATOM      7  N   UNL     1       7.156   4.366  13.862  0.00  0.00    +0.000 N 
ATOM      8  C   UNL     1       7.959   5.324  13.110  0.00  0.00    +0.000 C 
ATOM      9  C   UNL     1       7.369   5.276  11.705  0.00  0.00    +0.000 C 
ATOM     10  C   UNL     1       6.906   3.835  11.574  0.00  0.00    +0.000 C 
ATOM     11  C   UNL     1       6.387   3.497  12.973  0.00  0.00    +0.000 C 
ATOM     12  N   UNL     1       5.600   3.935  15.573  0.00  0.00    +0.000 NA
ATOM     13  C   UNL     1       5.253   4.192  16.848  0.00  0.00    +0.000 A 
ATOM     14  O   UNL     1       4.163   3.670  17.494  0.00  0.00    +0.000 OA
ENDROOT
BRANCH   1  21
ATOM     15 CL   UNL     1       4.795   1.823  20.717  0.00  0.00    +0.000 Cl
ATOM     16  C   UNL     1       3.330   2.741  20.581  0.00  0.00    +0.000 A 
ATOM     17  C   UNL     1       2.282   2.347  21.423  0.00  0.00    +0.000 A 
ATOM     18  C   UNL     1       1.074   3.038  21.418  0.00  0.00    +0.000 A 
ATOM     19  C   UNL     1       0.914   4.136  20.578  0.00  0.00    +0.000 A 
ATOM     20  C   UNL     1       1.956   4.533  19.733  0.00  0.00    +0.000 A 
ATOM     21  C   UNL     1       3.181   3.838  19.707  0.00  0.00    +0.000 A 
ENDBRANCH   1  21
TORSDOF 1
ENDMDL
MODEL 3
REMARK VINA RESULT:      -7.7      5.896      8.029
REMARK  Name = 
REMARK  1 active torsions:
REMARK  status: ('A' for Active; 'I' for Inactive)
REMARK    1  A    between atoms: C_7  and  C_8
REMARK                            x       y       z     vdW  Elec       q    Type
REMARK                         _______ _______ _______ _____ _____    ______ ____
ROOT
ATOM      1  C   UNL     1       1.516   9.936  18.569  0.00  0.00    +0.000 A 
ATOM      2  N   UNL     1       2.322   9.480  17.627  0.00  0.00    +0.000 NA
ATOM      3  C   UNL     1       2.620   8.215  18.034  0.00  0.00    +0.000 A 
ATOM      4  C   UNL     1       3.415   7.230  17.462  0.00  0.00    +0.000 A 
ATOM      5  C   UNL     1       3.511   6.025  18.165  0.00  0.00    +0.000 A 
ATOM      6  C   UNL     1       2.830   5.822  19.379  0.00  0.00    +0.000 A 
ATOM      7  N   UNL     1       2.965   4.617  20.046  0.00  0.00    +0.000 N 
ATOM      8  C   UNL     1       3.270   3.355  19.381  0.00  0.00    +0.000 C 
ATOM      9  C   UNL     1       2.376   2.342  20.086  0.00  0.00    +0.000 C 
ATOM     10  C   UNL     1       2.288   2.885  21.502  0.00  0.00    +0.000 C 
ATOM     11  C   UNL     1       2.250   4.401  21.302  0.00  0.00    +0.000 C 
ATOM     12  N   UNL     1       2.064   6.788  19.947  0.00  0.00    +0.000 NA
ATOM     13  C   UNL     1       1.998   7.931  19.238  0.00  0.00    +0.000 A 
ATOM     14  O   UNL     1       1.284   9.045  19.595  0.00  0.00    +0.000 OA
ENDROOT
BRANCH   1  21
ATOM     15 CL   UNL     1      -1.613  10.135  18.255  0.00  0.00    +0.000 Cl
ATOM     16  C   UNL     1      -0.497  11.441  18.485  0.00  0.00    +0.000 A 
ATOM     17  C   UNL     1      -1.056  12.726  18.507  0.00  0.00    +0.000 A 
ATOM     18  C   UNL     1      -0.252  13.842  18.719  0.00  0.00    +0.000 A 
ATOM     19  C   UNL     1       1.114  13.677  18.924  0.00  0.00    +0.000 A 
ATOM     20  C   UNL     1       1.678  12.397  18.901  0.00  0.00    +0.000 A 
ATOM     21  C   UNL     1       0.889  11.254  18.669  0.00  0.00    +0.000 A 
ENDBRANCH   1  21
TORSDOF 1
ENDMDL
MODEL 4
REMARK VINA RESULT:      -7.5      5.280      8.203
REMARK  Name = 
REMARK  1 active torsions:
REMARK  status: ('A' for Active; 'I' for Inactive)
REMARK    1  A    between atoms: C_7  and  C_8
REMARK                            x       y       z     vdW  Elec       q    Type
REMARK                         _______ _______ _______ _____ _____    ______ ____
ROOT
ATOM      1  C   UNL     1       3.398   6.654  18.193  0.00  0.00    +0.000 A 
ATOM      2  N   UNL     1       2.950   6.387  19.406  0.00  0.00    +0.000 NA
ATOM      3  C   UNL     1       2.175   7.465  19.714  0.00  0.00    +0.000 A 
ATOM      4  C   UNL     1       1.432   7.766  20.848  0.00  0.00    +0.000 A 
ATOM      5  C   UNL     1       0.749   8.987  20.834  0.00  0.00    +0.000 A 
ATOM      6  C   UNL     1       0.807   9.854  19.727  0.00  0.00    +0.000 A 
ATOM      7  N   UNL     1       0.125  11.058  19.764  0.00  0.00    +0.000 N 
ATOM      8  C   UNL     1      -1.074  11.282  20.563  0.00  0.00    +0.000 C 
ATOM      9  C   UNL     1      -1.976  12.104  19.650  0.00  0.00    +0.000 C 
ATOM     10  C   UNL     1      -0.989  12.920  18.832  0.00  0.00    +0.000 C 
ATOM     11  C   UNL     1       0.177  11.954  18.611  0.00  0.00    +0.000 C 
ATOM     12  N   UNL     1       1.545   9.567  18.625  0.00  0.00    +0.000 NA
ATOM     13  C   UNL     1       2.185   8.384  18.678  0.00  0.00    +0.000 A 
ATOM     14  O   UNL     1       2.981   7.868  17.689  0.00  0.00    +0.000 OA
ENDROOT
BRANCH   1  21
ATOM     15 CL   UNL     1       2.519   3.725  17.430  0.00  0.00    +0.000 Cl
ATOM     16  C   UNL     1       4.005   4.516  17.017  0.00  0.00    +0.000 A 
ATOM     17  C   UNL     1       4.921   3.749  16.284  0.00  0.00    +0.000 A 
ATOM     18  C   UNL     1       6.131   4.299  15.872  0.00  0.00    +0.000 A 
ATOM     19  C   UNL     1       6.426   5.622  16.180  0.00  0.00    +0.000 A 
ATOM     20  C   UNL     1       5.517   6.392  16.914  0.00  0.00    +0.000 A 
ATOM     21  C   UNL     1       4.294   5.853  17.358  0.00  0.00    +0.000 A 
ENDBRANCH   1  21
TORSDOF 1
ENDMDL
MODEL 5
REMARK VINA RESULT:      -7.4      5.619      6.614
REMARK  Name = 
REMARK  1 active torsions:
REMARK  status: ('A' for Active; 'I' for Inactive)
REMARK    1  A    between atoms: C_7  and  C_8
REMARK                            x       y       z     vdW  Elec       q    Type
REMARK                         _______ _______ _______ _____ _____    ______ ____
ROOT
ATOM      1  C   UNL     1       1.445   9.611  18.707  0.00  0.00    +0.000 A 
ATOM      2  N   UNL     1       1.389   8.650  19.611  0.00  0.00    +0.000 NA
ATOM      3  C   UNL     1       2.222   7.690  19.122  0.00  0.00    +0.000 A 
ATOM      4  C   UNL     1       2.583   6.446  19.625  0.00  0.00    +0.000 A 
ATOM      5  C   UNL     1       3.471   5.698  18.844  0.00  0.00    +0.000 A 
ATOM      6  C   UNL     1       3.975   6.185  17.624  0.00  0.00    +0.000 A 
ATOM      7  N   UNL     1       4.840   5.402  16.881  0.00  0.00    +0.000 N 
ATOM      8  C   UNL     1       5.717   4.392  17.462  0.00  0.00    +0.000 C 
ATOM      9  C   UNL     1       7.026   4.558  16.699  0.00  0.00    +0.000 C 
ATOM     10  C   UNL     1       6.569   5.006  15.321  0.00  0.00    +0.000 C 
ATOM     11  C   UNL     1       5.372   5.911  15.618  0.00  0.00    +0.000 C 
ATOM     12  N   UNL     1       3.611   7.393  17.125  0.00  0.00    +0.000 NA
ATOM     13  C   UNL     1       2.757   8.081  17.906  0.00  0.00    +0.000 A 
ATOM     14  O   UNL     1       2.254   9.325  17.627  0.00  0.00    +0.000 OA
ENDROOT
BRANCH   1  21
ATOM     15 CL   UNL     1      -1.543   9.667  17.705  0.00  0.00    +0.000 Cl
ATOM     16  C   UNL     1      -0.579  11.017  18.210  0.00  0.00    +0.000 A 
ATOM     17  C   UNL     1      -1.200  12.272  18.136  0.00  0.00    +0.000 A 
ATOM     18  C   UNL     1      -0.527  13.417  18.549  0.00  0.00    +0.000 A 
ATOM     19  C   UNL     1       0.766  13.312  19.050  0.00  0.00    +0.000 A 
ATOM     20  C   UNL     1       1.392  12.063  19.124  0.00  0.00    +0.000 A 
ATOM     21  C   UNL     1       0.738  10.892  18.695  0.00  0.00    +0.000 A 
ENDBRANCH   1  21
TORSDOF 1
ENDMDL
MODEL 6
REMARK VINA RESULT:      -7.4      5.109      8.594
REMARK  Name = 
REMARK  1 active torsions:
REMARK  status: ('A' for Active; 'I' for Inactive)
REMARK    1  A    between atoms: C_7  and  C_8
REMARK                            x       y       z     vdW  Elec       q    Type
REMARK                         _______ _______ _______ _____ _____    ______ ____
ROOT
ATOM      1  C   UNL     1       3.541   7.236  17.774  0.00  0.00    +0.000 A 
ATOM      2  N   UNL     1       2.935   8.136  17.022  0.00  0.00    +0.000 NA
ATOM      3  C   UNL     1       2.040   8.721  17.866  0.00  0.00    +0.000 A 
ATOM      4  C   UNL     1       1.117   9.739  17.662  0.00  0.00    +0.000 A 
ATOM      5  C   UNL     1       0.334  10.094  18.765  0.00  0.00    +0.000 A 
ATOM      6  C   UNL     1       0.482   9.460  20.013  0.00  0.00    +0.000 A 
ATOM      7  N   UNL     1      -0.324   9.836  21.072  0.00  0.00    +0.000 N 
ATOM      8  C   UNL     1      -0.910  11.165  21.209  0.00  0.00    +0.000 C 
ATOM      9  C   UNL     1      -0.760  11.482  22.692  0.00  0.00    +0.000 C 
ATOM     10  C   UNL     1      -0.878  10.117  23.351  0.00  0.00    +0.000 C 
ATOM     11  C   UNL     1      -0.164   9.185  22.370  0.00  0.00    +0.000 C 
ATOM     12  N   UNL     1       1.373   8.454  20.208  0.00  0.00    +0.000 NA
ATOM     13  C   UNL     1       2.106   8.144  19.123  0.00  0.00    +0.000 A 
ATOM     14  O   UNL     1       3.075   7.176  19.071  0.00  0.00    +0.000 OA
ENDROOT
BRANCH   1  21
ATOM     15 CL   UNL     1       2.775   4.202  17.403  0.00  0.00    +0.000 Cl
ATOM     16  C   UNL     1       4.351   4.911  17.264  0.00  0.00    +0.000 A 
ATOM     17  C   UNL     1       5.397   4.023  16.980  0.00  0.00    +0.000 A 
ATOM     18  C   UNL     1       6.697   4.493  16.815  0.00  0.00    +0.000 A 
ATOM     19  C   UNL     1       6.954   5.856  16.921  0.00  0.00    +0.000 A 
ATOM     20  C   UNL     1       5.914   6.747  17.206  0.00  0.00    +0.000 A 
ATOM     21  C   UNL     1       4.594   6.294  17.396  0.00  0.00    +0.000 A 
ENDBRANCH   1  21
TORSDOF 1
ENDMDL
MODEL 7
REMARK VINA RESULT:      -7.4      5.221      6.843
REMARK  Name = 
REMARK  1 active torsions:
REMARK  status: ('A' for Active; 'I' for Inactive)
REMARK    1  A    between atoms: C_7  and  C_8
REMARK                            x       y       z     vdW  Elec       q    Type
REMARK                         _______ _______ _______ _____ _____    ______ ____
ROOT
ATOM      1  C   UNL     1       1.014   8.822  20.345  0.00  0.00    +0.000 A 
ATOM      2  N   UNL     1       1.592   9.070  19.184  0.00  0.00    +0.000 NA
ATOM      3  C   UNL     1       2.232   7.907  18.880  0.00  0.00    +0.000 A 
ATOM      4  C   UNL     1       3.007   7.545  17.786  0.00  0.00    +0.000 A 
ATOM      5  C   UNL     1       3.530   6.248  17.800  0.00  0.00    +0.000 A 
ATOM      6  C   UNL     1       3.274   5.358  18.860  0.00  0.00    +0.000 A 
ATOM      7  N   UNL     1       3.824   4.089  18.835  0.00  0.00    +0.000 N 
ATOM      8  C   UNL     1       4.166   3.380  17.607  0.00  0.00    +0.000 C 
ATOM      9  C   UNL     1       3.723   1.947  17.874  0.00  0.00    +0.000 C 
ATOM     10  C   UNL     1       3.937   1.791  19.370  0.00  0.00    +0.000 C 
ATOM     11  C   UNL     1       3.551   3.161  19.931  0.00  0.00    +0.000 C 
ATOM     12  N   UNL     1       2.529   5.716  19.936  0.00  0.00    +0.000 NA
ATOM     13  C   UNL     1       2.045   6.971  19.884  0.00  0.00    +0.000 A 
ATOM     14  O   UNL     1       1.259   7.558  20.841  0.00  0.00    +0.000 OA
ENDROOT
BRANCH   1  21
ATOM     15 CL   UNL     1      -0.270  11.355  18.979  0.00  0.00    +0.000 Cl
ATOM     16  C   UNL     1      -0.366  10.901  20.650  0.00  0.00    +0.000 A 
ATOM     17  C   UNL     1      -1.075  11.780  21.481  0.00  0.00    +0.000 A 
ATOM     18  C   UNL     1      -1.241  11.493  22.832  0.00  0.00    +0.000 A 
ATOM     19  C   UNL     1      -0.710  10.319  23.356  0.00  0.00    +0.000 A 
ATOM     20  C   UNL     1       0.000   9.439  22.533  0.00  0.00    +0.000 A 
ATOM     21  C   UNL     1       0.197   9.717  21.166  0.00  0.00    +0.000 A 
ENDBRANCH   1  21
TORSDOF 1
ENDMDL
MODEL 8
REMARK VINA RESULT:      -7.4      5.789      8.537
REMARK  Name = 
REMARK  1 active torsions:
REMARK  status: ('A' for Active; 'I' for Inactive)
REMARK    1  A    between atoms: C_7  and  C_8
REMARK                            x       y       z     vdW  Elec       q    Type
REMARK                         _______ _______ _______ _____ _____    ______ ____
ROOT
ATOM      1  C   UNL     1       2.569   6.630  19.307  0.00  0.00    +0.000 A 
ATOM      2  N   UNL     1       2.537   7.457  18.279  0.00  0.00    +0.000 NA
ATOM      3  C   UNL     1       1.834   8.528  18.741  0.00  0.00    +0.000 A 
ATOM      4  C   UNL     1       1.471   9.722  18.129  0.00  0.00    +0.000 A 
ATOM      5  C   UNL     1       0.726  10.614  18.906  0.00  0.00    +0.000 A 
ATOM      6  C   UNL     1       0.373  10.321  20.236  0.00  0.00    +0.000 A 
ATOM      7  N   UNL     1      -0.376  11.230  20.961  0.00  0.00    +0.000 N 
ATOM      8  C   UNL     1      -0.368  12.667  20.710  0.00  0.00    +0.000 C 
ATOM      9  C   UNL     1      -0.366  13.284  22.103  0.00  0.00    +0.000 C 
ATOM     10  C   UNL     1      -1.156  12.282  22.927  0.00  0.00    +0.000 C 
ATOM     11  C   UNL     1      -0.735  10.931  22.346  0.00  0.00    +0.000 C 
ATOM     12  N   UNL     1       0.713   9.149  20.830  0.00  0.00    +0.000 NA
ATOM     13  C   UNL     1       1.430   8.319  20.049  0.00  0.00    +0.000 A 
ATOM     14  O   UNL     1       1.899   7.087  20.423  0.00  0.00    +0.000 OA
ENDROOT
BRANCH   1  21
ATOM     15 CL   UNL     1       0.795   4.215  20.284  0.00  0.00    +0.000 Cl
ATOM     16  C   UNL     1       2.478   4.181  19.869  0.00  0.00    +0.000 A 
ATOM     17  C   UNL     1       3.117   2.941  20.013  0.00  0.00    +0.000 A 
ATOM     18  C   UNL     1       4.459   2.796  19.675  0.00  0.00    +0.000 A 
ATOM     19  C   UNL     1       5.166   3.887  19.180  0.00  0.00    +0.000 A 
ATOM     20  C   UNL     1       4.534   5.127  19.037  0.00  0.00    +0.000 A 
ATOM     21  C   UNL     1       3.182   5.304  19.389  0.00  0.00    +0.000 A 
ENDBRANCH   1  21
TORSDOF 1
ENDMDL
MODEL 9
REMARK VINA RESULT:      -7.3      4.498      5.542
REMARK  Name = 
REMARK  1 active torsions:
REMARK  status: ('A' for Active; 'I' for Inactive)
REMARK    1  A    between atoms: C_7  and  C_8
REMARK                            x       y       z     vdW  Elec       q    Type
REMARK                         _______ _______ _______ _____ _____    ______ ____
ROOT
ATOM      1  C   UNL     1       1.387   7.802  20.424  0.00  0.00    +0.000 A 
ATOM      2  N   UNL     1       1.468   6.551  20.840  0.00  0.00    +0.000 NA
ATOM      3  C   UNL     1       2.296   5.957  19.936  0.00  0.00    +0.000 A 
ATOM      4  C   UNL     1       2.766   4.654  19.840  0.00  0.00    +0.000 A 
ATOM      5  C   UNL     1       3.609   4.378  18.759  0.00  0.00    +0.000 A 
ATOM      6  C   UNL     1       3.966   5.370  17.827  0.00  0.00    +0.000 A 
ATOM      7  N   UNL     1       4.793   5.046  16.766  0.00  0.00    +0.000 N 
ATOM      8  C   UNL     1       5.771   3.965  16.805  0.00  0.00    +0.000 C 
ATOM      9  C   UNL     1       6.990   4.547  16.097  0.00  0.00    +0.000 C 
ATOM     10  C   UNL     1       6.378   5.487  15.072  0.00  0.00    +0.000 C 
ATOM     11  C   UNL     1       5.172   6.079  15.804  0.00  0.00    +0.000 C 
ATOM     12  N   UNL     1       3.495   6.640  17.911  0.00  0.00    +0.000 NA
ATOM     13  C   UNL     1       2.689   6.864  18.966  0.00  0.00    +0.000 A 
ATOM     14  O   UNL     1       2.099   8.063  19.272  0.00  0.00    +0.000 OA
ENDROOT
BRANCH   1  21
ATOM     15 CL   UNL     1       0.135   9.941  18.478  0.00  0.00    +0.000 Cl
ATOM     16  C   UNL     1       0.074   9.936  20.210  0.00  0.00    +0.000 A 
ATOM     17  C   UNL     1      -0.586  11.022  20.801  0.00  0.00    +0.000 A 
ATOM     18  C   UNL     1      -0.721  11.098  22.184  0.00  0.00    +0.000 A 
ATOM     19  C   UNL     1      -0.208  10.081  22.982  0.00  0.00    +0.000 A 
ATOM     20  C   UNL     1       0.454   8.995  22.399  0.00  0.00    +0.000 A 
ATOM     21  C   UNL     1       0.619   8.905  21.003  0.00  0.00    +0.000 A 
ENDBRANCH   1  21
TORSDOF 1
ENDMDL
