MODEL 1
REMARK VINA RESULT:      -6.2      0.000      0.000
REMARK  Name = 
REMARK  5 active torsions:
REMARK  status: ('A' for Active; 'I' for Inactive)
REMARK    1  A    between atoms: C_1  and  C_2
REMARK    2  A    between atoms: C_2  and  C_3
REMARK    3  A    between atoms: N_5  and  C_6
REMARK    4  A    between atoms: C_7  and  C_8
REMARK    5  A    between atoms: C_10  and  C_11
REMARK                            x       y       z     vdW  Elec       q    Type
REMARK                         _______ _______ _______ _____ _____    ______ ____
ROOT
ATOM      1  C   UNL     1       3.737   4.645  17.916  0.00  0.00    +0.000 A 
ATOM      2  C   UNL     1       4.058   5.910  17.386  0.00  0.00    +0.000 A 
ATOM      3  C   UNL     1       3.579   7.215  17.959  0.00  0.00    +0.000 C 
ATOM      4  C   UNL     1       4.920   5.981  16.273  0.00  0.00    +0.000 A 
ATOM      5  C   UNL     1       5.490   4.834  15.708  0.00  0.00    +0.000 A 
ATOM      6  C   UNL     1       6.402   4.931  14.521  0.00  0.00    +0.000 C 
ATOM      7  C   UNL     1       5.196   3.588  16.269  0.00  0.00    +0.000 A 
ATOM      8  C   UNL     1       4.342   3.498  17.370  0.00  0.00    +0.000 A 
ATOM      9 CL   UNL     1       4.002   1.922  18.009  0.00  0.00    +0.000 Cl
ENDROOT
BRANCH   1  12
ATOM     10  C   UNL     1       1.535   4.063  18.824  0.00  0.00    +0.000 C 
ATOM     11  O   UNL     1       1.022   3.819  17.734  0.00  0.00    +0.000 OA
ATOM     12  N   UNL     1       2.846   4.481  19.008  0.00  0.00    +0.000 N 
ATOM     13  H   UNL     1       3.275   4.134  19.862  0.00  0.00    +0.000 HD
BRANCH  10  15
ATOM     14  C   UNL     1       1.525   3.046  21.121  0.00  0.00    +0.000 C 
ATOM     15  C   UNL     1       0.779   3.923  20.131  0.00  0.00    +0.000 C 
ENDBRANCH  10  15
ENDBRANCH   1  12
TORSDOF 2
ENDMDL
MODEL 2
REMARK VINA RESULT:      -6.1      2.595      4.771
REMARK  Name = 
REMARK  5 active torsions:
REMARK  status: ('A' for Active; 'I' for Inactive)
REMARK    1  A    between atoms: C_1  and  C_2
REMARK    2  A    between atoms: C_2  and  C_3
REMARK    3  A    between atoms: N_5  and  C_6
REMARK    4  A    between atoms: C_7  and  C_8
REMARK    5  A    between atoms: C_10  and  C_11
REMARK                            x       y       z     vdW  Elec       q    Type
REMARK                         _______ _______ _______ _____ _____    ______ ____
ROOT
ATOM      1  C   UNL     1       3.964   5.399  17.437  0.00  0.00    +0.000 A 
ATOM      2  C   UNL     1       2.859   5.816  18.206  0.00  0.00    +0.000 A 
ATOM      3  C   UNL     1       2.604   7.239  18.619  0.00  0.00    +0.000 C 
ATOM      4  C   UNL     1       1.896   4.859  18.585  0.00  0.00    +0.000 A 
ATOM      5  C   UNL     1       1.992   3.520  18.188  0.00  0.00    +0.000 A 
ATOM      6  C   UNL     1       0.957   2.517  18.604  0.00  0.00    +0.000 C 
ATOM      7  C   UNL     1       3.070   3.128  17.390  0.00  0.00    +0.000 A 
ATOM      8  C   UNL     1       4.036   4.061  17.007  0.00  0.00    +0.000 A 
ATOM      9 CL   UNL     1       5.360   3.508  16.034  0.00  0.00    +0.000 Cl
ENDROOT
BRANCH   1  12
ATOM     10  C   UNL     1       6.176   6.400  17.776  0.00  0.00    +0.000 C 
ATOM     11  O   UNL     1       6.427   5.780  18.807  0.00  0.00    +0.000 OA
ATOM     12  N   UNL     1       5.000   6.288  17.048  0.00  0.00    +0.000 N 
ATOM     13  H   UNL     1       5.123   6.388  16.044  0.00  0.00    +0.000 HD
BRANCH  10  15
ATOM     14  C   UNL     1       8.136   7.919  18.182  0.00  0.00    +0.000 C 
ATOM     15  C   UNL     1       7.152   7.381  17.157  0.00  0.00    +0.000 C 
ENDBRANCH  10  15
ENDBRANCH   1  12
TORSDOF 2
ENDMDL
MODEL 3
REMARK VINA RESULT:      -6.0      1.498      2.389
REMARK  Name = 
REMARK  5 active torsions:
REMARK  status: ('A' for Active; 'I' for Inactive)
REMARK    1  A    between atoms: C_1  and  C_2
REMARK    2  A    between atoms: C_2  and  C_3
REMARK    3  A    between atoms: N_5  and  C_6
REMARK    4  A    between atoms: C_7  and  C_8
REMARK    5  A    between atoms: C_10  and  C_11
REMARK                            x       y       z     vdW  Elec       q    Type
REMARK                         _______ _______ _______ _____ _____    ______ ____
ROOT
ATOM      1  C   UNL     1       3.746   4.534  17.957  0.00  0.00    +0.000 A 
ATOM      2  C   UNL     1       4.313   3.399  17.344  0.00  0.00    +0.000 A 
ATOM      3  C   UNL     1       3.997   1.980  17.733  0.00  0.00    +0.000 C 
ATOM      4  C   UNL     1       5.202   3.582  16.267  0.00  0.00    +0.000 A 
ATOM      5  C   UNL     1       5.506   4.855  15.770  0.00  0.00    +0.000 A 
ATOM      6  C   UNL     1       6.458   5.028  14.624  0.00  0.00    +0.000 C 
ATOM      7  C   UNL     1       4.904   5.970  16.359  0.00  0.00    +0.000 A 
ATOM      8  C   UNL     1       4.022   5.809  17.430  0.00  0.00    +0.000 A 
ATOM      9 CL   UNL     1       3.324   7.233  18.130  0.00  0.00    +0.000 Cl
ENDROOT
BRANCH   1  12
ATOM     10  C   UNL     1       1.540   4.086  18.930  0.00  0.00    +0.000 C 
ATOM     11  O   UNL     1       0.989   3.842  17.859  0.00  0.00    +0.000 OA
ATOM     12  N   UNL     1       2.874   4.442  19.073  0.00  0.00    +0.000 N 
ATOM     13  H   UNL     1       3.306   4.095  19.925  0.00  0.00    +0.000 HD
BRANCH  10  15
ATOM     14  C   UNL     1       1.575   3.194  21.278  0.00  0.00    +0.000 C 
ATOM     15  C   UNL     1       0.810   4.017  20.257  0.00  0.00    +0.000 C 
ENDBRANCH  10  15
ENDBRANCH   1  12
TORSDOF 2
ENDMDL
MODEL 4
REMARK VINA RESULT:      -6.0      1.898      2.010
REMARK  Name = 
REMARK  5 active torsions:
REMARK  status: ('A' for Active; 'I' for Inactive)
REMARK    1  A    between atoms: C_1  and  C_2
REMARK    2  A    between atoms: C_2  and  C_3
REMARK    3  A    between atoms: N_5  and  C_6
REMARK    4  A    between atoms: C_7  and  C_8
REMARK    5  A    between atoms: C_10  and  C_11
REMARK                            x       y       z     vdW  Elec       q    Type
REMARK                         _______ _______ _______ _____ _____    ______ ____
ROOT
ATOM      1  C   UNL     1       4.814   4.415  18.180  0.00  0.00    +0.000 A 
ATOM      2  C   UNL     1       6.099   4.993  18.202  0.00  0.00    +0.000 A 
ATOM      3  C   UNL     1       6.803   5.446  19.453  0.00  0.00    +0.000 C 
ATOM      4  C   UNL     1       6.806   5.122  16.991  0.00  0.00    +0.000 A 
ATOM      5  C   UNL     1       6.281   4.660  15.778  0.00  0.00    +0.000 A 
ATOM      6  C   UNL     1       7.049   4.810  14.498  0.00  0.00    +0.000 C 
ATOM      7  C   UNL     1       5.023   4.052  15.776  0.00  0.00    +0.000 A 
ATOM      8  C   UNL     1       4.306   3.917  16.966  0.00  0.00    +0.000 A 
ATOM      9 CL   UNL     1       2.743   3.171  16.895  0.00  0.00    +0.000 Cl
ENDROOT
BRANCH   1  12
ATOM     10  C   UNL     1       3.096   5.256  19.714  0.00  0.00    +0.000 C 
ATOM     11  O   UNL     1       2.895   6.302  19.100  0.00  0.00    +0.000 OA
ATOM     12  N   UNL     1       4.017   4.285  19.348  0.00  0.00    +0.000 N 
ATOM     13  H   UNL     1       3.726   3.335  19.563  0.00  0.00    +0.000 HD
BRANCH  10  15
ATOM     14  C   UNL     1       1.244   3.871  20.696  0.00  0.00    +0.000 C 
ATOM     15  C   UNL     1       2.335   4.891  20.973  0.00  0.00    +0.000 C 
ENDBRANCH  10  15
ENDBRANCH   1  12
TORSDOF 2
ENDMDL
MODEL 5
REMARK VINA RESULT:      -5.9      1.267      1.287
REMARK  Name = 
REMARK  5 active torsions:
REMARK  status: ('A' for Active; 'I' for Inactive)
REMARK    1  A    between atoms: C_1  and  C_2
REMARK    2  A    between atoms: C_2  and  C_3
REMARK    3  A    between atoms: N_5  and  C_6
REMARK    4  A    between atoms: C_7  and  C_8
REMARK    5  A    between atoms: C_10  and  C_11
REMARK                            x       y       z     vdW  Elec       q    Type
REMARK                         _______ _______ _______ _____ _____    ______ ____
ROOT
ATOM      1  C   UNL     1       3.642   4.889  17.485  0.00  0.00    +0.000 A 
ATOM      2  C   UNL     1       4.154   6.124  17.040  0.00  0.00    +0.000 A 
ATOM      3  C   UNL     1       3.671   7.465  17.523  0.00  0.00    +0.000 C 
ATOM      4  C   UNL     1       5.219   6.125  16.118  0.00  0.00    +0.000 A 
ATOM      5  C   UNL     1       5.801   4.935  15.662  0.00  0.00    +0.000 A 
ATOM      6  C   UNL     1       6.932   4.958  14.678  0.00  0.00    +0.000 C 
ATOM      7  C   UNL     1       5.311   3.718  16.143  0.00  0.00    +0.000 A 
ATOM      8  C   UNL     1       4.254   3.697  17.055  0.00  0.00    +0.000 A 
ATOM      9 CL   UNL     1       3.679   2.155  17.598  0.00  0.00    +0.000 Cl
ENDROOT
BRANCH   1  12
ATOM     10  C   UNL     1       2.721   4.822  19.756  0.00  0.00    +0.000 C 
ATOM     11  O   UNL     1       3.809   4.902  20.324  0.00  0.00    +0.000 OA
ATOM     12  N   UNL     1       2.545   4.797  18.380  0.00  0.00    +0.000 N 
ATOM     13  H   UNL     1       1.695   5.257  18.063  0.00  0.00    +0.000 HD
BRANCH  10  15
ATOM     14  C   UNL     1       0.792   3.361  20.432  0.00  0.00    +0.000 C 
ATOM     15  C   UNL     1       1.410   4.746  20.514  0.00  0.00    +0.000 C 
ENDBRANCH  10  15
ENDBRANCH   1  12
TORSDOF 2
ENDMDL
MODEL 6
REMARK VINA RESULT:      -5.9      1.941      4.960
REMARK  Name = 
REMARK  5 active torsions:
REMARK  status: ('A' for Active; 'I' for Inactive)
REMARK    1  A    between atoms: C_1  and  C_2
REMARK    2  A    between atoms: C_2  and  C_3
REMARK    3  A    between atoms: N_5  and  C_6
REMARK    4  A    between atoms: C_7  and  C_8
REMARK    5  A    between atoms: C_10  and  C_11
REMARK                            x       y       z     vdW  Elec       q    Type
REMARK                         _______ _______ _______ _____ _____    ______ ____
ROOT
ATOM      1  C   UNL     1       3.038   4.800  18.633  0.00  0.00    +0.000 A 
ATOM      2  C   UNL     1       2.429   5.508  19.689  0.00  0.00    +0.000 A 
ATOM      3  C   UNL     1       2.267   7.003  19.723  0.00  0.00    +0.000 C 
ATOM      4  C   UNL     1       1.890   4.783  20.770  0.00  0.00    +0.000 A 
ATOM      5  C   UNL     1       1.914   3.383  20.804  0.00  0.00    +0.000 A 
ATOM      6  C   UNL     1       1.337   2.630  21.966  0.00  0.00    +0.000 C 
ATOM      7  C   UNL     1       2.483   2.692  19.731  0.00  0.00    +0.000 A 
ATOM      8  C   UNL     1       3.025   3.393  18.652  0.00  0.00    +0.000 A 
ATOM      9 CL   UNL     1       3.735   2.479  17.362  0.00  0.00    +0.000 Cl
ENDROOT
BRANCH   1  12
ATOM     10  C   UNL     1       4.970   5.856  17.553  0.00  0.00    +0.000 C 
ATOM     11  O   UNL     1       5.729   5.713  18.510  0.00  0.00    +0.000 OA
ATOM     12  N   UNL     1       3.642   5.453  17.527  0.00  0.00    +0.000 N 
ATOM     13  H   UNL     1       3.325   5.133  16.616  0.00  0.00    +0.000 HD
BRANCH  10  15
ATOM     14  C   UNL     1       5.598   5.469  15.152  0.00  0.00    +0.000 C 
ATOM     15  C   UNL     1       5.409   6.499  16.253  0.00  0.00    +0.000 C 
ENDBRANCH  10  15
ENDBRANCH   1  12
TORSDOF 2
ENDMDL
MODEL 7
REMARK VINA RESULT:      -5.9      2.375      5.452
REMARK  Name = 
REMARK  5 active torsions:
REMARK  status: ('A' for Active; 'I' for Inactive)
REMARK    1  A    between atoms: C_1  and  C_2
REMARK    2  A    between atoms: C_2  and  C_3
REMARK    3  A    between atoms: N_5  and  C_6
REMARK    4  A    between atoms: C_7  and  C_8
REMARK    5  A    between atoms: C_10  and  C_11
REMARK                            x       y       z     vdW  Elec       q    Type
REMARK                         _______ _______ _______ _____ _____    ______ ____
ROOT
ATOM      1  C   UNL     1       2.975   4.560  18.584  0.00  0.00    +0.000 A 
ATOM      2  C   UNL     1       3.008   3.154  18.671  0.00  0.00    +0.000 A 
ATOM      3  C   UNL     1       3.664   2.258  17.656  0.00  0.00    +0.000 C 
ATOM      4  C   UNL     1       2.435   2.530  19.796  0.00  0.00    +0.000 A 
ATOM      5  C   UNL     1       1.868   3.271  20.841  0.00  0.00    +0.000 A 
ATOM      6  C   UNL     1       1.260   2.586  22.029  0.00  0.00    +0.000 C 
ATOM      7  C   UNL     1       1.879   4.666  20.762  0.00  0.00    +0.000 A 
ATOM      8  C   UNL     1       2.441   5.302  19.653  0.00  0.00    +0.000 A 
ATOM      9 CL   UNL     1       2.406   7.035  19.606  0.00  0.00    +0.000 Cl
ENDROOT
BRANCH   1  12
ATOM     10  C   UNL     1       4.807   5.710  17.428  0.00  0.00    +0.000 C 
ATOM     11  O   UNL     1       5.626   5.560  18.332  0.00  0.00    +0.000 OA
ATOM     12  N   UNL     1       3.493   5.267  17.467  0.00  0.00    +0.000 N 
ATOM     13  H   UNL     1       3.130   4.967  16.566  0.00  0.00    +0.000 HD
BRANCH  10  15
ATOM     14  C   UNL     1       5.619   5.425  15.068  0.00  0.00    +0.000 C 
ATOM     15  C   UNL     1       5.149   6.408  16.126  0.00  0.00    +0.000 C 
ENDBRANCH  10  15
ENDBRANCH   1  12
TORSDOF 2
ENDMDL
MODEL 8
REMARK VINA RESULT:      -5.8      3.281      5.051
REMARK  Name = 
REMARK  5 active torsions:
REMARK  status: ('A' for Active; 'I' for Inactive)
REMARK    1  A    between atoms: C_1  and  C_2
REMARK    2  A    between atoms: C_2  and  C_3
REMARK    3  A    between atoms: N_5  and  C_6
REMARK    4  A    between atoms: C_7  and  C_8
REMARK    5  A    between atoms: C_10  and  C_11
REMARK                            x       y       z     vdW  Elec       q    Type
REMARK                         _______ _______ _______ _____ _____    ______ ____
ROOT
ATOM      1  C   UNL     1       5.127   5.951  17.006  0.00  0.00    +0.000 A 
ATOM      2  C   UNL     1       3.861   6.113  17.602  0.00  0.00    +0.000 A 
ATOM      3  C   UNL     1       3.300   7.434  18.052  0.00  0.00    +0.000 C 
ATOM      4  C   UNL     1       3.032   4.984  17.753  0.00  0.00    +0.000 A 
ATOM      5  C   UNL     1       3.420   3.718  17.297  0.00  0.00    +0.000 A 
ATOM      6  C   UNL     1       2.524   2.528  17.471  0.00  0.00    +0.000 C 
ATOM      7  C   UNL     1       4.661   3.579  16.670  0.00  0.00    +0.000 A 
ATOM      8  C   UNL     1       5.497   4.685  16.513  0.00  0.00    +0.000 A 
ATOM      9 CL   UNL     1       7.033   4.443  15.746  0.00  0.00    +0.000 Cl
ENDROOT
BRANCH   1  12
ATOM     10  C   UNL     1       7.108   7.207  17.721  0.00  0.00    +0.000 C 
ATOM     11  O   UNL     1       7.354   6.492  18.691  0.00  0.00    +0.000 OA
ATOM     12  N   UNL     1       6.041   7.026  16.853  0.00  0.00    +0.000 N 
ATOM     13  H   UNL     1       6.242   7.282  15.890  0.00  0.00    +0.000 HD
BRANCH  10  15
ATOM     14  C   UNL     1       8.581   9.057  18.569  0.00  0.00    +0.000 C 
ATOM     15  C   UNL     1       7.970   8.396  17.346  0.00  0.00    +0.000 C 
ENDBRANCH  10  15
ENDBRANCH   1  12
TORSDOF 2
ENDMDL
MODEL 9
REMARK VINA RESULT:      -5.8      1.741      1.778
REMARK  Name = 
REMARK  5 active torsions:
REMARK  status: ('A' for Active; 'I' for Inactive)
REMARK    1  A    between atoms: C_1  and  C_2
REMARK    2  A    between atoms: C_2  and  C_3
REMARK    3  A    between atoms: N_5  and  C_6
REMARK    4  A    between atoms: C_7  and  C_8
REMARK    5  A    between atoms: C_10  and  C_11
REMARK                            x       y       z     vdW  Elec       q    Type
REMARK                         _______ _______ _______ _____ _____    ______ ____
ROOT
ATOM      1  C   UNL     1       3.693   5.116  18.646  0.00  0.00    +0.000 A 
ATOM      2  C   UNL     1       3.664   6.386  18.037  0.00  0.00    +0.000 A 
ATOM      3  C   UNL     1       2.427   7.232  17.899  0.00  0.00    +0.000 C 
ATOM      4  C   UNL     1       4.869   6.937  17.559  0.00  0.00    +0.000 A 
ATOM      5  C   UNL     1       6.093   6.273  17.706  0.00  0.00    +0.000 A 
ATOM      6  C   UNL     1       7.365   6.876  17.187  0.00  0.00    +0.000 C 
ATOM      7  C   UNL     1       6.114   5.033  18.350  0.00  0.00    +0.000 A 
ATOM      8  C   UNL     1       4.929   4.470  18.828  0.00  0.00    +0.000 A 
ATOM      9 CL   UNL     1       5.018   2.920  19.600  0.00  0.00    +0.000 Cl
ENDROOT
BRANCH   1  12
ATOM     10  C   UNL     1       1.791   3.604  18.315  0.00  0.00    +0.000 C 
ATOM     11  O   UNL     1       2.063   3.330  17.148  0.00  0.00    +0.000 OA
ATOM     12  N   UNL     1       2.520   4.471  19.118  0.00  0.00    +0.000 N 
ATOM     13  H   UNL     1       2.542   4.206  20.099  0.00  0.00    +0.000 HD
BRANCH  10  15
ATOM     14  C   UNL     1       0.752   3.095  20.545  0.00  0.00    +0.000 C 
ATOM     15  C   UNL     1       0.600   3.005  19.037  0.00  0.00    +0.000 C 
ENDBRANCH  10  15
ENDBRANCH   1  12
TORSDOF 2
ENDMDL
