MODEL 1
REMARK VINA RESULT:      -9.1      0.000      0.000
REMARK  Name = 
REMARK  4 active torsions:
REMARK  status: ('A' for Active; 'I' for Inactive)
REMARK    1  A    between atoms: C_2  and  C_3
REMARK    2  A    between atoms: C_5  and  C_6
REMARK    3  A    between atoms: C_6  and  C_7
REMARK    4  A    between atoms: N_25  and  C_26
REMARK                            x       y       z     vdW  Elec       q    Type
REMARK                         _______ _______ _______ _____ _____    ______ ____
ROOT
ATOM      1  C   UNL     1       0.835   9.475  19.170  0.00  0.00    +0.000 A 
ATOM      2  C   UNL     1       1.708   8.765  18.331  0.00  0.00    +0.000 A 
ATOM      3  C   UNL     1       2.423   7.654  18.812  0.00  0.00    +0.000 A 
ATOM      4  C   UNL     1       2.209   7.225  20.129  0.00  0.00    +0.000 A 
ATOM      5  C   UNL     1       1.385   7.959  20.978  0.00  0.00    +0.000 A 
ATOM      6  C   UNL     1       0.750   9.106  20.510  0.00  0.00    +0.000 A 
ATOM      7  F   UNL     1       0.038   9.827  21.388  0.00  0.00    +0.000 F 
ENDROOT
BRANCH   1   9
ATOM      8  O   UNL     1      -0.912  10.294  17.885  0.00  0.00    +0.000 OA
ATOM      9  C   UNL     1       0.055  10.595  18.584  0.00  0.00    +0.000 C 
ATOM     10  N   UNL     1       0.369  11.921  18.906  0.00  0.00    +0.000 N 
ATOM     11  C   UNL     1      -0.382  12.991  18.235  0.00  0.00    +0.000 C 
ATOM     12  C   UNL     1      -0.417  14.310  19.041  0.00  0.00    +0.000 C 
ATOM     13  N   UNL     1       0.892  14.764  19.574  0.00  0.00    +0.000 NA
ATOM     14  C   UNL     1       1.454  13.654  20.360  0.00  0.00    +0.000 C 
ATOM     15  C   UNL     1       1.600  12.346  19.581  0.00  0.00    +0.000 C 
BRANCH  13  16
ATOM     16  C   UNL     1       1.790  15.273  18.522  0.00  0.00    +0.000 C 
ATOM     17  C   UNL     1       1.568  16.769  18.278  0.00  0.00    +0.000 C 
ATOM     18  C   UNL     1       2.818  17.212  17.540  0.00  0.00    +0.000 C 
ATOM     19  C   UNL     1       3.948  16.407  18.164  0.00  0.00    +0.000 C 
ATOM     20  C   UNL     1       3.294  15.210  18.854  0.00  0.00    +0.000 C 
ENDBRANCH  13  16
ENDBRANCH   1   9
BRANCH   3  21
ATOM     21  C   UNL     1       3.404   6.926  17.917  0.00  0.00    +0.000 C 
BRANCH  21  22
ATOM     22  C   UNL     1       3.861   5.588  18.482  0.00  0.00    +0.000 A 
ATOM     23  N   UNL     1       5.072   5.540  18.959  0.00  0.00    +0.000 NA
ATOM     24  N   UNL     1       5.487   4.371  19.506  0.00  0.00    +0.000 N 
ATOM     25  C   UNL     1       4.740   3.233  19.631  0.00  0.00    +0.000 A 
ATOM     26  O   UNL     1       5.185   2.211  20.141  0.00  0.00    +0.000 OA
ATOM     27  C   UNL     1       3.353   3.310  19.109  0.00  0.00    +0.000 A 
ATOM     28  C   UNL     1       2.911   4.434  18.516  0.00  0.00    +0.000 A 
ATOM     29  C   UNL     1       1.528   4.541  17.937  0.00  0.00    +0.000 C 
ATOM     30  C   UNL     1       0.794   3.199  17.836  0.00  0.00    +0.000 C 
ATOM     31  C   UNL     1       1.014   2.356  19.085  0.00  0.00    +0.000 C 
ATOM     32  C   UNL     1       2.504   2.082  19.296  0.00  0.00    +0.000 C 
ATOM     33  H   UNL     1       6.436   4.348  19.868  0.00  0.00    +0.000 HD
ENDBRANCH  21  22
ENDBRANCH   3  21
TORSDOF 4
ENDMDL
MODEL 2
REMARK VINA RESULT:      -8.8      1.142      1.360
REMARK  Name = 
REMARK  4 active torsions:
REMARK  status: ('A' for Active; 'I' for Inactive)
REMARK    1  A    between atoms: C_2  and  C_3
REMARK    2  A    between atoms: C_5  and  C_6
REMARK    3  A    between atoms: C_6  and  C_7
REMARK    4  A    between atoms: N_25  and  C_26
REMARK                            x       y       z     vdW  Elec       q    Type
REMARK                         _______ _______ _______ _____ _____    ______ ____
ROOT
ATOM      1  C   UNL     1       0.554   9.974  19.825  0.00  0.00    +0.000 A 
ATOM      2  C   UNL     1       1.098   9.427  18.652  0.00  0.00    +0.000 A 
ATOM      3  C   UNL     1       1.876   8.256  18.699  0.00  0.00    +0.000 A 
ATOM      4  C   UNL     1       2.056   7.607  19.928  0.00  0.00    +0.000 A 
ATOM      5  C   UNL     1       1.562   8.177  21.099  0.00  0.00    +0.000 A 
ATOM      6  C   UNL     1       0.865   9.381  21.045  0.00  0.00    +0.000 A 
ATOM      7  F   UNL     1       0.487   9.934  22.206  0.00  0.00    +0.000 F 
ENDROOT
BRANCH   1   9
ATOM      8  O   UNL     1      -1.529  10.969  19.612  0.00  0.00    +0.000 OA
ATOM      9  C   UNL     1      -0.318  11.170  19.701  0.00  0.00    +0.000 C 
ATOM     10  N   UNL     1       0.228  12.456  19.782  0.00  0.00    +0.000 N 
ATOM     11  C   UNL     1      -0.667  13.602  19.571  0.00  0.00    +0.000 C 
ATOM     12  C   UNL     1      -0.167  14.900  20.247  0.00  0.00    +0.000 C 
ATOM     13  N   UNL     1       1.261  15.228  20.013  0.00  0.00    +0.000 NA
ATOM     14  C   UNL     1       2.053  14.056  20.422  0.00  0.00    +0.000 C 
ATOM     15  C   UNL     1       1.662  12.759  19.710  0.00  0.00    +0.000 C 
BRANCH  13  16
ATOM     16  C   UNL     1       1.524  15.684  18.637  0.00  0.00    +0.000 C 
ATOM     17  C   UNL     1       1.099  17.143  18.444  0.00  0.00    +0.000 C 
ATOM     18  C   UNL     1       1.824  17.574  17.181  0.00  0.00    +0.000 C 
ATOM     19  C   UNL     1       3.172  16.873  17.244  0.00  0.00    +0.000 C 
ATOM     20  C   UNL     1       3.009  15.712  18.225  0.00  0.00    +0.000 C 
ENDBRANCH  13  16
ENDBRANCH   1   9
BRANCH   3  21
ATOM     21  C   UNL     1       2.506   7.702  17.438  0.00  0.00    +0.000 C 
BRANCH  21  22
ATOM     22  C   UNL     1       3.609   6.688  17.709  0.00  0.00    +0.000 A 
ATOM     23  N   UNL     1       4.827   7.148  17.747  0.00  0.00    +0.000 NA
ATOM     24  N   UNL     1       5.823   6.272  18.028  0.00  0.00    +0.000 N 
ATOM     25  C   UNL     1       5.668   4.943  18.304  0.00  0.00    +0.000 A 
ATOM     26  O   UNL     1       6.620   4.210  18.552  0.00  0.00    +0.000 OA
ATOM     27  C   UNL     1       4.272   4.437  18.285  0.00  0.00    +0.000 A 
ATOM     28  C   UNL     1       3.256   5.258  17.966  0.00  0.00    +0.000 A 
ATOM     29  C   UNL     1       1.833   4.779  17.894  0.00  0.00    +0.000 C 
ATOM     30  C   UNL     1       1.692   3.253  17.937  0.00  0.00    +0.000 C 
ATOM     31  C   UNL     1       2.631   2.642  18.969  0.00  0.00    +0.000 C 
ATOM     32  C   UNL     1       4.086   2.987  18.646  0.00  0.00    +0.000 C 
ATOM     33  H   UNL     1       6.767   6.646  18.048  0.00  0.00    +0.000 HD
ENDBRANCH  21  22
ENDBRANCH   3  21
TORSDOF 4
ENDMDL
MODEL 3
REMARK VINA RESULT:      -8.8      2.708      4.504
REMARK  Name = 
REMARK  4 active torsions:
REMARK  status: ('A' for Active; 'I' for Inactive)
REMARK    1  A    between atoms: C_2  and  C_3
REMARK    2  A    between atoms: C_5  and  C_6
REMARK    3  A    between atoms: C_6  and  C_7
REMARK    4  A    between atoms: N_25  and  C_26
REMARK                            x       y       z     vdW  Elec       q    Type
REMARK                         _______ _______ _______ _____ _____    ______ ____
ROOT
ATOM      1  C   UNL     1       0.987   9.639  19.183  0.00  0.00    +0.000 A 
ATOM      2  C   UNL     1       1.796   8.888  18.316  0.00  0.00    +0.000 A 
ATOM      3  C   UNL     1       2.404   7.696  18.751  0.00  0.00    +0.000 A 
ATOM      4  C   UNL     1       2.146   7.235  20.049  0.00  0.00    +0.000 A 
ATOM      5  C   UNL     1       1.388   8.006  20.927  0.00  0.00    +0.000 A 
ATOM      6  C   UNL     1       0.863   9.225  20.507  0.00  0.00    +0.000 A 
ATOM      7  F   UNL     1       0.217   9.972  21.413  0.00  0.00    +0.000 F 
ENDROOT
BRANCH   1   9
ATOM      8  O   UNL     1       0.987  11.880  18.590  0.00  0.00    +0.000 OA
ATOM      9  C   UNL     1       0.316  10.848  18.643  0.00  0.00    +0.000 C 
ATOM     10  N   UNL     1      -0.986  10.770  18.137  0.00  0.00    +0.000 N 
ATOM     11  C   UNL     1      -1.631  12.012  17.691  0.00  0.00    +0.000 C 
ATOM     12  C   UNL     1      -2.742  11.781  16.640  0.00  0.00    +0.000 C 
ATOM     13  N   UNL     1      -3.713  10.708  16.967  0.00  0.00    +0.000 NA
ATOM     14  C   UNL     1      -2.940   9.483  17.229  0.00  0.00    +0.000 C 
ATOM     15  C   UNL     1      -1.889   9.630  18.330  0.00  0.00    +0.000 C 
BRANCH  13  16
ATOM     16  C   UNL     1      -4.633  11.084  18.055  0.00  0.00    +0.000 C 
ATOM     17  C   UNL     1      -5.561  12.226  17.628  0.00  0.00    +0.000 C 
ATOM     18  C   UNL     1      -6.691  12.182  18.641  0.00  0.00    +0.000 C 
ATOM     19  C   UNL     1      -6.909  10.703  18.921  0.00  0.00    +0.000 C 
ATOM     20  C   UNL     1      -5.631   9.988  18.482  0.00  0.00    +0.000 C 
ENDBRANCH  13  16
ENDBRANCH   1   9
BRANCH   3  21
ATOM     21  C   UNL     1       3.318   6.919  17.827  0.00  0.00    +0.000 C 
BRANCH  21  22
ATOM     22  C   UNL     1       3.799   5.601  18.421  0.00  0.00    +0.000 A 
ATOM     23  N   UNL     1       5.022   5.576  18.870  0.00  0.00    +0.000 NA
ATOM     24  N   UNL     1       5.459   4.427  19.442  0.00  0.00    +0.000 N 
ATOM     25  C   UNL     1       4.724   3.289  19.618  0.00  0.00    +0.000 A 
ATOM     26  O   UNL     1       5.189   2.284  20.146  0.00  0.00    +0.000 OA
ATOM     27  C   UNL     1       3.324   3.340  19.125  0.00  0.00    +0.000 A 
ATOM     28  C   UNL     1       2.860   4.441  18.511  0.00  0.00    +0.000 A 
ATOM     29  C   UNL     1       1.463   4.522  17.961  0.00  0.00    +0.000 C 
ATOM     30  C   UNL     1       0.738   3.172  17.917  0.00  0.00    +0.000 C 
ATOM     31  C   UNL     1       0.994   2.368  19.184  0.00  0.00    +0.000 C 
ATOM     32  C   UNL     1       2.490   2.110  19.368  0.00  0.00    +0.000 C 
ATOM     33  H   UNL     1       6.415   4.423  19.782  0.00  0.00    +0.000 HD
ENDBRANCH  21  22
ENDBRANCH   3  21
TORSDOF 4
ENDMDL
MODEL 4
REMARK VINA RESULT:      -8.6      1.782      2.495
REMARK  Name = 
REMARK  4 active torsions:
REMARK  status: ('A' for Active; 'I' for Inactive)
REMARK    1  A    between atoms: C_2  and  C_3
REMARK    2  A    between atoms: C_5  and  C_6
REMARK    3  A    between atoms: C_6  and  C_7
REMARK    4  A    between atoms: N_25  and  C_26
REMARK                            x       y       z     vdW  Elec       q    Type
REMARK                         _______ _______ _______ _____ _____    ______ ____
ROOT
ATOM      1  C   UNL     1       0.450   9.779  19.615  0.00  0.00    +0.000 A 
ATOM      2  C   UNL     1       1.299   9.306  18.602  0.00  0.00    +0.000 A 
ATOM      3  C   UNL     1       2.127   8.190  18.821  0.00  0.00    +0.000 A 
ATOM      4  C   UNL     1       2.053   7.518  20.049  0.00  0.00    +0.000 A 
ATOM      5  C   UNL     1       1.252   8.018  21.073  0.00  0.00    +0.000 A 
ATOM      6  C   UNL     1       0.502   9.172  20.867  0.00  0.00    +0.000 A 
ATOM      7  F   UNL     1      -0.184   9.664  21.908  0.00  0.00    +0.000 F 
ENDROOT
BRANCH   1   9
ATOM      8  O   UNL     1      -1.595  10.636  18.939  0.00  0.00    +0.000 OA
ATOM      9  C   UNL     1      -0.451  10.916  19.299  0.00  0.00    +0.000 C 
ATOM     10  N   UNL     1      -0.027  12.234  19.501  0.00  0.00    +0.000 N 
ATOM     11  C   UNL     1      -0.929  13.321  19.096  0.00  0.00    +0.000 C 
ATOM     12  C   UNL     1      -0.684  14.638  19.868  0.00  0.00    +0.000 C 
ATOM     13  N   UNL     1       0.734  15.065  19.962  0.00  0.00    +0.000 NA
ATOM     14  C   UNL     1       1.493  13.942  20.537  0.00  0.00    +0.000 C 
ATOM     15  C   UNL     1       1.361  12.634  19.755  0.00  0.00    +0.000 C 
BRANCH  13  16
ATOM     16  C   UNL     1       1.267  15.560  18.680  0.00  0.00    +0.000 C 
ATOM     17  C   UNL     1       0.856  17.014  18.431  0.00  0.00    +0.000 C 
ATOM     18  C   UNL     1       1.818  17.491  17.357  0.00  0.00    +0.000 C 
ATOM     19  C   UNL     1       3.140  16.816  17.687  0.00  0.00    +0.000 C 
ATOM     20  C   UNL     1       2.805  15.629  18.590  0.00  0.00    +0.000 C 
ENDBRANCH  13  16
ENDBRANCH   1   9
BRANCH   3  21
ATOM     21  C   UNL     1       3.080   7.718  17.743  0.00  0.00    +0.000 C 
BRANCH  21  22
ATOM     22  C   UNL     1       3.206   6.202  17.669  0.00  0.00    +0.000 A 
ATOM     23  N   UNL     1       2.193   5.511  18.110  0.00  0.00    +0.000 NA
ATOM     24  N   UNL     1       2.263   4.161  18.015  0.00  0.00    +0.000 N 
ATOM     25  C   UNL     1       3.294   3.447  17.472  0.00  0.00    +0.000 A 
ATOM     26  O   UNL     1       3.286   2.221  17.420  0.00  0.00    +0.000 OA
ATOM     27  C   UNL     1       4.430   4.247  16.949  0.00  0.00    +0.000 A 
ATOM     28  C   UNL     1       4.426   5.587  17.062  0.00  0.00    +0.000 A 
ATOM     29  C   UNL     1       5.572   6.433  16.583  0.00  0.00    +0.000 C 
ATOM     30  C   UNL     1       6.827   5.628  16.226  0.00  0.00    +0.000 C 
ATOM     31  C   UNL     1       6.469   4.359  15.463  0.00  0.00    +0.000 C 
ATOM     32  C   UNL     1       5.543   3.472  16.296  0.00  0.00    +0.000 C 
ATOM     33  H   UNL     1       1.468   3.637  18.368  0.00  0.00    +0.000 HD
ENDBRANCH  21  22
ENDBRANCH   3  21
TORSDOF 4
ENDMDL
MODEL 5
REMARK VINA RESULT:      -8.2      3.370      5.063
REMARK  Name = 
REMARK  4 active torsions:
REMARK  status: ('A' for Active; 'I' for Inactive)
REMARK    1  A    between atoms: C_2  and  C_3
REMARK    2  A    between atoms: C_5  and  C_6
REMARK    3  A    between atoms: C_6  and  C_7
REMARK    4  A    between atoms: N_25  and  C_26
REMARK                            x       y       z     vdW  Elec       q    Type
REMARK                         _______ _______ _______ _____ _____    ______ ____
ROOT
ATOM      1  C   UNL     1       0.841   9.731  20.085  0.00  0.00    +0.000 A 
ATOM      2  C   UNL     1       1.133   8.508  20.709  0.00  0.00    +0.000 A 
ATOM      3  C   UNL     1       1.864   7.513  20.036  0.00  0.00    +0.000 A 
ATOM      4  C   UNL     1       2.348   7.778  18.748  0.00  0.00    +0.000 A 
ATOM      5  C   UNL     1       2.014   8.969  18.106  0.00  0.00    +0.000 A 
ATOM      6  C   UNL     1       1.219   9.909  18.756  0.00  0.00    +0.000 A 
ATOM      7  F   UNL     1       0.851  10.997  18.067  0.00  0.00    +0.000 F 
ENDROOT
BRANCH   1   9
ATOM      8  O   UNL     1       0.675  11.154  21.907  0.00  0.00    +0.000 OA
ATOM      9  C   UNL     1       0.129  10.768  20.873  0.00  0.00    +0.000 C 
ATOM     10  N   UNL     1      -1.058  11.333  20.392  0.00  0.00    +0.000 N 
ATOM     11  C   UNL     1      -1.763  12.296  21.250  0.00  0.00    +0.000 C 
ATOM     12  C   UNL     1      -2.656  13.279  20.459  0.00  0.00    +0.000 C 
ATOM     13  N   UNL     1      -3.536  12.657  19.438  0.00  0.00    +0.000 NA
ATOM     14  C   UNL     1      -2.678  11.857  18.549  0.00  0.00    +0.000 C 
ATOM     15  C   UNL     1      -1.841  10.801  19.272  0.00  0.00    +0.000 C 
BRANCH  13  16
ATOM     16  C   UNL     1      -4.656  11.906  20.032  0.00  0.00    +0.000 C 
ATOM     17  C   UNL     1      -5.474  12.787  20.982  0.00  0.00    +0.000 C 
ATOM     18  C   UNL     1      -6.786  12.038  21.140  0.00  0.00    +0.000 C 
ATOM     19  C   UNL     1      -7.060  11.434  19.771  0.00  0.00    +0.000 C 
ATOM     20  C   UNL     1      -5.722  11.415  19.033  0.00  0.00    +0.000 C 
ENDBRANCH  13  16
ENDBRANCH   1   9
BRANCH   3  21
ATOM     21  C   UNL     1       2.128   6.176  20.695  0.00  0.00    +0.000 C 
BRANCH  21  22
ATOM     22  C   UNL     1       2.217   5.021  19.706  0.00  0.00    +0.000 A 
ATOM     23  N   UNL     1       1.117   4.360  19.481  0.00  0.00    +0.000 NA
ATOM     24  N   UNL     1       1.162   3.355  18.573  0.00  0.00    +0.000 N 
ATOM     25  C   UNL     1       2.255   2.980  17.843  0.00  0.00    +0.000 A 
ATOM     26  O   UNL     1       2.218   2.057  17.036  0.00  0.00    +0.000 OA
ATOM     27  C   UNL     1       3.495   3.759  18.090  0.00  0.00    +0.000 A 
ATOM     28  C   UNL     1       3.511   4.735  19.014  0.00  0.00    +0.000 A 
ATOM     29  C   UNL     1       4.755   5.520  19.325  0.00  0.00    +0.000 C 
ATOM     30  C   UNL     1       6.029   4.929  18.711  0.00  0.00    +0.000 C 
ATOM     31  C   UNL     1       5.785   4.457  17.284  0.00  0.00    +0.000 C 
ATOM     32  C   UNL     1       4.687   3.392  17.248  0.00  0.00    +0.000 C 
ATOM     33  H   UNL     1       0.297   2.847  18.413  0.00  0.00    +0.000 HD
ENDBRANCH  21  22
ENDBRANCH   3  21
TORSDOF 4
ENDMDL
MODEL 6
REMARK VINA RESULT:      -8.2      2.360      9.941
REMARK  Name = 
REMARK  4 active torsions:
REMARK  status: ('A' for Active; 'I' for Inactive)
REMARK    1  A    between atoms: C_2  and  C_3
REMARK    2  A    between atoms: C_5  and  C_6
REMARK    3  A    between atoms: C_6  and  C_7
REMARK    4  A    between atoms: N_25  and  C_26
REMARK                            x       y       z     vdW  Elec       q    Type
REMARK                         _______ _______ _______ _____ _____    ______ ____
ROOT
ATOM      1  C   UNL     1       0.762  10.520  18.681  0.00  0.00    +0.000 A 
ATOM      2  C   UNL     1       1.219  11.556  19.511  0.00  0.00    +0.000 A 
ATOM      3  C   UNL     1       0.312  12.439  20.124  0.00  0.00    +0.000 A 
ATOM      4  C   UNL     1      -1.063  12.238  19.942  0.00  0.00    +0.000 A 
ATOM      5  C   UNL     1      -1.516  11.245  19.077  0.00  0.00    +0.000 A 
ATOM      6  C   UNL     1      -0.602  10.432  18.412  0.00  0.00    +0.000 A 
ATOM      7  F   UNL     1      -1.082   9.551  17.524  0.00  0.00    +0.000 F 
ENDROOT
BRANCH   1   9
ATOM      8  O   UNL     1       2.418   9.971  17.156  0.00  0.00    +0.000 OA
ATOM      9  C   UNL     1       1.763   9.577  18.121  0.00  0.00    +0.000 C 
ATOM     10  N   UNL     1       1.998   8.343  18.739  0.00  0.00    +0.000 N 
ATOM     11  C   UNL     1       2.939   7.416  18.096  0.00  0.00    +0.000 C 
ATOM     12  C   UNL     1       3.581   6.415  19.084  0.00  0.00    +0.000 C 
ATOM     13  N   UNL     1       2.635   5.736  20.005  0.00  0.00    +0.000 NA
ATOM     14  C   UNL     1       1.874   6.786  20.703  0.00  0.00    +0.000 C 
ATOM     15  C   UNL     1       1.139   7.750  19.770  0.00  0.00    +0.000 C 
BRANCH  13  16
ATOM     16  C   UNL     1       1.796   4.734  19.324  0.00  0.00    +0.000 C 
ATOM     17  C   UNL     1       2.652   3.723  18.555  0.00  0.00    +0.000 C 
ATOM     18  C   UNL     1       1.712   2.556  18.309  0.00  0.00    +0.000 C 
ATOM     19  C   UNL     1       0.859   2.469  19.565  0.00  0.00    +0.000 C 
ATOM     20  C   UNL     1       0.966   3.828  20.255  0.00  0.00    +0.000 C 
ENDBRANCH  13  16
ENDBRANCH   1   9
BRANCH   3  21
ATOM     21  C   UNL     1       0.815  13.587  20.973  0.00  0.00    +0.000 C 
BRANCH  21  22
ATOM     22  C   UNL     1       1.605  14.623  20.183  0.00  0.00    +0.000 A 
ATOM     23  N   UNL     1       2.897  14.464  20.145  0.00  0.00    +0.000 NA
ATOM     24  N   UNL     1       3.619  15.349  19.414  0.00  0.00    +0.000 N 
ATOM     25  C   UNL     1       3.113  16.387  18.683  0.00  0.00    +0.000 A 
ATOM     26  O   UNL     1       3.831  17.148  18.042  0.00  0.00    +0.000 OA
ATOM     27  C   UNL     1       1.636  16.539  18.713  0.00  0.00    +0.000 A 
ATOM     28  C   UNL     1       0.883  15.715  19.461  0.00  0.00    +0.000 A 
ATOM     29  C   UNL     1      -0.610  15.859  19.553  0.00  0.00    +0.000 C 
ATOM     30  C   UNL     1      -1.143  17.168  18.959  0.00  0.00    +0.000 C 
ATOM     31  C   UNL     1      -0.442  17.503  17.649  0.00  0.00    +0.000 C 
ATOM     32  C   UNL     1       1.065  17.644  17.864  0.00  0.00    +0.000 C 
ATOM     33  H   UNL     1       4.625  15.215  19.399  0.00  0.00    +0.000 HD
ENDBRANCH  21  22
ENDBRANCH   3  21
TORSDOF 4
ENDMDL
MODEL 7
REMARK VINA RESULT:      -8.2      3.986      5.567
REMARK  Name = 
REMARK  4 active torsions:
REMARK  status: ('A' for Active; 'I' for Inactive)
REMARK    1  A    between atoms: C_2  and  C_3
REMARK    2  A    between atoms: C_5  and  C_6
REMARK    3  A    between atoms: C_6  and  C_7
REMARK    4  A    between atoms: N_25  and  C_26
REMARK                            x       y       z     vdW  Elec       q    Type
REMARK                         _______ _______ _______ _____ _____    ______ ____
ROOT
ATOM      1  C   UNL     1      -1.089  11.070  18.492  0.00  0.00    +0.000 A 
ATOM      2  C   UNL     1      -0.559   9.915  19.087  0.00  0.00    +0.000 A 
ATOM      3  C   UNL     1       0.568   9.990  19.925  0.00  0.00    +0.000 A 
ATOM      4  C   UNL     1       1.126  11.245  20.204  0.00  0.00    +0.000 A 
ATOM      5  C   UNL     1       0.635  12.385  19.572  0.00  0.00    +0.000 A 
ATOM      6  C   UNL     1      -0.429  12.281  18.680  0.00  0.00    +0.000 A 
ATOM      7  F   UNL     1      -0.808  13.390  18.030  0.00  0.00    +0.000 F 
ENDROOT
BRANCH   1   9
ATOM      8  O   UNL     1      -2.225  10.318  16.616  0.00  0.00    +0.000 OA
ATOM      9  C   UNL     1      -2.323  10.935  17.677  0.00  0.00    +0.000 C 
ATOM     10  N   UNL     1      -3.547  11.412  18.160  0.00  0.00    +0.000 N 
ATOM     11  C   UNL     1      -4.720  11.326  17.278  0.00  0.00    +0.000 C 
ATOM     12  C   UNL     1      -6.061  11.292  18.047  0.00  0.00    +0.000 C 
ATOM     13  N   UNL     1      -6.209  12.315  19.112  0.00  0.00    +0.000 NA
ATOM     14  C   UNL     1      -5.054  12.177  20.015  0.00  0.00    +0.000 C 
ATOM     15  C   UNL     1      -3.698  12.299  19.318  0.00  0.00    +0.000 C 
BRANCH  13  16
ATOM     16  C   UNL     1      -6.397  13.674  18.575  0.00  0.00    +0.000 C 
ATOM     17  C   UNL     1      -7.587  13.731  17.612  0.00  0.00    +0.000 C 
ATOM     18  C   UNL     1      -7.912  15.212  17.515  0.00  0.00    +0.000 C 
ATOM     19  C   UNL     1      -7.664  15.760  18.912  0.00  0.00    +0.000 C 
ATOM     20  C   UNL     1      -6.761  14.749  19.618  0.00  0.00    +0.000 C 
ENDBRANCH  13  16
ENDBRANCH   1   9
BRANCH   3  21
ATOM     21  C   UNL     1       1.167   8.734  20.520  0.00  0.00    +0.000 C 
BRANCH  21  22
ATOM     22  C   UNL     1       1.963   7.909  19.516  0.00  0.00    +0.000 A 
ATOM     23  N   UNL     1       2.508   8.561  18.529  0.00  0.00    +0.000 NA
ATOM     24  N   UNL     1       3.257   7.855  17.646  0.00  0.00    +0.000 N 
ATOM     25  C   UNL     1       3.518   6.515  17.707  0.00  0.00    +0.000 A 
ATOM     26  O   UNL     1       4.208   5.945  16.868  0.00  0.00    +0.000 OA
ATOM     27  C   UNL     1       2.913   5.789  18.852  0.00  0.00    +0.000 A 
ATOM     28  C   UNL     1       2.126   6.438  19.728  0.00  0.00    +0.000 A 
ATOM     29  C   UNL     1       1.460   5.734  20.877  0.00  0.00    +0.000 C 
ATOM     30  C   UNL     1       1.532   4.205  20.791  0.00  0.00    +0.000 C 
ATOM     31  C   UNL     1       2.909   3.744  20.334  0.00  0.00    +0.000 C 
ATOM     32  C   UNL     1       3.244   4.325  18.959  0.00  0.00    +0.000 C 
ATOM     33  H   UNL     1       3.670   8.377  16.880  0.00  0.00    +0.000 HD
ENDBRANCH  21  22
ENDBRANCH   3  21
TORSDOF 4
ENDMDL
MODEL 8
REMARK VINA RESULT:      -8.1      3.309      4.870
REMARK  Name = 
REMARK  4 active torsions:
REMARK  status: ('A' for Active; 'I' for Inactive)
REMARK    1  A    between atoms: C_2  and  C_3
REMARK    2  A    between atoms: C_5  and  C_6
REMARK    3  A    between atoms: C_6  and  C_7
REMARK    4  A    between atoms: N_25  and  C_26
REMARK                            x       y       z     vdW  Elec       q    Type
REMARK                         _______ _______ _______ _____ _____    ______ ____
ROOT
ATOM      1  C   UNL     1       0.633  10.230  20.010  0.00  0.00    +0.000 A 
ATOM      2  C   UNL     1       0.986   8.963  20.498  0.00  0.00    +0.000 A 
ATOM      3  C   UNL     1       1.744   8.075  19.713  0.00  0.00    +0.000 A 
ATOM      4  C   UNL     1       2.192   8.494  18.452  0.00  0.00    +0.000 A 
ATOM      5  C   UNL     1       1.796   9.730  17.945  0.00  0.00    +0.000 A 
ATOM      6  C   UNL     1       0.977  10.562  18.702  0.00  0.00    +0.000 A 
ATOM      7  F   UNL     1       0.551  11.700  18.137  0.00  0.00    +0.000 F 
ENDROOT
BRANCH   1   9
ATOM      8  O   UNL     1       0.465  11.487  21.951  0.00  0.00    +0.000 OA
ATOM      9  C   UNL     1      -0.106  11.148  20.914  0.00  0.00    +0.000 C 
ATOM     10  N   UNL     1      -1.351  11.665  20.536  0.00  0.00    +0.000 N 
ATOM     11  C   UNL     1      -2.074  12.504  21.502  0.00  0.00    +0.000 C 
ATOM     12  C   UNL     1      -3.070  13.482  20.837  0.00  0.00    +0.000 C 
ATOM     13  N   UNL     1      -3.957  12.884  19.809  0.00  0.00    +0.000 NA
ATOM     14  C   UNL     1      -3.094  12.220  18.818  0.00  0.00    +0.000 C 
ATOM     15  C   UNL     1      -2.152  11.171  19.412  0.00  0.00    +0.000 C 
BRANCH  13  16
ATOM     16  C   UNL     1      -4.993  12.011  20.388  0.00  0.00    +0.000 C 
ATOM     17  C   UNL     1      -5.892  12.783  21.358  0.00  0.00    +0.000 C 
ATOM     18  C   UNL     1      -7.121  11.902  21.502  0.00  0.00    +0.000 C 
ATOM     19  C   UNL     1      -7.338  11.303  20.120  0.00  0.00    +0.000 C 
ATOM     20  C   UNL     1      -6.008  11.436  19.379  0.00  0.00    +0.000 C 
ENDBRANCH  13  16
ENDBRANCH   1   9
BRANCH   3  21
ATOM     21  C   UNL     1       2.076   6.689  20.224  0.00  0.00    +0.000 C 
BRANCH  21  22
ATOM     22  C   UNL     1       2.791   5.821  19.197  0.00  0.00    +0.000 A 
ATOM     23  N   UNL     1       3.845   6.337  18.632  0.00  0.00    +0.000 NA
ATOM     24  N   UNL     1       4.524   5.568  17.745  0.00  0.00    +0.000 N 
ATOM     25  C   UNL     1       4.220   4.280  17.403  0.00  0.00    +0.000 A 
ATOM     26  O   UNL     1       4.884   3.645  16.590  0.00  0.00    +0.000 OA
ATOM     27  C   UNL     1       3.032   3.695  18.074  0.00  0.00    +0.000 A 
ATOM     28  C   UNL     1       2.301   4.435  18.927  0.00  0.00    +0.000 A 
ATOM     29  C   UNL     1       1.068   3.896  19.597  0.00  0.00    +0.000 C 
ATOM     30  C   UNL     1       0.580   2.564  19.016  0.00  0.00    +0.000 C 
ATOM     31  C   UNL     1       1.746   1.625  18.737  0.00  0.00    +0.000 C 
ATOM     32  C   UNL     1       2.725   2.259  17.748  0.00  0.00    +0.000 C 
ATOM     33  H   UNL     1       5.340   5.986  17.309  0.00  0.00    +0.000 HD
ENDBRANCH  21  22
ENDBRANCH   3  21
TORSDOF 4
ENDMDL
MODEL 9
REMARK VINA RESULT:      -8.1      2.137      2.842
REMARK  Name = 
REMARK  4 active torsions:
REMARK  status: ('A' for Active; 'I' for Inactive)
REMARK    1  A    between atoms: C_2  and  C_3
REMARK    2  A    between atoms: C_5  and  C_6
REMARK    3  A    between atoms: C_6  and  C_7
REMARK    4  A    between atoms: N_25  and  C_26
REMARK                            x       y       z     vdW  Elec       q    Type
REMARK                         _______ _______ _______ _____ _____    ______ ____
ROOT
ATOM      1  C   UNL     1       0.682   9.926  19.955  0.00  0.00    +0.000 A 
ATOM      2  C   UNL     1       1.262   8.861  20.663  0.00  0.00    +0.000 A 
ATOM      3  C   UNL     1       1.912   7.816  19.983  0.00  0.00    +0.000 A 
ATOM      4  C   UNL     1       2.024   7.877  18.587  0.00  0.00    +0.000 A 
ATOM      5  C   UNL     1       1.403   8.904  17.880  0.00  0.00    +0.000 A 
ATOM      6  C   UNL     1       0.692   9.886  18.563  0.00  0.00    +0.000 A 
ATOM      7  F   UNL     1       0.038  10.803  17.835  0.00  0.00    +0.000 F 
ENDROOT
BRANCH   1   9
ATOM      8  O   UNL     1      -0.899  10.755  21.434  0.00  0.00    +0.000 OA
ATOM      9  C   UNL     1       0.073  11.035  20.732  0.00  0.00    +0.000 C 
ATOM     10  N   UNL     1       0.655  12.308  20.725  0.00  0.00    +0.000 N 
ATOM     11  C   UNL     1      -0.033  13.388  21.446  0.00  0.00    +0.000 C 
ATOM     12  C   UNL     1       0.914  14.526  21.892  0.00  0.00    +0.000 C 
ATOM     13  N   UNL     1       1.842  15.025  20.848  0.00  0.00    +0.000 NA
ATOM     14  C   UNL     1       2.584  13.864  20.330  0.00  0.00    +0.000 C 
ATOM     15  C   UNL     1       1.694  12.745  19.787  0.00  0.00    +0.000 C 
BRANCH  13  16
ATOM     16  C   UNL     1       1.160  15.817  19.809  0.00  0.00    +0.000 C 
ATOM     17  C   UNL     1       0.658  17.152  20.368  0.00  0.00    +0.000 C 
ATOM     18  C   UNL     1       0.405  17.998  19.133  0.00  0.00    +0.000 C 
ATOM     19  C   UNL     1       1.514  17.617  18.164  0.00  0.00    +0.000 C 
ATOM     20  C   UNL     1       2.050  16.264  18.631  0.00  0.00    +0.000 C 
ENDBRANCH  13  16
ENDBRANCH   1   9
BRANCH   3  21
ATOM     21  C   UNL     1       2.488   6.643  20.749  0.00  0.00    +0.000 C 
BRANCH  21  22
ATOM     22  C   UNL     1       2.088   5.291  20.173  0.00  0.00    +0.000 A 
ATOM     23  N   UNL     1       0.943   4.807  20.562  0.00  0.00    +0.000 NA
ATOM     24  N   UNL     1       0.546   3.624  20.032  0.00  0.00    +0.000 N 
ATOM     25  C   UNL     1       1.227   2.895  19.098  0.00  0.00    +0.000 A 
ATOM     26  O   UNL     1       0.802   1.830  18.662  0.00  0.00    +0.000 OA
ATOM     27  C   UNL     1       2.517   3.471  18.643  0.00  0.00    +0.000 A 
ATOM     28  C   UNL     1       2.975   4.618  19.174  0.00  0.00    +0.000 A 
ATOM     29  C   UNL     1       4.294   5.215  18.773  0.00  0.00    +0.000 C 
ATOM     30  C   UNL     1       5.170   4.273  17.939  0.00  0.00    +0.000 C 
ATOM     31  C   UNL     1       4.344   3.529  16.899  0.00  0.00    +0.000 C 
ATOM     32  C   UNL     1       3.246   2.704  17.572  0.00  0.00    +0.000 C 
ATOM     33  H   UNL     1      -0.346   3.259  20.350  0.00  0.00    +0.000 HD
ENDBRANCH  21  22
ENDBRANCH   3  21
TORSDOF 4
ENDMDL
