MODEL 1
REMARK VINA RESULT:      -7.2      0.000      0.000
REMARK  Name = 
REMARK  11 active torsions:
REMARK  status: ('A' for Active; 'I' for Inactive)
REMARK    1  A    between atoms: C_1  and  O_2
REMARK    2  A    between atoms: O_2  and  C_3
REMARK    3  A    between atoms: C_6  and  C_7
REMARK    4  A    between atoms: C_7  and  C_8
REMARK    5  A    between atoms: C_8  and  N_9
REMARK    6  A    between atoms: C_10  and  C_12
REMARK    7  A    between atoms: C_12  and  C_13
REMARK    8  A    between atoms: C_18  and  C_19
REMARK    9  A    between atoms: C_19  and  O_20
REMARK   10  A    between atoms: C_22  and  O_23
REMARK   11  A    between atoms: O_23  and  C_24
REMARK                            x       y       z     vdW  Elec       q    Type
REMARK                         _______ _______ _______ _____ _____    ______ ____
ROOT
ATOM      1  N   UNL     1       8.223   8.002  18.273  0.00  0.00    +0.000 N 
ATOM      2  C   UNL     1       7.394   7.170  17.550  0.00  0.00    +0.000 C 
ATOM      3  O   UNL     1       6.621   7.537  16.665  0.00  0.00    +0.000 OA
ATOM      4  H   UNL     1       9.008   7.561  18.733  0.00  0.00    +0.000 HD
ENDROOT
BRANCH   1   5
ATOM      5  C   UNL     1       8.374   9.433  18.010  0.00  0.00    +0.000 C 
BRANCH   5   6
ATOM      6  C   UNL     1       9.202  10.175  19.055  0.00  0.00    +0.000 C 
BRANCH   6  10
ATOM      7  C   UNL     1      10.755  13.829  17.375  0.00  0.00    +0.000 A 
ATOM      8  C   UNL     1      11.547  12.673  17.435  0.00  0.00    +0.000 A 
ATOM      9  C   UNL     1      11.060  11.504  18.014  0.00  0.00    +0.000 A 
ATOM     10  C   UNL     1       9.783  11.478  18.577  0.00  0.00    +0.000 A 
ATOM     11  C   UNL     1       9.038  12.661  18.616  0.00  0.00    +0.000 A 
ATOM     12  C   UNL     1       9.513  13.844  18.028  0.00  0.00    +0.000 A 
BRANCH   7  14
ATOM     13  C   UNL     1      12.026  15.820  17.450  0.00  0.00    +0.000 C 
ATOM     14  O   UNL     1      11.190  14.939  16.700  0.00  0.00    +0.000 OA
ENDBRANCH   7  14
BRANCH  12  15
ATOM     15  O   UNL     1       8.618  14.871  18.163  0.00  0.00    +0.000 OA
ATOM     16  C   UNL     1       7.270  14.661  17.781  0.00  0.00    +0.000 C 
ENDBRANCH  12  15
ENDBRANCH   6  10
ENDBRANCH   5   6
ENDBRANCH   1   5
BRANCH   2  17
ATOM     17  C   UNL     1       7.498   5.703  17.919  0.00  0.00    +0.000 C 
BRANCH  17  18
ATOM     18  C   UNL     1       6.135   5.060  17.969  0.00  0.00    +0.000 A 
ATOM     19  C   UNL     1       5.407   5.176  19.169  0.00  0.00    +0.000 A 
ATOM     20  C   UNL     1       4.167   4.561  19.319  0.00  0.00    +0.000 A 
ATOM     21  C   UNL     1       3.642   3.806  18.279  0.00  0.00    +0.000 A 
ATOM     22  C   UNL     1       4.354   3.670  17.087  0.00  0.00    +0.000 A 
ATOM     23  C   UNL     1       5.600   4.299  16.904  0.00  0.00    +0.000 A 
BRANCH  23  24
ATOM     24  C   UNL     1       6.301   4.100  15.580  0.00  0.00    +0.000 C 
BRANCH  24  25
ATOM     25  O   UNL     1       5.466   4.488  14.502  0.00  0.00    +0.000 OA
ATOM     26  H   UNL     1       6.034   4.517  13.703  0.00  0.00    +0.000 HD
ENDBRANCH  24  25
ENDBRANCH  23  24
ENDBRANCH  17  18
ENDBRANCH   2  17
TORSDOF 9
ENDMDL
MODEL 2
REMARK VINA RESULT:      -7.0      4.857      7.673
REMARK  Name = 
REMARK  11 active torsions:
REMARK  status: ('A' for Active; 'I' for Inactive)
REMARK    1  A    between atoms: C_1  and  O_2
REMARK    2  A    between atoms: O_2  and  C_3
REMARK    3  A    between atoms: C_6  and  C_7
REMARK    4  A    between atoms: C_7  and  C_8
REMARK    5  A    between atoms: C_8  and  N_9
REMARK    6  A    between atoms: C_10  and  C_12
REMARK    7  A    between atoms: C_12  and  C_13
REMARK    8  A    between atoms: C_18  and  C_19
REMARK    9  A    between atoms: C_19  and  O_20
REMARK   10  A    between atoms: C_22  and  O_23
REMARK   11  A    between atoms: O_23  and  C_24
REMARK                            x       y       z     vdW  Elec       q    Type
REMARK                         _______ _______ _______ _____ _____    ______ ____
ROOT
ATOM      1  N   UNL     1       2.731   5.903  20.461  0.00  0.00    +0.000 N 
ATOM      2  C   UNL     1       1.680   5.081  20.809  0.00  0.00    +0.000 C 
ATOM      3  O   UNL     1       0.491   5.329  20.612  0.00  0.00    +0.000 OA
ATOM      4  H   UNL     1       3.639   5.465  20.392  0.00  0.00    +0.000 HD
ENDROOT
BRANCH   1   5
ATOM      5  C   UNL     1       2.577   7.147  19.705  0.00  0.00    +0.000 C 
BRANCH   5   6
ATOM      6  C   UNL     1       2.541   6.955  18.191  0.00  0.00    +0.000 C 
BRANCH   6  10
ATOM      7  C   UNL     1       5.811   4.904  16.273  0.00  0.00    +0.000 A 
ATOM      8  C   UNL     1       4.651   4.211  16.649  0.00  0.00    +0.000 A 
ATOM      9  C   UNL     1       3.612   4.864  17.305  0.00  0.00    +0.000 A 
ATOM     10  C   UNL     1       3.726   6.218  17.629  0.00  0.00    +0.000 A 
ATOM     11  C   UNL     1       4.926   6.880  17.353  0.00  0.00    +0.000 A 
ATOM     12  C   UNL     1       5.979   6.236  16.684  0.00  0.00    +0.000 A 
BRANCH   7  14
ATOM     13  C   UNL     1       6.409   3.995  14.175  0.00  0.00    +0.000 C 
ATOM     14  O   UNL     1       6.779   4.290  15.522  0.00  0.00    +0.000 OA
ENDBRANCH   7  14
BRANCH  12  15
ATOM     15  O   UNL     1       7.047   7.072  16.498  0.00  0.00    +0.000 OA
ATOM     16  C   UNL     1       7.691   7.623  17.634  0.00  0.00    +0.000 C 
ENDBRANCH  12  15
ENDBRANCH   6  10
ENDBRANCH   5   6
ENDBRANCH   1   5
BRANCH   2  17
ATOM     17  C   UNL     1       2.093   3.784  21.478  0.00  0.00    +0.000 C 
BRANCH  17  18
ATOM     18  C   UNL     1       2.730   2.844  20.486  0.00  0.00    +0.000 A 
ATOM     19  C   UNL     1       4.111   2.600  20.617  0.00  0.00    +0.000 A 
ATOM     20  C   UNL     1       4.789   1.793  19.707  0.00  0.00    +0.000 A 
ATOM     21  C   UNL     1       4.101   1.229  18.642  0.00  0.00    +0.000 A 
ATOM     22  C   UNL     1       2.735   1.468  18.489  0.00  0.00    +0.000 A 
ATOM     23  C   UNL     1       2.024   2.264  19.407  0.00  0.00    +0.000 A 
BRANCH  23  24
ATOM     24  C   UNL     1       0.546   2.468  19.165  0.00  0.00    +0.000 C 
BRANCH  24  25
ATOM     25  O   UNL     1       0.107   1.710  18.050  0.00  0.00    +0.000 OA
ATOM     26  H   UNL     1      -0.816   1.439  18.241  0.00  0.00    +0.000 HD
ENDBRANCH  24  25
ENDBRANCH  23  24
ENDBRANCH  17  18
ENDBRANCH   2  17
TORSDOF 9
ENDMDL
MODEL 3
REMARK VINA RESULT:      -7.0      6.336      7.733
REMARK  Name = 
REMARK  11 active torsions:
REMARK  status: ('A' for Active; 'I' for Inactive)
REMARK    1  A    between atoms: C_1  and  O_2
REMARK    2  A    between atoms: O_2  and  C_3
REMARK    3  A    between atoms: C_6  and  C_7
REMARK    4  A    between atoms: C_7  and  C_8
REMARK    5  A    between atoms: C_8  and  N_9
REMARK    6  A    between atoms: C_10  and  C_12
REMARK    7  A    between atoms: C_12  and  C_13
REMARK    8  A    between atoms: C_18  and  C_19
REMARK    9  A    between atoms: C_19  and  O_20
REMARK   10  A    between atoms: C_22  and  O_23
REMARK   11  A    between atoms: O_23  and  C_24
REMARK                            x       y       z     vdW  Elec       q    Type
REMARK                         _______ _______ _______ _____ _____    ______ ____
ROOT
ATOM      1  N   UNL     1       4.362   3.975  17.229  0.00  0.00    +0.000 N 
ATOM      2  C   UNL     1       3.208   3.251  17.015  0.00  0.00    +0.000 C 
ATOM      3  O   UNL     1       2.320   3.552  16.218  0.00  0.00    +0.000 OA
ATOM      4  H   UNL     1       5.128   3.478  17.661  0.00  0.00    +0.000 HD
ENDROOT
BRANCH   1   5
ATOM      5  C   UNL     1       4.739   5.155  16.451  0.00  0.00    +0.000 C 
BRANCH   5   6
ATOM      6  C   UNL     1       4.947   6.413  17.288  0.00  0.00    +0.000 C 
BRANCH   6  10
ATOM      7  C   UNL     1       1.710   7.799  19.776  0.00  0.00    +0.000 A 
ATOM      8  C   UNL     1       2.391   6.611  20.080  0.00  0.00    +0.000 A 
ATOM      9  C   UNL     1       3.410   6.142  19.255  0.00  0.00    +0.000 A 
ATOM     10  C   UNL     1       3.744   6.833  18.089  0.00  0.00    +0.000 A 
ATOM     11  C   UNL     1       2.990   7.955  17.729  0.00  0.00    +0.000 A 
ATOM     12  C   UNL     1       1.967   8.444  18.556  0.00  0.00    +0.000 A 
BRANCH   7  14
ATOM     13  C   UNL     1       1.337   8.834  21.867  0.00  0.00    +0.000 C 
ATOM     14  O   UNL     1       0.794   8.322  20.650  0.00  0.00    +0.000 OA
ENDBRANCH   7  14
BRANCH  12  15
ATOM     15  O   UNL     1       1.376   9.559  18.024  0.00  0.00    +0.000 OA
ATOM     16  C   UNL     1       1.825  10.837  18.438  0.00  0.00    +0.000 C 
ENDBRANCH  12  15
ENDBRANCH   6  10
ENDBRANCH   5   6
ENDBRANCH   1   5
BRANCH   2  17
ATOM     17  C   UNL     1       3.090   1.994  17.856  0.00  0.00    +0.000 C 
BRANCH  17  18
ATOM     18  C   UNL     1       2.576   2.313  19.237  0.00  0.00    +0.000 A 
ATOM     19  C   UNL     1       1.223   2.685  19.356  0.00  0.00    +0.000 A 
ATOM     20  C   UNL     1       0.684   3.054  20.585  0.00  0.00    +0.000 A 
ATOM     21  C   UNL     1       1.492   3.073  21.714  0.00  0.00    +0.000 A 
ATOM     22  C   UNL     1       2.838   2.719  21.614  0.00  0.00    +0.000 A 
ATOM     23  C   UNL     1       3.401   2.323  20.386  0.00  0.00    +0.000 A 
BRANCH  23  24
ATOM     24  C   UNL     1       4.866   1.954  20.369  0.00  0.00    +0.000 C 
BRANCH  24  25
ATOM     25  O   UNL     1       5.270   1.431  21.624  0.00  0.00    +0.000 OA
ATOM     26  H   UNL     1       4.850   0.548  21.708  0.00  0.00    +0.000 HD
ENDBRANCH  24  25
ENDBRANCH  23  24
ENDBRANCH  17  18
ENDBRANCH   2  17
TORSDOF 9
ENDMDL
MODEL 4
REMARK VINA RESULT:      -6.9      2.087      2.798
REMARK  Name = 
REMARK  11 active torsions:
REMARK  status: ('A' for Active; 'I' for Inactive)
REMARK    1  A    between atoms: C_1  and  O_2
REMARK    2  A    between atoms: O_2  and  C_3
REMARK    3  A    between atoms: C_6  and  C_7
REMARK    4  A    between atoms: C_7  and  C_8
REMARK    5  A    between atoms: C_8  and  N_9
REMARK    6  A    between atoms: C_10  and  C_12
REMARK    7  A    between atoms: C_12  and  C_13
REMARK    8  A    between atoms: C_18  and  C_19
REMARK    9  A    between atoms: C_19  and  O_20
REMARK   10  A    between atoms: C_22  and  O_23
REMARK   11  A    between atoms: O_23  and  C_24
REMARK                            x       y       z     vdW  Elec       q    Type
REMARK                         _______ _______ _______ _____ _____    ______ ____
ROOT
ATOM      1  N   UNL     1       7.565   6.694  18.407  0.00  0.00    +0.000 N 
ATOM      2  C   UNL     1       7.264   6.103  17.197  0.00  0.00    +0.000 C 
ATOM      3  O   UNL     1       7.717   6.452  16.107  0.00  0.00    +0.000 OA
ATOM      4  H   UNL     1       7.384   6.140  19.232  0.00  0.00    +0.000 HD
ENDROOT
BRANCH   1   5
ATOM      5  C   UNL     1       8.555   7.758  18.570  0.00  0.00    +0.000 C 
BRANCH   5   6
ATOM      6  C   UNL     1       8.126   9.103  17.991  0.00  0.00    +0.000 C 
BRANCH   6  10
ATOM      7  C   UNL     1      10.489  12.338  19.582  0.00  0.00    +0.000 A 
ATOM      8  C   UNL     1      10.041  11.301  20.413  0.00  0.00    +0.000 A 
ATOM      9  C   UNL     1       9.243  10.277  19.908  0.00  0.00    +0.000 A 
ATOM     10  C   UNL     1       8.850  10.289  18.569  0.00  0.00    +0.000 A 
ATOM     11  C   UNL     1       9.205  11.381  17.770  0.00  0.00    +0.000 A 
ATOM     12  C   UNL     1      10.016  12.414  18.263  0.00  0.00    +0.000 A 
BRANCH   7  14
ATOM     13  C   UNL     1      10.774  14.436  20.632  0.00  0.00    +0.000 C 
ATOM     14  O   UNL     1      11.371  13.277  20.051  0.00  0.00    +0.000 OA
ENDBRANCH   7  14
BRANCH  12  15
ATOM     15  O   UNL     1      10.257  13.368  17.310  0.00  0.00    +0.000 OA
ATOM     16  C   UNL     1      11.510  13.374  16.649  0.00  0.00    +0.000 C 
ENDBRANCH  12  15
ENDBRANCH   6  10
ENDBRANCH   5   6
ENDBRANCH   1   5
BRANCH   2  17
ATOM     17  C   UNL     1       6.301   4.936  17.290  0.00  0.00    +0.000 C 
BRANCH  17  18
ATOM     18  C   UNL     1       4.904   5.411  17.599  0.00  0.00    +0.000 A 
ATOM     19  C   UNL     1       4.600   6.758  17.320  0.00  0.00    +0.000 A 
ATOM     20  C   UNL     1       3.353   7.293  17.631  0.00  0.00    +0.000 A 
ATOM     21  C   UNL     1       2.394   6.495  18.241  0.00  0.00    +0.000 A 
ATOM     22  C   UNL     1       2.681   5.162  18.536  0.00  0.00    +0.000 A 
ATOM     23  C   UNL     1       3.927   4.593  18.213  0.00  0.00    +0.000 A 
BRANCH  23  24
ATOM     24  C   UNL     1       4.151   3.141  18.566  0.00  0.00    +0.000 C 
BRANCH  24  25
ATOM     25  O   UNL     1       5.072   3.019  19.638  0.00  0.00    +0.000 OA
ATOM     26  H   UNL     1       4.817   2.213  20.137  0.00  0.00    +0.000 HD
ENDBRANCH  24  25
ENDBRANCH  23  24
ENDBRANCH  17  18
ENDBRANCH   2  17
TORSDOF 9
ENDMDL
MODEL 5
REMARK VINA RESULT:      -6.9      4.902      8.552
REMARK  Name = 
REMARK  11 active torsions:
REMARK  status: ('A' for Active; 'I' for Inactive)
REMARK    1  A    between atoms: C_1  and  O_2
REMARK    2  A    between atoms: O_2  and  C_3
REMARK    3  A    between atoms: C_6  and  C_7
REMARK    4  A    between atoms: C_7  and  C_8
REMARK    5  A    between atoms: C_8  and  N_9
REMARK    6  A    between atoms: C_10  and  C_12
REMARK    7  A    between atoms: C_12  and  C_13
REMARK    8  A    between atoms: C_18  and  C_19
REMARK    9  A    between atoms: C_19  and  O_20
REMARK   10  A    between atoms: C_22  and  O_23
REMARK   11  A    between atoms: O_23  and  C_24
REMARK                            x       y       z     vdW  Elec       q    Type
REMARK                         _______ _______ _______ _____ _____    ______ ____
ROOT
ATOM      1  N   UNL     1       2.396   6.984  18.117  0.00  0.00    +0.000 N 
ATOM      2  C   UNL     1       2.032   8.152  18.752  0.00  0.00    +0.000 C 
ATOM      3  O   UNL     1       1.770   8.255  19.951  0.00  0.00    +0.000 OA
ATOM      4  H   UNL     1       2.873   7.085  17.232  0.00  0.00    +0.000 HD
ENDROOT
BRANCH   1   5
ATOM      5  C   UNL     1       2.625   5.716  18.811  0.00  0.00    +0.000 C 
BRANCH   5   6
ATOM      6  C   UNL     1       4.058   5.522  19.297  0.00  0.00    +0.000 C 
BRANCH   6  10
ATOM      7  C   UNL     1       6.699   4.918  15.944  0.00  0.00    +0.000 A 
ATOM      8  C   UNL     1       5.760   3.940  16.303  0.00  0.00    +0.000 A 
ATOM      9  C   UNL     1       4.935   4.116  17.410  0.00  0.00    +0.000 A 
ATOM     10  C   UNL     1       5.056   5.260  18.201  0.00  0.00    +0.000 A 
ATOM     11  C   UNL     1       6.067   6.181  17.907  0.00  0.00    +0.000 A 
ATOM     12  C   UNL     1       6.899   6.020  16.789  0.00  0.00    +0.000 A 
BRANCH   7  14
ATOM     13  C   UNL     1       6.694   4.321  13.657  0.00  0.00    +0.000 C 
ATOM     14  O   UNL     1       7.424   4.798  14.787  0.00  0.00    +0.000 OA
ENDBRANCH   7  14
BRANCH  12  15
ATOM     15  O   UNL     1       7.802   7.044  16.678  0.00  0.00    +0.000 OA
ATOM     16  C   UNL     1       7.792   8.075  17.650  0.00  0.00    +0.000 C 
ENDBRANCH  12  15
ENDBRANCH   6  10
ENDBRANCH   5   6
ENDBRANCH   1   5
BRANCH   2  17
ATOM     17  C   UNL     1       1.976   9.368  17.848  0.00  0.00    +0.000 C 
BRANCH  17  18
ATOM     18  C   UNL     1       0.757  10.205  18.141  0.00  0.00    +0.000 A 
ATOM     19  C   UNL     1      -0.503   9.606  17.953  0.00  0.00    +0.000 A 
ATOM     20  C   UNL     1      -1.679  10.327  18.144  0.00  0.00    +0.000 A 
ATOM     21  C   UNL     1      -1.614  11.665  18.510  0.00  0.00    +0.000 A 
ATOM     22  C   UNL     1      -0.374  12.280  18.689  0.00  0.00    +0.000 A 
ATOM     23  C   UNL     1       0.827  11.566  18.523  0.00  0.00    +0.000 A 
BRANCH  23  24
ATOM     24  C   UNL     1       2.124  12.310  18.739  0.00  0.00    +0.000 C 
BRANCH  24  25
ATOM     25  O   UNL     1       2.640  12.795  17.511  0.00  0.00    +0.000 OA
ATOM     26  H   UNL     1       2.165  12.315  16.798  0.00  0.00    +0.000 HD
ENDBRANCH  24  25
ENDBRANCH  23  24
ENDBRANCH  17  18
ENDBRANCH   2  17
TORSDOF 9
ENDMDL
MODEL 6
REMARK VINA RESULT:      -6.9      1.819      2.506
REMARK  Name = 
REMARK  11 active torsions:
REMARK  status: ('A' for Active; 'I' for Inactive)
REMARK    1  A    between atoms: C_1  and  O_2
REMARK    2  A    between atoms: O_2  and  C_3
REMARK    3  A    between atoms: C_6  and  C_7
REMARK    4  A    between atoms: C_7  and  C_8
REMARK    5  A    between atoms: C_8  and  N_9
REMARK    6  A    between atoms: C_10  and  C_12
REMARK    7  A    between atoms: C_12  and  C_13
REMARK    8  A    between atoms: C_18  and  C_19
REMARK    9  A    between atoms: C_19  and  O_20
REMARK   10  A    between atoms: C_22  and  O_23
REMARK   11  A    between atoms: O_23  and  C_24
REMARK                            x       y       z     vdW  Elec       q    Type
REMARK                         _______ _______ _______ _____ _____    ______ ____
ROOT
ATOM      1  N   UNL     1       8.497   8.131  18.609  0.00  0.00    +0.000 N 
ATOM      2  C   UNL     1       7.614   7.366  17.875  0.00  0.00    +0.000 C 
ATOM      3  O   UNL     1       6.814   7.805  17.049  0.00  0.00    +0.000 OA
ATOM      4  H   UNL     1       9.288   7.643  19.006  0.00  0.00    +0.000 HD
ENDROOT
BRANCH   1   5
ATOM      5  C   UNL     1       8.676   9.571  18.424  0.00  0.00    +0.000 C 
BRANCH   5   6
ATOM      6  C   UNL     1       9.476  10.247  19.534  0.00  0.00    +0.000 C 
BRANCH   6  10
ATOM      7  C   UNL     1      10.634  14.273  18.519  0.00  0.00    +0.000 A 
ATOM      8  C   UNL     1      10.402  13.319  17.517  0.00  0.00    +0.000 A 
ATOM      9  C   UNL     1      10.068  12.008  17.845  0.00  0.00    +0.000 A 
ATOM     10  C   UNL     1       9.993  11.616  19.183  0.00  0.00    +0.000 A 
ATOM     11  C   UNL     1      10.333  12.538  20.177  0.00  0.00    +0.000 A 
ATOM     12  C   UNL     1      10.663  13.865  19.861  0.00  0.00    +0.000 A 
BRANCH   7  14
ATOM     13  C   UNL     1      11.097  15.842  16.813  0.00  0.00    +0.000 C 
ATOM     14  O   UNL     1      10.844  15.588  18.195  0.00  0.00    +0.000 OA
ENDBRANCH   7  14
BRANCH  12  15
ATOM     15  O   UNL     1      10.940  14.599  20.984  0.00  0.00    +0.000 OA
ATOM     16  C   UNL     1       9.882  15.278  21.638  0.00  0.00    +0.000 C 
ENDBRANCH  12  15
ENDBRANCH   6  10
ENDBRANCH   5   6
ENDBRANCH   1   5
BRANCH   2  17
ATOM     17  C   UNL     1       7.693   5.877  18.152  0.00  0.00    +0.000 C 
BRANCH  17  18
ATOM     18  C   UNL     1       6.894   5.096  17.139  0.00  0.00    +0.000 A 
ATOM     19  C   UNL     1       7.373   5.072  15.814  0.00  0.00    +0.000 A 
ATOM     20  C   UNL     1       6.664   4.425  14.806  0.00  0.00    +0.000 A 
ATOM     21  C   UNL     1       5.457   3.805  15.101  0.00  0.00    +0.000 A 
ATOM     22  C   UNL     1       4.961   3.829  16.405  0.00  0.00    +0.000 A 
ATOM     23  C   UNL     1       5.669   4.459  17.445  0.00  0.00    +0.000 A 
BRANCH  23  24
ATOM     24  C   UNL     1       5.059   4.435  18.827  0.00  0.00    +0.000 C 
BRANCH  24  25
ATOM     25  O   UNL     1       5.256   3.174  19.444  0.00  0.00    +0.000 OA
ATOM     26  H   UNL     1       4.380   2.733  19.468  0.00  0.00    +0.000 HD
ENDBRANCH  24  25
ENDBRANCH  23  24
ENDBRANCH  17  18
ENDBRANCH   2  17
TORSDOF 9
ENDMDL
MODEL 7
REMARK VINA RESULT:      -6.9      4.931      8.325
REMARK  Name = 
REMARK  11 active torsions:
REMARK  status: ('A' for Active; 'I' for Inactive)
REMARK    1  A    between atoms: C_1  and  O_2
REMARK    2  A    between atoms: O_2  and  C_3
REMARK    3  A    between atoms: C_6  and  C_7
REMARK    4  A    between atoms: C_7  and  C_8
REMARK    5  A    between atoms: C_8  and  N_9
REMARK    6  A    between atoms: C_10  and  C_12
REMARK    7  A    between atoms: C_12  and  C_13
REMARK    8  A    between atoms: C_18  and  C_19
REMARK    9  A    between atoms: C_19  and  O_20
REMARK   10  A    between atoms: C_22  and  O_23
REMARK   11  A    between atoms: O_23  and  C_24
REMARK                            x       y       z     vdW  Elec       q    Type
REMARK                         _______ _______ _______ _____ _____    ______ ____
ROOT
ATOM      1  N   UNL     1       3.054   3.993  20.218  0.00  0.00    +0.000 N 
ATOM      2  C   UNL     1       1.862   4.644  20.455  0.00  0.00    +0.000 C 
ATOM      3  O   UNL     1       0.744   4.178  20.235  0.00  0.00    +0.000 OA
ATOM      4  H   UNL     1       3.862   4.343  20.714  0.00  0.00    +0.000 HD
ENDROOT
BRANCH   1   5
ATOM      5  C   UNL     1       3.148   2.604  19.768  0.00  0.00    +0.000 C 
BRANCH   5   6
ATOM      6  C   UNL     1       3.793   2.436  18.395  0.00  0.00    +0.000 C 
BRANCH   6  10
ATOM      7  C   UNL     1       6.451   5.575  17.102  0.00  0.00    +0.000 A 
ATOM      8  C   UNL     1       6.297   5.281  18.465  0.00  0.00    +0.000 A 
ATOM      9  C   UNL     1       5.408   4.295  18.886  0.00  0.00    +0.000 A 
ATOM     10  C   UNL     1       4.630   3.606  17.953  0.00  0.00    +0.000 A 
ATOM     11  C   UNL     1       4.703   3.977  16.607  0.00  0.00    +0.000 A 
ATOM     12  C   UNL     1       5.601   4.963  16.168  0.00  0.00    +0.000 A 
BRANCH   7  14
ATOM     13  C   UNL     1       7.656   7.554  17.564  0.00  0.00    +0.000 C 
ATOM     14  O   UNL     1       7.410   6.458  16.683  0.00  0.00    +0.000 OA
ENDBRANCH   7  14
BRANCH  12  15
ATOM     15  O   UNL     1       5.522   5.152  14.814  0.00  0.00    +0.000 OA
ATOM     16  C   UNL     1       6.331   4.360  13.963  0.00  0.00    +0.000 C 
ENDBRANCH  12  15
ENDBRANCH   6  10
ENDBRANCH   5   6
ENDBRANCH   1   5
BRANCH   2  17
ATOM     17  C   UNL     1       2.012   6.036  21.038  0.00  0.00    +0.000 C 
BRANCH  17  18
ATOM     18  C   UNL     1       2.003   7.081  19.952  0.00  0.00    +0.000 A 
ATOM     19  C   UNL     1       2.695   6.786  18.761  0.00  0.00    +0.000 A 
ATOM     20  C   UNL     1       2.787   7.719  17.732  0.00  0.00    +0.000 A 
ATOM     21  C   UNL     1       2.202   8.969  17.883  0.00  0.00    +0.000 A 
ATOM     22  C   UNL     1       1.522   9.285  19.060  0.00  0.00    +0.000 A 
ATOM     23  C   UNL     1       1.399   8.351  20.105  0.00  0.00    +0.000 A 
BRANCH  23  24
ATOM     24  C   UNL     1       0.644   8.776  21.344  0.00  0.00    +0.000 C 
BRANCH  24  25
ATOM     25  O   UNL     1       1.170   9.985  21.865  0.00  0.00    +0.000 OA
ATOM     26  H   UNL     1       2.084  10.067  21.518  0.00  0.00    +0.000 HD
ENDBRANCH  24  25
ENDBRANCH  23  24
ENDBRANCH  17  18
ENDBRANCH   2  17
TORSDOF 9
ENDMDL
MODEL 8
REMARK VINA RESULT:      -6.9      6.465      7.718
REMARK  Name = 
REMARK  11 active torsions:
REMARK  status: ('A' for Active; 'I' for Inactive)
REMARK    1  A    between atoms: C_1  and  O_2
REMARK    2  A    between atoms: O_2  and  C_3
REMARK    3  A    between atoms: C_6  and  C_7
REMARK    4  A    between atoms: C_7  and  C_8
REMARK    5  A    between atoms: C_8  and  N_9
REMARK    6  A    between atoms: C_10  and  C_12
REMARK    7  A    between atoms: C_12  and  C_13
REMARK    8  A    between atoms: C_18  and  C_19
REMARK    9  A    between atoms: C_19  and  O_20
REMARK   10  A    between atoms: C_22  and  O_23
REMARK   11  A    between atoms: O_23  and  C_24
REMARK                            x       y       z     vdW  Elec       q    Type
REMARK                         _______ _______ _______ _____ _____    ______ ____
ROOT
ATOM      1  N   UNL     1       3.679   5.049  17.882  0.00  0.00    +0.000 N 
ATOM      2  C   UNL     1       4.243   3.981  17.218  0.00  0.00    +0.000 C 
ATOM      3  O   UNL     1       5.174   4.057  16.416  0.00  0.00    +0.000 OA
ATOM      4  H   UNL     1       3.154   4.830  18.717  0.00  0.00    +0.000 HD
ENDROOT
BRANCH   1   5
ATOM      5  C   UNL     1       4.187   6.419  17.802  0.00  0.00    +0.000 C 
BRANCH   5   6
ATOM      6  C   UNL     1       3.159   7.437  17.315  0.00  0.00    +0.000 C 
BRANCH   6  10
ATOM      7  C   UNL     1       1.014   9.297  20.559  0.00  0.00    +0.000 A 
ATOM      8  C   UNL     1       1.558   8.012  20.702  0.00  0.00    +0.000 A 
ATOM      9  C   UNL     1       2.216   7.394  19.641  0.00  0.00    +0.000 A 
ATOM     10  C   UNL     1       2.312   8.036  18.405  0.00  0.00    +0.000 A 
ATOM     11  C   UNL     1       1.673   9.267  18.231  0.00  0.00    +0.000 A 
ATOM     12  C   UNL     1       1.015   9.906  19.294  0.00  0.00    +0.000 A 
BRANCH   7  14
ATOM     13  C   UNL     1      -0.483   9.202  22.385  0.00  0.00    +0.000 C 
ATOM     14  O   UNL     1       0.474   9.950  21.635  0.00  0.00    +0.000 OA
ENDBRANCH   7  14
BRANCH  12  15
ATOM     15  O   UNL     1       0.479  11.106  18.910  0.00  0.00    +0.000 OA
ATOM     16  C   UNL     1       1.276  12.274  19.006  0.00  0.00    +0.000 C 
ENDBRANCH  12  15
ENDBRANCH   6  10
ENDBRANCH   5   6
ENDBRANCH   1   5
BRANCH   2  17
ATOM     17  C   UNL     1       3.626   2.637  17.553  0.00  0.00    +0.000 C 
BRANCH  17  18
ATOM     18  C   UNL     1       2.821   2.713  18.825  0.00  0.00    +0.000 A 
ATOM     19  C   UNL     1       1.451   3.017  18.709  0.00  0.00    +0.000 A 
ATOM     20  C   UNL     1       0.649   3.166  19.837  0.00  0.00    +0.000 A 
ATOM     21  C   UNL     1       1.207   3.030  21.101  0.00  0.00    +0.000 A 
ATOM     22  C   UNL     1       2.565   2.742  21.237  0.00  0.00    +0.000 A 
ATOM     23  C   UNL     1       3.391   2.566  20.111  0.00  0.00    +0.000 A 
BRANCH  23  24
ATOM     24  C   UNL     1       4.850   2.253  20.351  0.00  0.00    +0.000 C 
BRANCH  24  25
ATOM     25  O   UNL     1       5.171   0.952  19.886  0.00  0.00    +0.000 OA
ATOM     26  H   UNL     1       4.775   0.868  18.992  0.00  0.00    +0.000 HD
ENDBRANCH  24  25
ENDBRANCH  23  24
ENDBRANCH  17  18
ENDBRANCH   2  17
TORSDOF 9
ENDMDL
MODEL 9
REMARK VINA RESULT:      -6.8      2.836      9.463
REMARK  Name = 
REMARK  11 active torsions:
REMARK  status: ('A' for Active; 'I' for Inactive)
REMARK    1  A    between atoms: C_1  and  O_2
REMARK    2  A    between atoms: O_2  and  C_3
REMARK    3  A    between atoms: C_6  and  C_7
REMARK    4  A    between atoms: C_7  and  C_8
REMARK    5  A    between atoms: C_8  and  N_9
REMARK    6  A    between atoms: C_10  and  C_12
REMARK    7  A    between atoms: C_12  and  C_13
REMARK    8  A    between atoms: C_18  and  C_19
REMARK    9  A    between atoms: C_19  and  O_20
REMARK   10  A    between atoms: C_22  and  O_23
REMARK   11  A    between atoms: O_23  and  C_24
REMARK                            x       y       z     vdW  Elec       q    Type
REMARK                         _______ _______ _______ _____ _____    ______ ____
ROOT
ATOM      1  N   UNL     1       7.561   8.596  17.500  0.00  0.00    +0.000 N 
ATOM      2  C   UNL     1       8.423   9.252  18.354  0.00  0.00    +0.000 C 
ATOM      3  O   UNL     1       9.107   8.711  19.222  0.00  0.00    +0.000 OA
ATOM      4  H   UNL     1       7.304   9.090  16.657  0.00  0.00    +0.000 HD
ENDROOT
BRANCH   1   5
ATOM      5  C   UNL     1       7.423   7.140  17.442  0.00  0.00    +0.000 C 
BRANCH   5   6
ATOM      6  C   UNL     1       6.570   6.642  16.279  0.00  0.00    +0.000 C 
BRANCH   6  10
ATOM      7  C   UNL     1       3.321   4.217  17.744  0.00  0.00    +0.000 A 
ATOM      8  C   UNL     1       4.354   3.649  16.985  0.00  0.00    +0.000 A 
ATOM      9  C   UNL     1       5.383   4.439  16.476  0.00  0.00    +0.000 A 
ATOM     10  C   UNL     1       5.379   5.818  16.689  0.00  0.00    +0.000 A 
ATOM     11  C   UNL     1       4.291   6.397  17.350  0.00  0.00    +0.000 A 
ATOM     12  C   UNL     1       3.253   5.612  17.875  0.00  0.00    +0.000 A 
BRANCH   7  14
ATOM     13  C   UNL     1       2.810   2.751  19.526  0.00  0.00    +0.000 C 
ATOM     14  O   UNL     1       2.378   3.424  18.343  0.00  0.00    +0.000 OA
ENDBRANCH   7  14
BRANCH  12  15
ATOM     15  O   UNL     1       2.304   6.379  18.498  0.00  0.00    +0.000 OA
ATOM     16  C   UNL     1       2.308   6.458  19.913  0.00  0.00    +0.000 C 
ENDBRANCH  12  15
ENDBRANCH   6  10
ENDBRANCH   5   6
ENDBRANCH   1   5
BRANCH   2  17
ATOM     17  C   UNL     1       8.489  10.753  18.148  0.00  0.00    +0.000 C 
BRANCH  17  18
ATOM     18  C   UNL     1       9.794  11.311  18.658  0.00  0.00    +0.000 A 
ATOM     19  C   UNL     1      10.854  11.426  17.738  0.00  0.00    +0.000 A 
ATOM     20  C   UNL     1      12.109  11.875  18.140  0.00  0.00    +0.000 A 
ATOM     21  C   UNL     1      12.330  12.201  19.471  0.00  0.00    +0.000 A 
ATOM     22  C   UNL     1      11.295  12.082  20.400  0.00  0.00    +0.000 A 
ATOM     23  C   UNL     1      10.013  11.650  20.013  0.00  0.00    +0.000 A 
BRANCH  23  24
ATOM     24  C   UNL     1       8.951  11.552  21.084  0.00  0.00    +0.000 C 
BRANCH  24  25
ATOM     25  O   UNL     1       9.055  10.326  21.788  0.00  0.00    +0.000 OA
ATOM     26  H   UNL     1       8.185  10.173  22.215  0.00  0.00    +0.000 HD
ENDBRANCH  24  25
ENDBRANCH  23  24
ENDBRANCH  17  18
ENDBRANCH   2  17
TORSDOF 9
ENDMDL
