MODEL 1
REMARK VINA RESULT:      -6.5      0.000      0.000
REMARK  Name = 
REMARK  7 active torsions:
REMARK  status: ('A' for Active; 'I' for Inactive)
REMARK    1  A    between atoms: C_1  and  C_2
REMARK    2  A    between atoms: C_2  and  C_3
REMARK    3  A    between atoms: C_3  and  C_4
REMARK    4  A    between atoms: C_3  and  C_6
REMARK    5  A    between atoms: C_4  and  C_5
REMARK    6  A    between atoms: C_6  and  N_7
REMARK    7  A    between atoms: N_12  and  C_13
REMARK                            x       y       z     vdW  Elec       q    Type
REMARK                         _______ _______ _______ _____ _____    ______ ____
ROOT
ATOM      1  N   UNL     1       7.003   4.365  13.546  0.00  0.00    +0.000 N 
ATOM      2  C   UNL     1       6.398   3.827  14.730  0.00  0.00    +0.000 C 
ATOM      3  C   UNL     1       6.601   4.964  15.727  0.00  0.00    +0.000 C 
ATOM      4  C   UNL     1       6.984   4.517  17.136  0.00  0.00    +0.000 C 
ATOM      5  C   UNL     1       5.801   3.915  17.887  0.00  0.00    +0.000 C 
ATOM      6  N   UNL     1       4.613   4.776  17.912  0.00  0.00    +0.000 NA
ATOM      7  C   UNL     1       4.756   5.899  18.839  0.00  0.00    +0.000 C 
ATOM      8  C   UNL     1       4.226   5.224  16.571  0.00  0.00    +0.000 C 
ATOM      9  C   UNL     1       5.364   5.878  15.784  0.00  0.00    +0.000 C 
ATOM     10  O   UNL     1       7.728   5.693  15.186  0.00  0.00    +0.000 OA
ATOM     11  C   UNL     1       7.860   5.385  13.863  0.00  0.00    +0.000 C 
ATOM     12  O   UNL     1       8.609   5.976  13.101  0.00  0.00    +0.000 OA
ENDROOT
BRANCH   1  13
ATOM     13  C   UNL     1       6.638   3.980  12.194  0.00  0.00    +0.000 C 
BRANCH  13  14
ATOM     14  C   UNL     1       5.393   3.057  12.150  0.00  0.00    +0.000 C 
BRANCH  14  16
ATOM     15  C   UNL     1       3.376   2.974  10.536  0.00  0.00    +0.000 C 
ATOM     16  C   UNL     1       4.157   3.781  11.564  0.00  0.00    +0.000 C 
ENDBRANCH  14  16
BRANCH  14  17
ATOM     17  C   UNL     1       5.711   1.731  11.424  0.00  0.00    +0.000 C 
ATOM     18  C   UNL     1       7.169   1.543  11.025  0.00  0.00    +0.000 C 
ENDBRANCH  14  17
ENDBRANCH  13  14
ENDBRANCH   1  13
TORSDOF 4
ENDMDL
MODEL 2
REMARK VINA RESULT:      -6.5      1.995      3.051
REMARK  Name = 
REMARK  7 active torsions:
REMARK  status: ('A' for Active; 'I' for Inactive)
REMARK    1  A    between atoms: C_1  and  C_2
REMARK    2  A    between atoms: C_2  and  C_3
REMARK    3  A    between atoms: C_3  and  C_4
REMARK    4  A    between atoms: C_3  and  C_6
REMARK    5  A    between atoms: C_4  and  C_5
REMARK    6  A    between atoms: C_6  and  N_7
REMARK    7  A    between atoms: N_12  and  C_13
REMARK                            x       y       z     vdW  Elec       q    Type
REMARK                         _______ _______ _______ _____ _____    ______ ____
ROOT
ATOM      1  N   UNL     1       5.912   4.450  15.981  0.00  0.00    +0.000 N 
ATOM      2  C   UNL     1       4.613   4.073  16.457  0.00  0.00    +0.000 C 
ATOM      3  C   UNL     1       4.772   4.248  17.965  0.00  0.00    +0.000 C 
ATOM      4  C   UNL     1       4.105   3.163  18.807  0.00  0.00    +0.000 C 
ATOM      5  C   UNL     1       2.587   3.310  18.833  0.00  0.00    +0.000 C 
ATOM      6  N   UNL     1       2.127   4.645  19.233  0.00  0.00    +0.000 NA
ATOM      7  C   UNL     1       2.273   4.880  20.670  0.00  0.00    +0.000 C 
ATOM      8  C   UNL     1       2.756   5.707  18.442  0.00  0.00    +0.000 C 
ATOM      9  C   UNL     1       4.285   5.637  18.416  0.00  0.00    +0.000 C 
ATOM     10  O   UNL     1       6.200   4.136  18.171  0.00  0.00    +0.000 OA
ATOM     11  C   UNL     1       6.838   4.369  16.987  0.00  0.00    +0.000 C 
ATOM     12  O   UNL     1       8.046   4.517  16.885  0.00  0.00    +0.000 OA
ENDROOT
BRANCH   1  13
ATOM     13  C   UNL     1       6.173   4.989  14.657  0.00  0.00    +0.000 C 
BRANCH  13  14
ATOM     14  C   UNL     1       6.243   3.889  13.566  0.00  0.00    +0.000 C 
BRANCH  14  16
ATOM     15  C   UNL     1       4.932   2.940  11.551  0.00  0.00    +0.000 C 
ATOM     16  C   UNL     1       4.868   3.657  12.893  0.00  0.00    +0.000 C 
ENDBRANCH  14  16
BRANCH  14  17
ATOM     17  C   UNL     1       7.367   4.185  12.549  0.00  0.00    +0.000 C 
ATOM     18  C   UNL     1       8.072   5.522  12.734  0.00  0.00    +0.000 C 
ENDBRANCH  14  17
ENDBRANCH  13  14
ENDBRANCH   1  13
TORSDOF 4
ENDMDL
MODEL 3
REMARK VINA RESULT:      -6.5      2.321      3.384
REMARK  Name = 
REMARK  7 active torsions:
REMARK  status: ('A' for Active; 'I' for Inactive)
REMARK    1  A    between atoms: C_1  and  C_2
REMARK    2  A    between atoms: C_2  and  C_3
REMARK    3  A    between atoms: C_3  and  C_4
REMARK    4  A    between atoms: C_3  and  C_6
REMARK    5  A    between atoms: C_4  and  C_5
REMARK    6  A    between atoms: C_6  and  N_7
REMARK    7  A    between atoms: N_12  and  C_13
REMARK                            x       y       z     vdW  Elec       q    Type
REMARK                         _______ _______ _______ _____ _____    ______ ____
ROOT
ATOM      1  N   UNL     1       5.025   4.639  15.758  0.00  0.00    +0.000 N 
ATOM      2  C   UNL     1       4.832   3.580  16.707  0.00  0.00    +0.000 C 
ATOM      3  C   UNL     1       4.278   4.339  17.910  0.00  0.00    +0.000 C 
ATOM      4  C   UNL     1       4.811   3.869  19.261  0.00  0.00    +0.000 C 
ATOM      5  C   UNL     1       4.209   2.532  19.681  0.00  0.00    +0.000 C 
ATOM      6  N   UNL     1       2.742   2.507  19.656  0.00  0.00    +0.000 NA
ATOM      7  C   UNL     1       2.151   3.238  20.777  0.00  0.00    +0.000 C 
ATOM      8  C   UNL     1       2.203   2.959  18.369  0.00  0.00    +0.000 C 
ATOM      9  C   UNL     1       2.739   4.320  17.916  0.00  0.00    +0.000 C 
ATOM     10  O   UNL     1       4.753   5.691  17.707  0.00  0.00    +0.000 OA
ATOM     11  C   UNL     1       5.084   5.851  16.392  0.00  0.00    +0.000 C 
ATOM     12  O   UNL     1       5.346   6.931  15.885  0.00  0.00    +0.000 OA
ENDROOT
BRANCH   1  13
ATOM     13  C   UNL     1       5.005   4.458  14.317  0.00  0.00    +0.000 C 
BRANCH  13  14
ATOM     14  C   UNL     1       6.348   3.915  13.763  0.00  0.00    +0.000 C 
BRANCH  14  16
ATOM     15  C   UNL     1       4.763   3.285  11.822  0.00  0.00    +0.000 C 
ATOM     16  C   UNL     1       6.196   3.350  12.330  0.00  0.00    +0.000 C 
ENDBRANCH  14  16
BRANCH  14  17
ATOM     17  C   UNL     1       7.464   4.977  13.874  0.00  0.00    +0.000 C 
ATOM     18  C   UNL     1       8.007   5.489  12.546  0.00  0.00    +0.000 C 
ENDBRANCH  14  17
ENDBRANCH  13  14
ENDBRANCH   1  13
TORSDOF 4
ENDMDL
MODEL 4
REMARK VINA RESULT:      -6.4      3.972      5.980
REMARK  Name = 
REMARK  7 active torsions:
REMARK  status: ('A' for Active; 'I' for Inactive)
REMARK    1  A    between atoms: C_1  and  C_2
REMARK    2  A    between atoms: C_2  and  C_3
REMARK    3  A    between atoms: C_3  and  C_4
REMARK    4  A    between atoms: C_3  and  C_6
REMARK    5  A    between atoms: C_4  and  C_5
REMARK    6  A    between atoms: C_6  and  N_7
REMARK    7  A    between atoms: N_12  and  C_13
REMARK                            x       y       z     vdW  Elec       q    Type
REMARK                         _______ _______ _______ _____ _____    ______ ____
ROOT
ATOM      1  N   UNL     1       4.278   6.606  17.866  0.00  0.00    +0.000 N 
ATOM      2  C   UNL     1       4.181   5.390  18.621  0.00  0.00    +0.000 C 
ATOM      3  C   UNL     1       2.677   5.132  18.599  0.00  0.00    +0.000 C 
ATOM      4  C   UNL     1       2.099   4.615  19.916  0.00  0.00    +0.000 C 
ATOM      5  C   UNL     1       2.464   3.156  20.168  0.00  0.00    +0.000 C 
ATOM      6  N   UNL     1       2.127   2.259  19.057  0.00  0.00    +0.000 NA
ATOM      7  C   UNL     1       0.691   1.988  18.973  0.00  0.00    +0.000 C 
ATOM      8  C   UNL     1       2.666   2.734  17.779  0.00  0.00    +0.000 C 
ATOM      9  C   UNL     1       2.294   4.182  17.450  0.00  0.00    +0.000 C 
ATOM     10  O   UNL     1       2.109   6.442  18.365  0.00  0.00    +0.000 OA
ATOM     11  C   UNL     1       3.071   7.251  17.831  0.00  0.00    +0.000 C 
ATOM     12  O   UNL     1       2.844   8.357  17.366  0.00  0.00    +0.000 OA
ENDROOT
BRANCH   1  13
ATOM     13  C   UNL     1       5.455   7.012  17.118  0.00  0.00    +0.000 C 
BRANCH  13  14
ATOM     14  C   UNL     1       6.666   6.071  17.351  0.00  0.00    +0.000 C 
BRANCH  14  16
ATOM     15  C   UNL     1       6.146   4.238  15.605  0.00  0.00    +0.000 C 
ATOM     16  C   UNL     1       7.091   5.345  16.051  0.00  0.00    +0.000 C 
ENDBRANCH  14  16
BRANCH  14  17
ATOM     17  C   UNL     1       7.833   6.825  18.025  0.00  0.00    +0.000 C 
ATOM     18  C   UNL     1       7.836   8.334  17.819  0.00  0.00    +0.000 C 
ENDBRANCH  14  17
ENDBRANCH  13  14
ENDBRANCH   1  13
TORSDOF 4
ENDMDL
MODEL 5
REMARK VINA RESULT:      -6.3      3.505      6.605
REMARK  Name = 
REMARK  7 active torsions:
REMARK  status: ('A' for Active; 'I' for Inactive)
REMARK    1  A    between atoms: C_1  and  C_2
REMARK    2  A    between atoms: C_2  and  C_3
REMARK    3  A    between atoms: C_3  and  C_4
REMARK    4  A    between atoms: C_3  and  C_6
REMARK    5  A    between atoms: C_4  and  C_5
REMARK    6  A    between atoms: C_6  and  N_7
REMARK    7  A    between atoms: N_12  and  C_13
REMARK                            x       y       z     vdW  Elec       q    Type
REMARK                         _______ _______ _______ _____ _____    ______ ____
ROOT
ATOM      1  N   UNL     1       4.013   4.533  19.730  0.00  0.00    +0.000 N 
ATOM      2  C   UNL     1       4.774   5.462  18.947  0.00  0.00    +0.000 C 
ATOM      3  C   UNL     1       5.613   4.525  18.082  0.00  0.00    +0.000 C 
ATOM      4  C   UNL     1       7.059   4.971  17.874  0.00  0.00    +0.000 C 
ATOM      5  C   UNL     1       7.163   6.145  16.907  0.00  0.00    +0.000 C 
ATOM      6  N   UNL     1       6.492   5.917  15.622  0.00  0.00    +0.000 NA
ATOM      7  C   UNL     1       7.242   5.007  14.754  0.00  0.00    +0.000 C 
ATOM      8  C   UNL     1       5.102   5.483  15.792  0.00  0.00    +0.000 C 
ATOM      9  C   UNL     1       4.939   4.277  16.720  0.00  0.00    +0.000 C 
ATOM     10  O   UNL     1       5.647   3.296  18.846  0.00  0.00    +0.000 OA
ATOM     11  C   UNL     1       4.613   3.303  19.739  0.00  0.00    +0.000 C 
ATOM     12  O   UNL     1       4.280   2.329  20.396  0.00  0.00    +0.000 OA
ENDROOT
BRANCH   1  13
ATOM     13  C   UNL     1       2.711   4.823  20.305  0.00  0.00    +0.000 C 
BRANCH  13  14
ATOM     14  C   UNL     1       1.543   4.242  19.466  0.00  0.00    +0.000 C 
BRANCH  14  16
ATOM     15  C   UNL     1       2.001   2.379  17.733  0.00  0.00    +0.000 C 
ATOM     16  C   UNL     1       1.991   3.872  18.031  0.00  0.00    +0.000 C 
ENDBRANCH  14  16
BRANCH  14  17
ATOM     17  C   UNL     1       0.861   3.068  20.202  0.00  0.00    +0.000 C 
ATOM     18  C   UNL     1       1.339   2.831  21.628  0.00  0.00    +0.000 C 
ENDBRANCH  14  17
ENDBRANCH  13  14
ENDBRANCH   1  13
TORSDOF 4
ENDMDL
MODEL 6
REMARK VINA RESULT:      -6.3      2.753      4.625
REMARK  Name = 
REMARK  7 active torsions:
REMARK  status: ('A' for Active; 'I' for Inactive)
REMARK    1  A    between atoms: C_1  and  C_2
REMARK    2  A    between atoms: C_2  and  C_3
REMARK    3  A    between atoms: C_3  and  C_4
REMARK    4  A    between atoms: C_3  and  C_6
REMARK    5  A    between atoms: C_4  and  C_5
REMARK    6  A    between atoms: C_6  and  N_7
REMARK    7  A    between atoms: N_12  and  C_13
REMARK                            x       y       z     vdW  Elec       q    Type
REMARK                         _______ _______ _______ _____ _____    ______ ____
ROOT
ATOM      1  N   UNL     1       6.190   4.476  17.853  0.00  0.00    +0.000 N 
ATOM      2  C   UNL     1       5.035   3.627  17.816  0.00  0.00    +0.000 C 
ATOM      3  C   UNL     1       4.369   3.951  19.151  0.00  0.00    +0.000 C 
ATOM      4  C   UNL     1       3.780   2.744  19.879  0.00  0.00    +0.000 C 
ATOM      5  C   UNL     1       2.493   2.252  19.225  0.00  0.00    +0.000 C 
ATOM      6  N   UNL     1       1.483   3.300  19.039  0.00  0.00    +0.000 NA
ATOM      7  C   UNL     1       0.822   3.668  20.292  0.00  0.00    +0.000 C 
ATOM      8  C   UNL     1       2.025   4.473  18.345  0.00  0.00    +0.000 C 
ATOM      9  C   UNL     1       3.295   5.040  18.985  0.00  0.00    +0.000 C 
ATOM     10  O   UNL     1       5.458   4.453  19.961  0.00  0.00    +0.000 OA
ATOM     11  C   UNL     1       6.474   4.850  19.139  0.00  0.00    +0.000 C 
ATOM     12  O   UNL     1       7.449   5.477  19.522  0.00  0.00    +0.000 OA
ENDROOT
BRANCH   1  13
ATOM     13  C   UNL     1       6.868   4.986  16.674  0.00  0.00    +0.000 C 
BRANCH  13  14
ATOM     14  C   UNL     1       5.966   4.976  15.413  0.00  0.00    +0.000 C 
BRANCH  14  16
ATOM     15  C   UNL     1       4.883   7.058  16.497  0.00  0.00    +0.000 C 
ATOM     16  C   UNL     1       5.244   6.330  15.209  0.00  0.00    +0.000 C 
ENDBRANCH  14  16
BRANCH  14  17
ATOM     17  C   UNL     1       6.758   4.525  14.166  0.00  0.00    +0.000 C 
ATOM     18  C   UNL     1       5.967   3.704  13.157  0.00  0.00    +0.000 C 
ENDBRANCH  14  17
ENDBRANCH  13  14
ENDBRANCH   1  13
TORSDOF 4
ENDMDL
MODEL 7
REMARK VINA RESULT:      -6.2      3.655      5.965
REMARK  Name = 
REMARK  7 active torsions:
REMARK  status: ('A' for Active; 'I' for Inactive)
REMARK    1  A    between atoms: C_1  and  C_2
REMARK    2  A    between atoms: C_2  and  C_3
REMARK    3  A    between atoms: C_3  and  C_4
REMARK    4  A    between atoms: C_3  and  C_6
REMARK    5  A    between atoms: C_4  and  C_5
REMARK    6  A    between atoms: C_6  and  N_7
REMARK    7  A    between atoms: N_12  and  C_13
REMARK                            x       y       z     vdW  Elec       q    Type
REMARK                         _______ _______ _______ _____ _____    ______ ____
ROOT
ATOM      1  N   UNL     1       4.901   5.228  16.638  0.00  0.00    +0.000 N 
ATOM      2  C   UNL     1       3.694   5.353  17.403  0.00  0.00    +0.000 C 
ATOM      3  C   UNL     1       3.539   3.944  17.970  0.00  0.00    +0.000 C 
ATOM      4  C   UNL     1       2.105   3.418  17.987  0.00  0.00    +0.000 C 
ATOM      5  C   UNL     1       1.267   4.074  19.079  0.00  0.00    +0.000 C 
ATOM      6  N   UNL     1       1.871   4.003  20.415  0.00  0.00    +0.000 NA
ATOM      7  C   UNL     1       1.770   2.667  21.003  0.00  0.00    +0.000 C 
ATOM      8  C   UNL     1       3.251   4.499  20.425  0.00  0.00    +0.000 C 
ATOM      9  C   UNL     1       4.153   3.842  19.377  0.00  0.00    +0.000 C 
ATOM     10  O   UNL     1       4.289   3.121  17.045  0.00  0.00    +0.000 OA
ATOM     11  C   UNL     1       5.158   3.914  16.352  0.00  0.00    +0.000 C 
ATOM     12  O   UNL     1       6.043   3.481  15.631  0.00  0.00    +0.000 OA
ENDROOT
BRANCH   1  13
ATOM     13  C   UNL     1       5.799   6.331  16.343  0.00  0.00    +0.000 C 
BRANCH  13  14
ATOM     14  C   UNL     1       6.540   6.854  17.601  0.00  0.00    +0.000 C 
BRANCH  14  16
ATOM     15  C   UNL     1       7.536   5.518  19.577  0.00  0.00    +0.000 C 
ATOM     16  C   UNL     1       7.615   5.855  18.094  0.00  0.00    +0.000 C 
ENDBRANCH  14  16
BRANCH  14  17
ATOM     17  C   UNL     1       7.103   8.272  17.365  0.00  0.00    +0.000 C 
ATOM     18  C   UNL     1       8.350   8.617  18.168  0.00  0.00    +0.000 C 
ENDBRANCH  14  17
ENDBRANCH  13  14
ENDBRANCH   1  13
TORSDOF 4
ENDMDL
MODEL 8
REMARK VINA RESULT:      -6.1      4.661      6.933
REMARK  Name = 
REMARK  7 active torsions:
REMARK  status: ('A' for Active; 'I' for Inactive)
REMARK    1  A    between atoms: C_1  and  C_2
REMARK    2  A    between atoms: C_2  and  C_3
REMARK    3  A    between atoms: C_3  and  C_4
REMARK    4  A    between atoms: C_3  and  C_6
REMARK    5  A    between atoms: C_4  and  C_5
REMARK    6  A    between atoms: C_6  and  N_7
REMARK    7  A    between atoms: N_12  and  C_13
REMARK                            x       y       z     vdW  Elec       q    Type
REMARK                         _______ _______ _______ _____ _____    ______ ____
ROOT
ATOM      1  N   UNL     1       1.860   4.807  18.835  0.00  0.00    +0.000 N 
ATOM      2  C   UNL     1       2.723   5.005  17.706  0.00  0.00    +0.000 C 
ATOM      3  C   UNL     1       3.824   5.875  18.307  0.00  0.00    +0.000 C 
ATOM      4  C   UNL     1       4.319   6.997  17.395  0.00  0.00    +0.000 C 
ATOM      5  C   UNL     1       5.193   6.471  16.262  0.00  0.00    +0.000 C 
ATOM      6  N   UNL     1       6.306   5.628  16.712  0.00  0.00    +0.000 NA
ATOM      7  C   UNL     1       7.387   6.407  17.317  0.00  0.00    +0.000 C 
ATOM      8  C   UNL     1       5.859   4.545  17.593  0.00  0.00    +0.000 C 
ATOM      9  C   UNL     1       5.012   5.019  18.777  0.00  0.00    +0.000 C 
ATOM     10  O   UNL     1       3.183   6.497  19.445  0.00  0.00    +0.000 OA
ATOM     11  C   UNL     1       2.082   5.766  19.787  0.00  0.00    +0.000 C 
ATOM     12  O   UNL     1       1.442   5.942  20.811  0.00  0.00    +0.000 OA
ENDROOT
BRANCH   1  13
ATOM     13  C   UNL     1       0.986   3.659  19.003  0.00  0.00    +0.000 C 
BRANCH  13  14
ATOM     14  C   UNL     1       1.759   2.364  19.363  0.00  0.00    +0.000 C 
BRANCH  14  16
ATOM     15  C   UNL     1       3.944   1.328  18.450  0.00  0.00    +0.000 C 
ATOM     16  C   UNL     1       2.526   1.792  18.146  0.00  0.00    +0.000 C 
ENDBRANCH  14  16
BRANCH  14  17
ATOM     17  C   UNL     1       2.666   2.583  20.595  0.00  0.00    +0.000 C 
ATOM     18  C   UNL     1       1.937   2.671  21.929  0.00  0.00    +0.000 C 
ENDBRANCH  14  17
ENDBRANCH  13  14
ENDBRANCH   1  13
TORSDOF 4
ENDMDL
MODEL 9
REMARK VINA RESULT:      -6.0      3.225      5.149
REMARK  Name = 
REMARK  7 active torsions:
REMARK  status: ('A' for Active; 'I' for Inactive)
REMARK    1  A    between atoms: C_1  and  C_2
REMARK    2  A    between atoms: C_2  and  C_3
REMARK    3  A    between atoms: C_3  and  C_4
REMARK    4  A    between atoms: C_3  and  C_6
REMARK    5  A    between atoms: C_4  and  C_5
REMARK    6  A    between atoms: C_6  and  N_7
REMARK    7  A    between atoms: N_12  and  C_13
REMARK                            x       y       z     vdW  Elec       q    Type
REMARK                         _______ _______ _______ _____ _____    ______ ____
ROOT
ATOM      1  N   UNL     1       6.456   4.407  18.022  0.00  0.00    +0.000 N 
ATOM      2  C   UNL     1       5.221   3.680  17.952  0.00  0.00    +0.000 C 
ATOM      3  C   UNL     1       4.522   4.134  19.230  0.00  0.00    +0.000 C 
ATOM      4  C   UNL     1       3.770   3.030  19.972  0.00  0.00    +0.000 C 
ATOM      5  C   UNL     1       2.476   2.643  19.264  0.00  0.00    +0.000 C 
ATOM      6  N   UNL     1       1.594   3.778  18.975  0.00  0.00    +0.000 NA
ATOM      7  C   UNL     1       0.908   4.272  20.169  0.00  0.00    +0.000 C 
ATOM      8  C   UNL     1       2.292   4.855  18.266  0.00  0.00    +0.000 C 
ATOM      9  C   UNL     1       3.578   5.318  18.955  0.00  0.00    +0.000 C 
ATOM     10  O   UNL     1       5.611   4.559  20.081  0.00  0.00    +0.000 OA
ATOM     11  C   UNL     1       6.706   4.811  19.305  0.00  0.00    +0.000 C 
ATOM     12  O   UNL     1       7.720   5.352  19.718  0.00  0.00    +0.000 OA
ENDROOT
BRANCH   1  13
ATOM     13  C   UNL     1       7.247   4.787  16.864  0.00  0.00    +0.000 C 
BRANCH  13  14
ATOM     14  C   UNL     1       6.668   6.019  16.122  0.00  0.00    +0.000 C 
BRANCH  14  16
ATOM     15  C   UNL     1       5.620   4.429  14.374  0.00  0.00    +0.000 C 
ATOM     16  C   UNL     1       5.433   5.650  15.265  0.00  0.00    +0.000 C 
ENDBRANCH  14  16
BRANCH  14  17
ATOM     17  C   UNL     1       6.392   7.180  17.103  0.00  0.00    +0.000 C 
ATOM     18  C   UNL     1       7.613   8.000  17.498  0.00  0.00    +0.000 C 
ENDBRANCH  14  17
ENDBRANCH  13  14
ENDBRANCH   1  13
TORSDOF 4
ENDMDL
