MODEL 1
REMARK VINA RESULT:      -7.6      0.000      0.000
REMARK  Name = 
REMARK  9 active torsions:
REMARK  status: ('A' for Active; 'I' for Inactive)
REMARK    1  A    between atoms: C_1  and  O_2
REMARK    2  A    between atoms: O_2  and  C_3
REMARK    3  A    between atoms: C_7  and  O_8
REMARK    4  A    between atoms: O_8  and  C_9
REMARK    5  A    between atoms: C_10  and  N_11
REMARK    6  A    between atoms: C_13  and  C_14
REMARK    7  A    between atoms: C_19  and  S_20
REMARK    8  A    between atoms: S_20  and  C_23
REMARK    9  A    between atoms: C_26  and  C_27
REMARK                            x       y       z     vdW  Elec       q    Type
REMARK                         _______ _______ _______ _____ _____    ______ ____
ROOT
ATOM      1  C   UNL     1      -2.864  11.579  18.689  0.00  0.00    +0.000 A 
ATOM      2  C   UNL     1      -3.773  11.515  17.598  0.00  0.00    +0.000 A 
ATOM      3  C   UNL     1      -3.576  10.689  16.487  0.00  0.00    +0.000 A 
ATOM      4  C   UNL     1      -2.453   9.887  16.426  0.00  0.00    +0.000 A 
ATOM      5  C   UNL     1      -1.518   9.952  17.454  0.00  0.00    +0.000 A 
ATOM      6  C   UNL     1      -1.703  10.800  18.576  0.00  0.00    +0.000 A 
ENDROOT
BRANCH   1   9
ATOM      7  N   UNL     1      -3.706  13.810  21.485  0.00  0.00    +0.000 N 
ATOM      8  C   UNL     1      -2.704  13.251  20.683  0.00  0.00    +0.000 A 
ATOM      9  C   UNL     1      -3.336  12.386  19.818  0.00  0.00    +0.000 A 
ATOM     10  N   UNL     1      -4.671  12.395  20.122  0.00  0.00    +0.000 NA
ATOM     11  N   UNL     1      -4.880  13.242  21.109  0.00  0.00    +0.000 NA
BRANCH   7  17
ATOM     12  C   UNL     1      -3.837  16.185  22.218  0.00  0.00    +0.000 A 
ATOM     13  C   UNL     1      -3.856  17.157  23.233  0.00  0.00    +0.000 A 
ATOM     14  C   UNL     1      -3.627  16.808  24.551  0.00  0.00    +0.000 A 
ATOM     15  C   UNL     1      -3.405  15.475  24.871  0.00  0.00    +0.000 A 
ATOM     16  C   UNL     1      -3.412  14.469  23.883  0.00  0.00    +0.000 A 
ATOM     17  C   UNL     1      -3.657  14.805  22.530  0.00  0.00    +0.000 A 
BRANCH  12  19
ATOM     18  C   UNL     1      -2.897  17.197  20.301  0.00  0.00    +0.000 C 
ATOM     19  O   UNL     1      -4.033  16.597  20.923  0.00  0.00    +0.000 OA
ENDBRANCH  12  19
BRANCH  16  20
ATOM     20  O   UNL     1      -3.255  13.156  24.247  0.00  0.00    +0.000 OA
ATOM     21  C   UNL     1      -4.413  12.507  24.776  0.00  0.00    +0.000 C 
ENDBRANCH  16  20
ENDBRANCH   7  17
ENDBRANCH   1   9
BRANCH   6  22
ATOM     22  S   UNL     1      -0.341  10.842  19.718  0.00  0.00    +0.000 S 
ATOM     23  O   UNL     1       0.349  12.103  19.518  0.00  0.00    +0.000 OA
ATOM     24  O   UNL     1      -0.889  10.545  21.028  0.00  0.00    +0.000 OA
BRANCH  22  25
ATOM     25  C   UNL     1       0.890   9.625  19.345  0.00  0.00    +0.000 A 
ATOM     26  C   UNL     1       1.150   8.561  20.209  0.00  0.00    +0.000 A 
ATOM     27  C   UNL     1       2.015   7.543  19.790  0.00  0.00    +0.000 A 
ATOM     28  C   UNL     1       2.604   7.579  18.513  0.00  0.00    +0.000 A 
ATOM     29  C   UNL     1       2.355   8.678  17.676  0.00  0.00    +0.000 A 
ATOM     30  C   UNL     1       1.501   9.698  18.088  0.00  0.00    +0.000 A 
BRANCH  28  31
ATOM     31  C   UNL     1       3.470   6.448  18.009  0.00  0.00    +0.000 C 
ATOM     32  F   UNL     1       2.767   5.333  17.670  0.00  0.00    +0.000 F 
ATOM     33  F   UNL     1       4.174   6.794  16.894  0.00  0.00    +0.000 F 
ATOM     34  F   UNL     1       4.394   6.048  18.924  0.00  0.00    +0.000 F 
ENDBRANCH  28  31
ENDBRANCH  22  25
ENDBRANCH   6  22
TORSDOF 7
ENDMDL
MODEL 2
REMARK VINA RESULT:      -7.6      5.413     10.218
REMARK  Name = 
REMARK  9 active torsions:
REMARK  status: ('A' for Active; 'I' for Inactive)
REMARK    1  A    between atoms: C_1  and  O_2
REMARK    2  A    between atoms: O_2  and  C_3
REMARK    3  A    between atoms: C_7  and  O_8
REMARK    4  A    between atoms: O_8  and  C_9
REMARK    5  A    between atoms: C_10  and  N_11
REMARK    6  A    between atoms: C_13  and  C_14
REMARK    7  A    between atoms: C_19  and  S_20
REMARK    8  A    between atoms: S_20  and  C_23
REMARK    9  A    between atoms: C_26  and  C_27
REMARK                            x       y       z     vdW  Elec       q    Type
REMARK                         _______ _______ _______ _____ _____    ______ ____
ROOT
ATOM      1  C   UNL     1       0.892   9.243  20.580  0.00  0.00    +0.000 A 
ATOM      2  C   UNL     1       1.141   8.972  21.953  0.00  0.00    +0.000 A 
ATOM      3  C   UNL     1       0.351   9.482  22.988  0.00  0.00    +0.000 A 
ATOM      4  C   UNL     1      -0.730  10.288  22.685  0.00  0.00    +0.000 A 
ATOM      5  C   UNL     1      -0.983  10.611  21.355  0.00  0.00    +0.000 A 
ATOM      6  C   UNL     1      -0.174  10.111  20.301  0.00  0.00    +0.000 A 
ENDROOT
BRANCH   1   9
ATOM      7  N   UNL     1       2.889   7.016  18.445  0.00  0.00    +0.000 N 
ATOM      8  C   UNL     1       2.227   7.199  19.664  0.00  0.00    +0.000 A 
ATOM      9  C   UNL     1       1.740   8.487  19.654  0.00  0.00    +0.000 A 
ATOM     10  N   UNL     1       2.135   9.071  18.481  0.00  0.00    +0.000 NA
ATOM     11  N   UNL     1       2.814   8.193  17.772  0.00  0.00    +0.000 NA
BRANCH   7  17
ATOM     12  C   UNL     1       2.844   4.646  17.689  0.00  0.00    +0.000 A 
ATOM     13  C   UNL     1       3.459   3.541  17.076  0.00  0.00    +0.000 A 
ATOM     14  C   UNL     1       4.790   3.589  16.703  0.00  0.00    +0.000 A 
ATOM     15  C   UNL     1       5.511   4.755  16.916  0.00  0.00    +0.000 A 
ATOM     16  C   UNL     1       4.918   5.894  17.497  0.00  0.00    +0.000 A 
ATOM     17  C   UNL     1       3.553   5.868  17.874  0.00  0.00    +0.000 A 
BRANCH  12  19
ATOM     18  C   UNL     1       1.288   3.588  19.119  0.00  0.00    +0.000 C 
ATOM     19  O   UNL     1       1.530   4.526  18.070  0.00  0.00    +0.000 OA
ENDBRANCH  12  19
BRANCH  16  20
ATOM     20  O   UNL     1       5.645   7.050  17.630  0.00  0.00    +0.000 OA
ATOM     21  C   UNL     1       7.046   6.944  17.370  0.00  0.00    +0.000 C 
ENDBRANCH  16  20
ENDBRANCH   7  17
ENDBRANCH   1   9
BRANCH   6  22
ATOM     22  S   UNL     1      -0.574  10.739  18.687  0.00  0.00    +0.000 S 
ATOM     23  O   UNL     1       0.009  12.064  18.584  0.00  0.00    +0.000 OA
ATOM     24  O   UNL     1      -0.170   9.720  17.735  0.00  0.00    +0.000 OA
BRANCH  22  25
ATOM     25  C   UNL     1      -2.309  11.026  18.485  0.00  0.00    +0.000 A 
ATOM     26  C   UNL     1      -3.105  10.181  17.711  0.00  0.00    +0.000 A 
ATOM     27  C   UNL     1      -4.492  10.362  17.718  0.00  0.00    +0.000 A 
ATOM     28  C   UNL     1      -5.084  11.368  18.503  0.00  0.00    +0.000 A 
ATOM     29  C   UNL     1      -4.260  12.229  19.244  0.00  0.00    +0.000 A 
ATOM     30  C   UNL     1      -2.878  12.060  19.237  0.00  0.00    +0.000 A 
BRANCH  28  31
ATOM     31  C   UNL     1      -6.585  11.523  18.592  0.00  0.00    +0.000 C 
ATOM     32  F   UNL     1      -7.151  12.003  17.451  0.00  0.00    +0.000 F 
ATOM     33  F   UNL     1      -7.212  10.339  18.847  0.00  0.00    +0.000 F 
ATOM     34  F   UNL     1      -6.965  12.368  19.588  0.00  0.00    +0.000 F 
ENDBRANCH  28  31
ENDBRANCH  22  25
ENDBRANCH   6  22
TORSDOF 7
ENDMDL
MODEL 3
REMARK VINA RESULT:      -7.6      5.428     10.104
REMARK  Name = 
REMARK  9 active torsions:
REMARK  status: ('A' for Active; 'I' for Inactive)
REMARK    1  A    between atoms: C_1  and  O_2
REMARK    2  A    between atoms: O_2  and  C_3
REMARK    3  A    between atoms: C_7  and  O_8
REMARK    4  A    between atoms: O_8  and  C_9
REMARK    5  A    between atoms: C_10  and  N_11
REMARK    6  A    between atoms: C_13  and  C_14
REMARK    7  A    between atoms: C_19  and  S_20
REMARK    8  A    between atoms: S_20  and  C_23
REMARK    9  A    between atoms: C_26  and  C_27
REMARK                            x       y       z     vdW  Elec       q    Type
REMARK                         _______ _______ _______ _____ _____    ______ ____
ROOT
ATOM      1  C   UNL     1       0.921   9.229  20.547  0.00  0.00    +0.000 A 
ATOM      2  C   UNL     1       1.178   8.962  21.919  0.00  0.00    +0.000 A 
ATOM      3  C   UNL     1       0.397   9.478  22.958  0.00  0.00    +0.000 A 
ATOM      4  C   UNL     1      -0.683  10.287  22.659  0.00  0.00    +0.000 A 
ATOM      5  C   UNL     1      -0.943  10.606  21.330  0.00  0.00    +0.000 A 
ATOM      6  C   UNL     1      -0.144  10.100  20.273  0.00  0.00    +0.000 A 
ENDROOT
BRANCH   1   9
ATOM      7  N   UNL     1       2.878   6.987  18.391  0.00  0.00    +0.000 N 
ATOM      8  C   UNL     1       2.195   7.161  19.601  0.00  0.00    +0.000 A 
ATOM      9  C   UNL     1       1.760   8.467  19.618  0.00  0.00    +0.000 A 
ATOM     10  N   UNL     1       2.206   9.069  18.472  0.00  0.00    +0.000 NA
ATOM     11  N   UNL     1       2.866   8.185  17.752  0.00  0.00    +0.000 NA
BRANCH   7  17
ATOM     12  C   UNL     1       4.861   5.899  17.353  0.00  0.00    +0.000 A 
ATOM     13  C   UNL     1       5.508   4.764  16.837  0.00  0.00    +0.000 A 
ATOM     14  C   UNL     1       4.827   3.570  16.683  0.00  0.00    +0.000 A 
ATOM     15  C   UNL     1       3.497   3.494  17.071  0.00  0.00    +0.000 A 
ATOM     16  C   UNL     1       2.825   4.604  17.624  0.00  0.00    +0.000 A 
ATOM     17  C   UNL     1       3.509   5.830  17.801  0.00  0.00    +0.000 A 
BRANCH  12  19
ATOM     18  C   UNL     1       6.998   6.906  17.437  0.00  0.00    +0.000 C 
ATOM     19  O   UNL     1       5.579   7.067  17.448  0.00  0.00    +0.000 OA
ENDBRANCH  12  19
BRANCH  16  20
ATOM     20  O   UNL     1       1.531   4.471  18.057  0.00  0.00    +0.000 OA
ATOM     21  C   UNL     1       1.313   3.527  19.107  0.00  0.00    +0.000 C 
ENDBRANCH  16  20
ENDBRANCH   7  17
ENDBRANCH   1   9
BRANCH   6  22
ATOM     22  S   UNL     1      -0.552  10.724  18.659  0.00  0.00    +0.000 S 
ATOM     23  O   UNL     1       0.018  12.054  18.555  0.00  0.00    +0.000 OA
ATOM     24  O   UNL     1      -0.140   9.709  17.706  0.00  0.00    +0.000 OA
BRANCH  22  25
ATOM     25  C   UNL     1      -2.290  10.995  18.460  0.00  0.00    +0.000 A 
ATOM     26  C   UNL     1      -3.080  10.139  17.691  0.00  0.00    +0.000 A 
ATOM     27  C   UNL     1      -4.469  10.308  17.700  0.00  0.00    +0.000 A 
ATOM     28  C   UNL     1      -5.068  11.311  18.482  0.00  0.00    +0.000 A 
ATOM     29  C   UNL     1      -4.250  12.183  19.219  0.00  0.00    +0.000 A 
ATOM     30  C   UNL     1      -2.867  12.026  19.210  0.00  0.00    +0.000 A 
BRANCH  28  31
ATOM     31  C   UNL     1      -6.570  11.453  18.574  0.00  0.00    +0.000 C 
ATOM     32  F   UNL     1      -7.216  10.275  18.795  0.00  0.00    +0.000 F 
ATOM     33  F   UNL     1      -6.950  12.279  19.591  0.00  0.00    +0.000 F 
ATOM     34  F   UNL     1      -7.116  11.978  17.444  0.00  0.00    +0.000 F 
ENDBRANCH  28  31
ENDBRANCH  22  25
ENDBRANCH   6  22
TORSDOF 7
ENDMDL
MODEL 4
REMARK VINA RESULT:      -7.5      5.471     10.266
REMARK  Name = 
REMARK  9 active torsions:
REMARK  status: ('A' for Active; 'I' for Inactive)
REMARK    1  A    between atoms: C_1  and  O_2
REMARK    2  A    between atoms: O_2  and  C_3
REMARK    3  A    between atoms: C_7  and  O_8
REMARK    4  A    between atoms: O_8  and  C_9
REMARK    5  A    between atoms: C_10  and  N_11
REMARK    6  A    between atoms: C_13  and  C_14
REMARK    7  A    between atoms: C_19  and  S_20
REMARK    8  A    between atoms: S_20  and  C_23
REMARK    9  A    between atoms: C_26  and  C_27
REMARK                            x       y       z     vdW  Elec       q    Type
REMARK                         _______ _______ _______ _____ _____    ______ ____
ROOT
ATOM      1  C   UNL     1       0.923   9.252  20.569  0.00  0.00    +0.000 A 
ATOM      2  C   UNL     1       1.230   8.995  21.933  0.00  0.00    +0.000 A 
ATOM      3  C   UNL     1       0.466   9.492  22.994  0.00  0.00    +0.000 A 
ATOM      4  C   UNL     1      -0.645  10.269  22.728  0.00  0.00    +0.000 A 
ATOM      5  C   UNL     1      -0.955  10.577  21.407  0.00  0.00    +0.000 A 
ATOM      6  C   UNL     1      -0.174  10.091  20.326  0.00  0.00    +0.000 A 
ENDROOT
BRANCH   1   9
ATOM      7  N   UNL     1       2.890   7.062  18.369  0.00  0.00    +0.000 N 
ATOM      8  C   UNL     1       2.265   7.233  19.609  0.00  0.00    +0.000 A 
ATOM      9  C   UNL     1       1.754   8.511  19.616  0.00  0.00    +0.000 A 
ATOM     10  N   UNL     1       2.101   9.103  18.430  0.00  0.00    +0.000 NA
ATOM     11  N   UNL     1       2.772   8.237  17.699  0.00  0.00    +0.000 NA
BRANCH   7  17
ATOM     12  C   UNL     1       2.875   4.682  17.643  0.00  0.00    +0.000 A 
ATOM     13  C   UNL     1       3.488   3.587  17.010  0.00  0.00    +0.000 A 
ATOM     14  C   UNL     1       4.796   3.669  16.567  0.00  0.00    +0.000 A 
ATOM     15  C   UNL     1       5.493   4.858  16.727  0.00  0.00    +0.000 A 
ATOM     16  C   UNL     1       4.898   5.987  17.327  0.00  0.00    +0.000 A 
ATOM     17  C   UNL     1       3.557   5.927  17.776  0.00  0.00    +0.000 A 
BRANCH  12  19
ATOM     18  C   UNL     1       1.430   3.607  19.173  0.00  0.00    +0.000 C 
ATOM     19  O   UNL     1       1.586   4.530  18.095  0.00  0.00    +0.000 OA
ENDBRANCH  12  19
BRANCH  16  20
ATOM     20  O   UNL     1       5.597   7.164  17.409  0.00  0.00    +0.000 OA
ATOM     21  C   UNL     1       7.021   7.048  17.440  0.00  0.00    +0.000 C 
ENDBRANCH  16  20
ENDBRANCH   7  17
ENDBRANCH   1   9
BRANCH   6  22
ATOM     22  S   UNL     1      -0.649  10.700  18.725  0.00  0.00    +0.000 S 
ATOM     23  O   UNL     1       0.026  11.969  18.529  0.00  0.00    +0.000 OA
ATOM     24  O   UNL     1      -0.403   9.623  17.783  0.00  0.00    +0.000 OA
BRANCH  22  25
ATOM     25  C   UNL     1      -2.367  11.120  18.645  0.00  0.00    +0.000 A 
ATOM     26  C   UNL     1      -2.915  12.115  19.456  0.00  0.00    +0.000 A 
ATOM     27  C   UNL     1      -4.238  12.516  19.237  0.00  0.00    +0.000 A 
ATOM     28  C   UNL     1      -5.004  11.940  18.208  0.00  0.00    +0.000 A 
ATOM     29  C   UNL     1      -4.443  10.915  17.430  0.00  0.00    +0.000 A 
ATOM     30  C   UNL     1      -3.130  10.506  17.645  0.00  0.00    +0.000 A 
BRANCH  28  31
ATOM     31  C   UNL     1      -6.404  12.420  17.900  0.00  0.00    +0.000 C 
ATOM     32  F   UNL     1      -7.336  11.428  17.915  0.00  0.00    +0.000 F 
ATOM     33  F   UNL     1      -6.840  13.350  18.796  0.00  0.00    +0.000 F 
ATOM     34  F   UNL     1      -6.498  13.008  16.677  0.00  0.00    +0.000 F 
ENDBRANCH  28  31
ENDBRANCH  22  25
ENDBRANCH   6  22
TORSDOF 7
ENDMDL
MODEL 5
REMARK VINA RESULT:      -7.4      2.365      3.879
REMARK  Name = 
REMARK  9 active torsions:
REMARK  status: ('A' for Active; 'I' for Inactive)
REMARK    1  A    between atoms: C_1  and  O_2
REMARK    2  A    between atoms: O_2  and  C_3
REMARK    3  A    between atoms: C_7  and  O_8
REMARK    4  A    between atoms: O_8  and  C_9
REMARK    5  A    between atoms: C_10  and  N_11
REMARK    6  A    between atoms: C_13  and  C_14
REMARK    7  A    between atoms: C_19  and  S_20
REMARK    8  A    between atoms: S_20  and  C_23
REMARK    9  A    between atoms: C_26  and  C_27
REMARK                            x       y       z     vdW  Elec       q    Type
REMARK                         _______ _______ _______ _____ _____    ______ ____
ROOT
ATOM      1  C   UNL     1      -0.505  13.322  20.163  0.00  0.00    +0.000 A 
ATOM      2  C   UNL     1       0.185  14.564  20.190  0.00  0.00    +0.000 A 
ATOM      3  C   UNL     1       1.520  14.706  19.796  0.00  0.00    +0.000 A 
ATOM      4  C   UNL     1       2.220  13.600  19.354  0.00  0.00    +0.000 A 
ATOM      5  C   UNL     1       1.593  12.357  19.352  0.00  0.00    +0.000 A 
ATOM      6  C   UNL     1       0.244  12.203  19.767  0.00  0.00    +0.000 A 
ENDROOT
BRANCH   1   9
ATOM      7  N   UNL     1      -4.056  13.217  21.104  0.00  0.00    +0.000 N 
ATOM      8  C   UNL     1      -2.879  12.499  20.859  0.00  0.00    +0.000 A 
ATOM      9  C   UNL     1      -1.936  13.421  20.465  0.00  0.00    +0.000 A 
ATOM     10  N   UNL     1      -2.541  14.649  20.434  0.00  0.00    +0.000 NA
ATOM     11  N   UNL     1      -3.796  14.517  20.814  0.00  0.00    +0.000 NA
BRANCH   7  17
ATOM     12  C   UNL     1      -5.711  12.982  22.947  0.00  0.00    +0.000 A 
ATOM     13  C   UNL     1      -6.994  12.641  23.409  0.00  0.00    +0.000 A 
ATOM     14  C   UNL     1      -7.917  12.053  22.564  0.00  0.00    +0.000 A 
ATOM     15  C   UNL     1      -7.573  11.826  21.239  0.00  0.00    +0.000 A 
ATOM     16  C   UNL     1      -6.308  12.186  20.732  0.00  0.00    +0.000 A 
ATOM     17  C   UNL     1      -5.354  12.800  21.579  0.00  0.00    +0.000 A 
BRANCH  12  19
ATOM     18  C   UNL     1      -4.083  12.584  24.613  0.00  0.00    +0.000 C 
ATOM     19  O   UNL     1      -4.824  13.530  23.842  0.00  0.00    +0.000 OA
ENDBRANCH  12  19
BRANCH  16  20
ATOM     20  O   UNL     1      -6.029  12.006  19.401  0.00  0.00    +0.000 OA
ATOM     21  C   UNL     1      -6.754  10.966  18.743  0.00  0.00    +0.000 C 
ENDBRANCH  16  20
ENDBRANCH   7  17
ENDBRANCH   1   9
BRANCH   6  22
ATOM     22  S   UNL     1      -0.337  10.525  19.819  0.00  0.00    +0.000 S 
ATOM     23  O   UNL     1      -0.624  10.211  21.206  0.00  0.00    +0.000 OA
ATOM     24  O   UNL     1      -1.408  10.427  18.843  0.00  0.00    +0.000 OA
BRANCH  22  25
ATOM     25  C   UNL     1       0.920   9.361  19.375  0.00  0.00    +0.000 A 
ATOM     26  C   UNL     1       1.380   8.401  20.278  0.00  0.00    +0.000 A 
ATOM     27  C   UNL     1       2.255   7.407  19.825  0.00  0.00    +0.000 A 
ATOM     28  C   UNL     1       2.658   7.362  18.478  0.00  0.00    +0.000 A 
ATOM     29  C   UNL     1       2.211   8.360  17.598  0.00  0.00    +0.000 A 
ATOM     30  C   UNL     1       1.346   9.355  18.042  0.00  0.00    +0.000 A 
BRANCH  28  31
ATOM     31  C   UNL     1       3.531   6.247  17.950  0.00  0.00    +0.000 C 
ATOM     32  F   UNL     1       4.427   5.779  18.862  0.00  0.00    +0.000 F 
ATOM     33  F   UNL     1       2.804   5.164  17.556  0.00  0.00    +0.000 F 
ATOM     34  F   UNL     1       4.259   6.623  16.864  0.00  0.00    +0.000 F 
ENDBRANCH  28  31
ENDBRANCH  22  25
ENDBRANCH   6  22
TORSDOF 7
ENDMDL
MODEL 6
REMARK VINA RESULT:      -7.4      2.208      3.072
REMARK  Name = 
REMARK  9 active torsions:
REMARK  status: ('A' for Active; 'I' for Inactive)
REMARK    1  A    between atoms: C_1  and  O_2
REMARK    2  A    between atoms: O_2  and  C_3
REMARK    3  A    between atoms: C_7  and  O_8
REMARK    4  A    between atoms: O_8  and  C_9
REMARK    5  A    between atoms: C_10  and  N_11
REMARK    6  A    between atoms: C_13  and  C_14
REMARK    7  A    between atoms: C_19  and  S_20
REMARK    8  A    between atoms: S_20  and  C_23
REMARK    9  A    between atoms: C_26  and  C_27
REMARK                            x       y       z     vdW  Elec       q    Type
REMARK                         _______ _______ _______ _____ _____    ______ ____
ROOT
ATOM      1  C   UNL     1      -1.606  11.360  19.339  0.00  0.00    +0.000 A 
ATOM      2  C   UNL     1      -2.899  11.481  18.762  0.00  0.00    +0.000 A 
ATOM      3  C   UNL     1      -3.266  10.851  17.568  0.00  0.00    +0.000 A 
ATOM      4  C   UNL     1      -2.344  10.065  16.903  0.00  0.00    +0.000 A 
ATOM      5  C   UNL     1      -1.054   9.954  17.414  0.00  0.00    +0.000 A 
ATOM      6  C   UNL     1      -0.671  10.605  18.615  0.00  0.00    +0.000 A 
ENDROOT
BRANCH   1   9
ATOM      7  N   UNL     1      -1.514  13.190  22.525  0.00  0.00    +0.000 N 
ATOM      8  C   UNL     1      -1.692  13.246  21.138  0.00  0.00    +0.000 A 
ATOM      9  C   UNL     1      -1.480  11.970  20.666  0.00  0.00    +0.000 A 
ATOM     10  N   UNL     1      -1.143  11.182  21.734  0.00  0.00    +0.000 NA
ATOM     11  N   UNL     1      -1.166  11.913  22.830  0.00  0.00    +0.000 NA
BRANCH   7  17
ATOM     12  C   UNL     1      -2.809  14.230  24.378  0.00  0.00    +0.000 A 
ATOM     13  C   UNL     1      -2.924  15.162  25.423  0.00  0.00    +0.000 A 
ATOM     14  C   UNL     1      -1.944  16.115  25.631  0.00  0.00    +0.000 A 
ATOM     15  C   UNL     1      -0.825  16.127  24.810  0.00  0.00    +0.000 A 
ATOM     16  C   UNL     1      -0.661  15.187  23.772  0.00  0.00    +0.000 A 
ATOM     17  C   UNL     1      -1.647  14.195  23.552  0.00  0.00    +0.000 A 
BRANCH  12  19
ATOM     18  C   UNL     1      -5.023  13.875  23.628  0.00  0.00    +0.000 C 
ATOM     19  O   UNL     1      -3.832  13.330  24.197  0.00  0.00    +0.000 OA
ENDBRANCH  12  19
BRANCH  16  20
ATOM     20  O   UNL     1       0.489  15.189  23.025  0.00  0.00    +0.000 OA
ATOM     21  C   UNL     1       0.693  16.329  22.189  0.00  0.00    +0.000 C 
ENDBRANCH  16  20
ENDBRANCH   7  17
ENDBRANCH   1   9
BRANCH   6  22
ATOM     22  S   UNL     1       1.050  10.452  19.035  0.00  0.00    +0.000 S 
ATOM     23  O   UNL     1       1.805  10.562  17.801  0.00  0.00    +0.000 OA
ATOM     24  O   UNL     1       1.303  11.407  20.099  0.00  0.00    +0.000 OA
BRANCH  22  25
ATOM     25  C   UNL     1       1.456   8.837  19.635  0.00  0.00    +0.000 A 
ATOM     26  C   UNL     1       0.980   8.371  20.860  0.00  0.00    +0.000 A 
ATOM     27  C   UNL     1       1.198   7.033  21.209  0.00  0.00    +0.000 A 
ATOM     28  C   UNL     1       1.874   6.162  20.335  0.00  0.00    +0.000 A 
ATOM     29  C   UNL     1       2.376   6.664  19.124  0.00  0.00    +0.000 A 
ATOM     30  C   UNL     1       2.168   7.995  18.773  0.00  0.00    +0.000 A 
BRANCH  28  31
ATOM     31  C   UNL     1       2.043   4.695  20.654  0.00  0.00    +0.000 C 
ATOM     32  F   UNL     1       2.897   4.049  19.813  0.00  0.00    +0.000 F 
ATOM     33  F   UNL     1       2.536   4.492  21.908  0.00  0.00    +0.000 F 
ATOM     34  F   UNL     1       0.869   4.009  20.599  0.00  0.00    +0.000 F 
ENDBRANCH  28  31
ENDBRANCH  22  25
ENDBRANCH   6  22
TORSDOF 7
ENDMDL
MODEL 7
REMARK VINA RESULT:      -7.4      1.701      2.003
REMARK  Name = 
REMARK  9 active torsions:
REMARK  status: ('A' for Active; 'I' for Inactive)
REMARK    1  A    between atoms: C_1  and  O_2
REMARK    2  A    between atoms: O_2  and  C_3
REMARK    3  A    between atoms: C_7  and  O_8
REMARK    4  A    between atoms: O_8  and  C_9
REMARK    5  A    between atoms: C_10  and  N_11
REMARK    6  A    between atoms: C_13  and  C_14
REMARK    7  A    between atoms: C_19  and  S_20
REMARK    8  A    between atoms: S_20  and  C_23
REMARK    9  A    between atoms: C_26  and  C_27
REMARK                            x       y       z     vdW  Elec       q    Type
REMARK                         _______ _______ _______ _____ _____    ______ ____
ROOT
ATOM      1  C   UNL     1      -1.814  11.810  18.920  0.00  0.00    +0.000 A 
ATOM      2  C   UNL     1      -2.942  11.775  18.056  0.00  0.00    +0.000 A 
ATOM      3  C   UNL     1      -3.139  10.777  17.096  0.00  0.00    +0.000 A 
ATOM      4  C   UNL     1      -2.207   9.765  16.965  0.00  0.00    +0.000 A 
ATOM      5  C   UNL     1      -1.067   9.787  17.764  0.00  0.00    +0.000 A 
ATOM      6  C   UNL     1      -0.853  10.806  18.728  0.00  0.00    +0.000 A 
ENDROOT
BRANCH   1   9
ATOM      7  N   UNL     1      -1.966  14.112  21.780  0.00  0.00    +0.000 N 
ATOM      8  C   UNL     1      -2.188  12.818  21.295  0.00  0.00    +0.000 A 
ATOM      9  C   UNL     1      -1.879  12.847  19.954  0.00  0.00    +0.000 A 
ATOM     10  N   UNL     1      -1.524  14.131  19.636  0.00  0.00    +0.000 NA
ATOM     11  N   UNL     1      -1.578  14.871  20.724  0.00  0.00    +0.000 NA
BRANCH   7  17
ATOM     12  C   UNL     1      -0.916  15.167  23.775  0.00  0.00    +0.000 A 
ATOM     13  C   UNL     1      -1.016  15.774  25.038  0.00  0.00    +0.000 A 
ATOM     14  C   UNL     1      -2.231  15.842  25.695  0.00  0.00    +0.000 A 
ATOM     15  C   UNL     1      -3.364  15.327  25.081  0.00  0.00    +0.000 A 
ATOM     16  C   UNL     1      -3.307  14.741  23.800  0.00  0.00    +0.000 A 
ATOM     17  C   UNL     1      -2.074  14.674  23.106  0.00  0.00    +0.000 A 
BRANCH  12  19
ATOM     18  C   UNL     1       0.913  16.356  22.866  0.00  0.00    +0.000 C 
ATOM     19  O   UNL     1       0.324  15.096  23.186  0.00  0.00    +0.000 OA
ENDBRANCH  12  19
BRANCH  16  20
ATOM     20  O   UNL     1      -4.459  14.303  23.198  0.00  0.00    +0.000 OA
ATOM     21  C   UNL     1      -5.130  13.218  23.840  0.00  0.00    +0.000 C 
ENDBRANCH  16  20
ENDBRANCH   7  17
ENDBRANCH   1   9
BRANCH   6  22
ATOM     22  S   UNL     1       0.718  10.736  19.556  0.00  0.00    +0.000 S 
ATOM     23  O   UNL     1       1.548  11.785  18.994  0.00  0.00    +0.000 OA
ATOM     24  O   UNL     1       0.437  10.753  20.980  0.00  0.00    +0.000 OA
BRANCH  22  25
ATOM     25  C   UNL     1       1.610   9.252  19.187  0.00  0.00    +0.000 A 
ATOM     26  C   UNL     1       1.640   8.177  20.076  0.00  0.00    +0.000 A 
ATOM     27  C   UNL     1       2.223   6.973  19.665  0.00  0.00    +0.000 A 
ATOM     28  C   UNL     1       2.759   6.837  18.372  0.00  0.00    +0.000 A 
ATOM     29  C   UNL     1       2.750   7.944  17.509  0.00  0.00    +0.000 A 
ATOM     30  C   UNL     1       2.178   9.147  17.913  0.00  0.00    +0.000 A 
BRANCH  28  31
ATOM     31  C   UNL     1       3.313   5.519  17.879  0.00  0.00    +0.000 C 
ATOM     32  F   UNL     1       2.353   4.627  17.514  0.00  0.00    +0.000 F 
ATOM     33  F   UNL     1       4.112   5.672  16.785  0.00  0.00    +0.000 F 
ATOM     34  F   UNL     1       4.077   4.891  18.813  0.00  0.00    +0.000 F 
ENDBRANCH  28  31
ENDBRANCH  22  25
ENDBRANCH   6  22
TORSDOF 7
ENDMDL
MODEL 8
REMARK VINA RESULT:      -7.3      4.150      5.959
REMARK  Name = 
REMARK  9 active torsions:
REMARK  status: ('A' for Active; 'I' for Inactive)
REMARK    1  A    between atoms: C_1  and  O_2
REMARK    2  A    between atoms: O_2  and  C_3
REMARK    3  A    between atoms: C_7  and  O_8
REMARK    4  A    between atoms: O_8  and  C_9
REMARK    5  A    between atoms: C_10  and  N_11
REMARK    6  A    between atoms: C_13  and  C_14
REMARK    7  A    between atoms: C_19  and  S_20
REMARK    8  A    between atoms: S_20  and  C_23
REMARK    9  A    between atoms: C_26  and  C_27
REMARK                            x       y       z     vdW  Elec       q    Type
REMARK                         _______ _______ _______ _____ _____    ______ ____
ROOT
ATOM      1  C   UNL     1      -0.976  11.199  22.295  0.00  0.00    +0.000 A 
ATOM      2  C   UNL     1      -0.573  10.146  23.161  0.00  0.00    +0.000 A 
ATOM      3  C   UNL     1       0.339   9.154  22.786  0.00  0.00    +0.000 A 
ATOM      4  C   UNL     1       0.889   9.179  21.518  0.00  0.00    +0.000 A 
ATOM      5  C   UNL     1       0.488  10.170  20.626  0.00  0.00    +0.000 A 
ATOM      6  C   UNL     1      -0.449  11.169  20.995  0.00  0.00    +0.000 A 
ENDROOT
BRANCH   1   9
ATOM      7  N   UNL     1      -2.867  14.023  23.692  0.00  0.00    +0.000 N 
ATOM      8  C   UNL     1      -1.683  13.579  23.090  0.00  0.00    +0.000 A 
ATOM      9  C   UNL     1      -1.813  12.217  22.935  0.00  0.00    +0.000 A 
ATOM     10  N   UNL     1      -3.021  11.851  23.467  0.00  0.00    +0.000 NA
ATOM     11  N   UNL     1      -3.637  12.927  23.912  0.00  0.00    +0.000 NA
BRANCH   7  17
ATOM     12  C   UNL     1      -4.396  15.955  23.345  0.00  0.00    +0.000 A 
ATOM     13  C   UNL     1      -4.893  17.212  23.729  0.00  0.00    +0.000 A 
ATOM     14  C   UNL     1      -4.304  17.920  24.761  0.00  0.00    +0.000 A 
ATOM     15  C   UNL     1      -3.228  17.362  25.437  0.00  0.00    +0.000 A 
ATOM     16  C   UNL     1      -2.725  16.088  25.101  0.00  0.00    +0.000 A 
ATOM     17  C   UNL     1      -3.323  15.344  24.056  0.00  0.00    +0.000 A 
BRANCH  12  19
ATOM     18  C   UNL     1      -6.364  14.955  22.500  0.00  0.00    +0.000 C 
ATOM     19  O   UNL     1      -4.999  15.316  22.288  0.00  0.00    +0.000 OA
ENDBRANCH  12  19
BRANCH  16  20
ATOM     20  O   UNL     1      -1.703  15.543  25.836  0.00  0.00    +0.000 OA
ATOM     21  C   UNL     1      -0.950  16.454  26.637  0.00  0.00    +0.000 C 
ENDBRANCH  16  20
ENDBRANCH   7  17
ENDBRANCH   1   9
BRANCH   6  22
ATOM     22  S   UNL     1      -0.933  12.265  19.682  0.00  0.00    +0.000 S 
ATOM     23  O   UNL     1      -0.862  13.618  20.202  0.00  0.00    +0.000 OA
ATOM     24  O   UNL     1      -0.122  11.914  18.530  0.00  0.00    +0.000 OA
BRANCH  22  25
ATOM     25  C   UNL     1      -2.636  12.074  19.236  0.00  0.00    +0.000 A 
ATOM     26  C   UNL     1      -3.034  11.196  18.228  0.00  0.00    +0.000 A 
ATOM     27  C   UNL     1      -4.400  10.966  18.029  0.00  0.00    +0.000 A 
ATOM     28  C   UNL     1      -5.362  11.595  18.840  0.00  0.00    +0.000 A 
ATOM     29  C   UNL     1      -4.938  12.503  19.823  0.00  0.00    +0.000 A 
ATOM     30  C   UNL     1      -3.581  12.742  20.023  0.00  0.00    +0.000 A 
BRANCH  28  31
ATOM     31  C   UNL     1      -6.836  11.293  18.699  0.00  0.00    +0.000 C 
ATOM     32  F   UNL     1      -7.570  11.642  19.791  0.00  0.00    +0.000 F 
ATOM     33  F   UNL     1      -7.400  11.953  17.648  0.00  0.00    +0.000 F 
ATOM     34  F   UNL     1      -7.081   9.972  18.484  0.00  0.00    +0.000 F 
ENDBRANCH  28  31
ENDBRANCH  22  25
ENDBRANCH   6  22
TORSDOF 7
ENDMDL
MODEL 9
REMARK VINA RESULT:      -7.3      5.652     10.163
REMARK  Name = 
REMARK  9 active torsions:
REMARK  status: ('A' for Active; 'I' for Inactive)
REMARK    1  A    between atoms: C_1  and  O_2
REMARK    2  A    between atoms: O_2  and  C_3
REMARK    3  A    between atoms: C_7  and  O_8
REMARK    4  A    between atoms: O_8  and  C_9
REMARK    5  A    between atoms: C_10  and  N_11
REMARK    6  A    between atoms: C_13  and  C_14
REMARK    7  A    between atoms: C_19  and  S_20
REMARK    8  A    between atoms: S_20  and  C_23
REMARK    9  A    between atoms: C_26  and  C_27
REMARK                            x       y       z     vdW  Elec       q    Type
REMARK                         _______ _______ _______ _____ _____    ______ ____
ROOT
ATOM      1  C   UNL     1       1.127  10.765  18.485  0.00  0.00    +0.000 A 
ATOM      2  C   UNL     1       2.192  11.706  18.460  0.00  0.00    +0.000 A 
ATOM      3  C   UNL     1       1.989  13.090  18.459  0.00  0.00    +0.000 A 
ATOM      4  C   UNL     1       0.700  13.588  18.488  0.00  0.00    +0.000 A 
ATOM      5  C   UNL     1      -0.370  12.700  18.470  0.00  0.00    +0.000 A 
ATOM      6  C   UNL     1      -0.172  11.295  18.453  0.00  0.00    +0.000 A 
ENDROOT
BRANCH   1   9
ATOM      7  N   UNL     1       2.374   7.308  18.510  0.00  0.00    +0.000 N 
ATOM      8  C   UNL     1       2.000   8.421  17.748  0.00  0.00    +0.000 A 
ATOM      9  C   UNL     1       1.558   9.372  18.639  0.00  0.00    +0.000 A 
ATOM     10  N   UNL     1       1.626   8.829  19.895  0.00  0.00    +0.000 NA
ATOM     11  N   UNL     1       2.111   7.608  19.807  0.00  0.00    +0.000 NA
BRANCH   7  17
ATOM     12  C   UNL     1       2.296   4.821  18.498  0.00  0.00    +0.000 A 
ATOM     13  C   UNL     1       2.808   3.578  18.085  0.00  0.00    +0.000 A 
ATOM     14  C   UNL     1       3.995   3.501  17.381  0.00  0.00    +0.000 A 
ATOM     15  C   UNL     1       4.669   4.671  17.058  0.00  0.00    +0.000 A 
ATOM     16  C   UNL     1       4.167   5.937  17.425  0.00  0.00    +0.000 A 
ATOM     17  C   UNL     1       2.947   6.036  18.136  0.00  0.00    +0.000 A 
BRANCH  12  19
ATOM     18  C   UNL     1       0.933   3.693  20.065  0.00  0.00    +0.000 C 
ATOM     19  O   UNL     1       1.132   4.832  19.227  0.00  0.00    +0.000 OA
ENDBRANCH  12  19
BRANCH  16  20
ATOM     20  O   UNL     1       4.827   7.073  17.030  0.00  0.00    +0.000 OA
ATOM     21  C   UNL     1       6.244   7.072  17.212  0.00  0.00    +0.000 C 
ENDBRANCH  16  20
ENDBRANCH   7  17
ENDBRANCH   1   9
BRANCH   6  22
ATOM     22  S   UNL     1      -1.656  10.329  18.301  0.00  0.00    +0.000 S 
ATOM     23  O   UNL     1      -1.631   9.705  16.991  0.00  0.00    +0.000 OA
ATOM     24  O   UNL     1      -1.722   9.483  19.478  0.00  0.00    +0.000 OA
BRANCH  22  25
ATOM     25  C   UNL     1      -3.113  11.333  18.260  0.00  0.00    +0.000 A 
ATOM     26  C   UNL     1      -3.941  11.375  17.138  0.00  0.00    +0.000 A 
ATOM     27  C   UNL     1      -5.161  12.057  17.220  0.00  0.00    +0.000 A 
ATOM     28  C   UNL     1      -5.558  12.680  18.416  0.00  0.00    +0.000 A 
ATOM     29  C   UNL     1      -4.692  12.656  19.520  0.00  0.00    +0.000 A 
ATOM     30  C   UNL     1      -3.474  11.985  19.445  0.00  0.00    +0.000 A 
BRANCH  28  31
ATOM     31  C   UNL     1      -6.909  13.346  18.551  0.00  0.00    +0.000 C 
ATOM     32  F   UNL     1      -6.935  14.625  18.086  0.00  0.00    +0.000 F 
ATOM     33  F   UNL     1      -7.882  12.682  17.865  0.00  0.00    +0.000 F 
ATOM     34  F   UNL     1      -7.336  13.405  19.842  0.00  0.00    +0.000 F 
ENDBRANCH  28  31
ENDBRANCH  22  25
ENDBRANCH   6  22
TORSDOF 7
ENDMDL
