MODEL 1
REMARK VINA RESULT:      -7.9      0.000      0.000
REMARK  Name = 
REMARK  5 active torsions:
REMARK  status: ('A' for Active; 'I' for Inactive)
REMARK    1  A    between atoms: C_2  and  C_3
REMARK    2  A    between atoms: C_3  and  O_4
REMARK    3  A    between atoms: O_4  and  C_5
REMARK    4  A    between atoms: C_9  and  C_10
REMARK    5  A    between atoms: N_15  and  C_16
REMARK                            x       y       z     vdW  Elec       q    Type
REMARK                         _______ _______ _______ _____ _____    ______ ____
ROOT
ATOM      1  O   UNL     1       1.949   7.808  19.667  0.00  0.00    +0.000 OA
ATOM      2  C   UNL     1       2.337   8.074  18.527  0.00  0.00    +0.000 C 
ATOM      3  N   UNL     1       3.208   7.299  17.774  0.00  0.00    +0.000 N 
ATOM      4  H   UNL     1       3.636   7.735  16.964  0.00  0.00    +0.000 HD
ENDROOT
BRANCH   3   5
ATOM      5  C   UNL     1       3.646   5.990  18.101  0.00  0.00    +0.000 A 
ATOM      6  C   UNL     1       4.839   5.749  18.797  0.00  0.00    +0.000 A 
ATOM      7  C   UNL     1       5.248   4.458  19.152  0.00  0.00    +0.000 A 
ATOM      8  C   UNL     1       4.412   3.406  18.787  0.00  0.00    +0.000 A 
ATOM      9  N   UNL     1       4.512   2.056  18.987  0.00  0.00    +0.000 N 
ATOM     10  N   UNL     1       3.493   1.349  18.468  0.00  0.00    +0.000 NA
ATOM     11  C   UNL     1       2.715   2.286  17.920  0.00  0.00    +0.000 A 
ATOM     12  C   UNL     1       3.223   3.594  18.093  0.00  0.00    +0.000 A 
ATOM     13  C   UNL     1       2.825   4.904  17.747  0.00  0.00    +0.000 A 
ATOM     14  H   UNL     1       5.252   1.555  19.470  0.00  0.00    +0.000 HD
ENDBRANCH   3   5
BRANCH   2  15
ATOM     15  C   UNL     1       1.836   9.339  17.830  0.00  0.00    +0.000 C 
BRANCH  15  16
ATOM     16  O   UNL     1       1.455  10.328  18.779  0.00  0.00    +0.000 OA
BRANCH  16  17
ATOM     17  C   UNL     1       0.156  10.755  18.716  0.00  0.00    +0.000 A 
ATOM     18  C   UNL     1      -0.133  11.888  19.478  0.00  0.00    +0.000 A 
ATOM     19  C   UNL     1      -1.424  12.420  19.505  0.00  0.00    +0.000 A 
ATOM     20  C   UNL     1      -2.448  11.804  18.787  0.00  0.00    +0.000 A 
ATOM     21  C   UNL     1      -2.188  10.647  18.040  0.00  0.00    +0.000 A 
ATOM     22  C   UNL     1      -0.877  10.130  18.009  0.00  0.00    +0.000 A 
BRANCH  21  23
ATOM     23  C   UNL     1      -3.292   9.947  17.284  0.00  0.00    +0.000 C 
ATOM     24  F   UNL     1      -2.901   9.455  16.076  0.00  0.00    +0.000 F 
ATOM     25  F   UNL     1      -3.797   8.885  17.973  0.00  0.00    +0.000 F 
ATOM     26  F   UNL     1      -4.350  10.764  17.030  0.00  0.00    +0.000 F 
ENDBRANCH  21  23
ENDBRANCH  16  17
ENDBRANCH  15  16
ENDBRANCH   2  15
TORSDOF 5
ENDMDL
MODEL 2
REMARK VINA RESULT:      -7.8      5.126      8.713
REMARK  Name = 
REMARK  5 active torsions:
REMARK  status: ('A' for Active; 'I' for Inactive)
REMARK    1  A    between atoms: C_2  and  C_3
REMARK    2  A    between atoms: C_3  and  O_4
REMARK    3  A    between atoms: O_4  and  C_5
REMARK    4  A    between atoms: C_9  and  C_10
REMARK    5  A    between atoms: N_15  and  C_16
REMARK                            x       y       z     vdW  Elec       q    Type
REMARK                         _______ _______ _______ _____ _____    ______ ____
ROOT
ATOM      1  O   UNL     1       1.234   4.285  17.464  0.00  0.00    +0.000 OA
ATOM      2  C   UNL     1       2.453   4.386  17.620  0.00  0.00    +0.000 C 
ATOM      3  N   UNL     1       3.106   5.488  18.153  0.00  0.00    +0.000 N 
ATOM      4  H   UNL     1       4.108   5.549  18.008  0.00  0.00    +0.000 HD
ENDROOT
BRANCH   3   5
ATOM      5  C   UNL     1       2.482   6.597  18.781  0.00  0.00    +0.000 A 
ATOM      6  C   UNL     1       2.071   6.568  20.120  0.00  0.00    +0.000 A 
ATOM      7  C   UNL     1       1.492   7.677  20.748  0.00  0.00    +0.000 A 
ATOM      8  C   UNL     1       1.341   8.830  19.981  0.00  0.00    +0.000 A 
ATOM      9  N   UNL     1       0.833  10.063  20.288  0.00  0.00    +0.000 N 
ATOM     10  N   UNL     1       0.845  10.930  19.261  0.00  0.00    +0.000 NA
ATOM     11  C   UNL     1       1.384  10.222  18.265  0.00  0.00    +0.000 A 
ATOM     12  C   UNL     1       1.728   8.906  18.650  0.00  0.00    +0.000 A 
ATOM     13  C   UNL     1       2.314   7.778  18.035  0.00  0.00    +0.000 A 
ATOM     14  H   UNL     1       0.462  10.376  21.181  0.00  0.00    +0.000 HD
ENDBRANCH   3   5
BRANCH   2  15
ATOM     15  C   UNL     1       3.367   3.224  17.227  0.00  0.00    +0.000 C 
BRANCH  15  16
ATOM     16  O   UNL     1       4.729   3.536  17.490  0.00  0.00    +0.000 OA
BRANCH  16  17
ATOM     17  C   UNL     1       5.482   3.910  16.409  0.00  0.00    +0.000 A 
ATOM     18  C   UNL     1       6.513   4.808  16.686  0.00  0.00    +0.000 A 
ATOM     19  C   UNL     1       7.349   5.272  15.667  0.00  0.00    +0.000 A 
ATOM     20  C   UNL     1       7.142   4.859  14.352  0.00  0.00    +0.000 A 
ATOM     21  C   UNL     1       6.093   3.982  14.046  0.00  0.00    +0.000 A 
ATOM     22  C   UNL     1       5.267   3.509  15.085  0.00  0.00    +0.000 A 
BRANCH  21  23
ATOM     23  C   UNL     1       5.832   3.551  12.622  0.00  0.00    +0.000 C 
ATOM     24  F   UNL     1       4.562   3.800  12.199  0.00  0.00    +0.000 F 
ATOM     25  F   UNL     1       6.652   4.179  11.733  0.00  0.00    +0.000 F 
ATOM     26  F   UNL     1       6.032   2.218  12.436  0.00  0.00    +0.000 F 
ENDBRANCH  21  23
ENDBRANCH  16  17
ENDBRANCH  15  16
ENDBRANCH   2  15
TORSDOF 5
ENDMDL
MODEL 3
REMARK VINA RESULT:      -7.8      0.728      1.138
REMARK  Name = 
REMARK  5 active torsions:
REMARK  status: ('A' for Active; 'I' for Inactive)
REMARK    1  A    between atoms: C_2  and  C_3
REMARK    2  A    between atoms: C_3  and  O_4
REMARK    3  A    between atoms: O_4  and  C_5
REMARK    4  A    between atoms: C_9  and  C_10
REMARK    5  A    between atoms: N_15  and  C_16
REMARK                            x       y       z     vdW  Elec       q    Type
REMARK                         _______ _______ _______ _____ _____    ______ ____
ROOT
ATOM      1  O   UNL     1       1.963   7.761  20.013  0.00  0.00    +0.000 OA
ATOM      2  C   UNL     1       2.147   8.034  18.825  0.00  0.00    +0.000 C 
ATOM      3  N   UNL     1       2.894   7.277  17.933  0.00  0.00    +0.000 N 
ATOM      4  H   UNL     1       3.169   7.721  17.064  0.00  0.00    +0.000 HD
ENDROOT
BRANCH   3   5
ATOM      5  C   UNL     1       3.409   5.978  18.178  0.00  0.00    +0.000 A 
ATOM      6  C   UNL     1       4.663   5.766  18.767  0.00  0.00    +0.000 A 
ATOM      7  C   UNL     1       5.150   4.482  19.043  0.00  0.00    +0.000 A 
ATOM      8  C   UNL     1       4.330   3.408  18.708  0.00  0.00    +0.000 A 
ATOM      9  N   UNL     1       4.499   2.058  18.852  0.00  0.00    +0.000 N 
ATOM     10  N   UNL     1       3.470   1.326  18.391  0.00  0.00    +0.000 NA
ATOM     11  C   UNL     1       2.613   2.246  17.941  0.00  0.00    +0.000 A 
ATOM     12  C   UNL     1       3.082   3.568  18.119  0.00  0.00    +0.000 A 
ATOM     13  C   UNL     1       2.605   4.870  17.852  0.00  0.00    +0.000 A 
ATOM     14  H   UNL     1       5.294   1.573  19.257  0.00  0.00    +0.000 HD
ENDBRANCH   3   5
BRANCH   2  15
ATOM     15  C   UNL     1       1.508   9.288  18.226  0.00  0.00    +0.000 C 
BRANCH  15  16
ATOM     16  O   UNL     1       0.774  10.006  19.210  0.00  0.00    +0.000 OA
BRANCH  16  17
ATOM     17  C   UNL     1      -0.437  10.507  18.811  0.00  0.00    +0.000 A 
ATOM     18  C   UNL     1      -1.042  11.383  19.714  0.00  0.00    +0.000 A 
ATOM     19  C   UNL     1      -2.283  11.957  19.429  0.00  0.00    +0.000 A 
ATOM     20  C   UNL     1      -2.943  11.639  18.243  0.00  0.00    +0.000 A 
ATOM     21  C   UNL     1      -2.368  10.738  17.336  0.00  0.00    +0.000 A 
ATOM     22  C   UNL     1      -1.109  10.177  17.629  0.00  0.00    +0.000 A 
BRANCH  21  23
ATOM     23  C   UNL     1      -3.086  10.354  16.064  0.00  0.00    +0.000 C 
ATOM     24  F   UNL     1      -4.306  10.943  15.925  0.00  0.00    +0.000 F 
ATOM     25  F   UNL     1      -2.379  10.693  14.949  0.00  0.00    +0.000 F 
ATOM     26  F   UNL     1      -3.305   9.014  15.972  0.00  0.00    +0.000 F 
ENDBRANCH  21  23
ENDBRANCH  16  17
ENDBRANCH  15  16
ENDBRANCH   2  15
TORSDOF 5
ENDMDL
MODEL 4
REMARK VINA RESULT:      -7.7      4.935      8.590
REMARK  Name = 
REMARK  5 active torsions:
REMARK  status: ('A' for Active; 'I' for Inactive)
REMARK    1  A    between atoms: C_2  and  C_3
REMARK    2  A    between atoms: C_3  and  O_4
REMARK    3  A    between atoms: O_4  and  C_5
REMARK    4  A    between atoms: C_9  and  C_10
REMARK    5  A    between atoms: N_15  and  C_16
REMARK                            x       y       z     vdW  Elec       q    Type
REMARK                         _______ _______ _______ _____ _____    ______ ____
ROOT
ATOM      1  O   UNL     1       0.860   4.822  19.983  0.00  0.00    +0.000 OA
ATOM      2  C   UNL     1       2.008   5.049  20.370  0.00  0.00    +0.000 C 
ATOM      3  N   UNL     1       2.703   6.234  20.172  0.00  0.00    +0.000 N 
ATOM      4  H   UNL     1       3.706   6.215  20.320  0.00  0.00    +0.000 HD
ENDROOT
BRANCH   3   5
ATOM      5  C   UNL     1       2.154   7.442  19.669  0.00  0.00    +0.000 A 
ATOM      6  C   UNL     1       2.294   7.829  18.329  0.00  0.00    +0.000 A 
ATOM      7  C   UNL     1       1.718   9.002  17.827  0.00  0.00    +0.000 A 
ATOM      8  C   UNL     1       0.986   9.780  18.721  0.00  0.00    +0.000 A 
ATOM      9  N   UNL     1       0.302  10.954  18.553  0.00  0.00    +0.000 N 
ATOM     10  N   UNL     1      -0.281  11.412  19.674  0.00  0.00    +0.000 NA
ATOM     11  C   UNL     1       0.043  10.494  20.588  0.00  0.00    +0.000 A 
ATOM     12  C   UNL     1       0.823   9.441  20.058  0.00  0.00    +0.000 A 
ATOM     13  C   UNL     1       1.409   8.251  20.545  0.00  0.00    +0.000 A 
ATOM     14  H   UNL     1       0.194  11.490  17.697  0.00  0.00    +0.000 HD
ENDBRANCH   3   5
BRANCH   2  15
ATOM     15  C   UNL     1       2.772   3.979  21.152  0.00  0.00    +0.000 C 
BRANCH  15  16
ATOM     16  O   UNL     1       3.313   2.997  20.278  0.00  0.00    +0.000 OA
BRANCH  16  17
ATOM     17  C   UNL     1       4.019   3.470  19.203  0.00  0.00    +0.000 A 
ATOM     18  C   UNL     1       3.394   3.307  17.967  0.00  0.00    +0.000 A 
ATOM     19  C   UNL     1       4.013   3.741  16.792  0.00  0.00    +0.000 A 
ATOM     20  C   UNL     1       5.279   4.322  16.843  0.00  0.00    +0.000 A 
ATOM     21  C   UNL     1       5.939   4.466  18.071  0.00  0.00    +0.000 A 
ATOM     22  C   UNL     1       5.296   4.038  19.251  0.00  0.00    +0.000 A 
BRANCH  21  23
ATOM     23  C   UNL     1       7.325   5.060  18.142  0.00  0.00    +0.000 C 
ATOM     24  F   UNL     1       8.301   4.228  17.683  0.00  0.00    +0.000 F 
ATOM     25  F   UNL     1       7.436   6.204  17.410  0.00  0.00    +0.000 F 
ATOM     26  F   UNL     1       7.686   5.394  19.411  0.00  0.00    +0.000 F 
ENDBRANCH  21  23
ENDBRANCH  16  17
ENDBRANCH  15  16
ENDBRANCH   2  15
TORSDOF 5
ENDMDL
MODEL 5
REMARK VINA RESULT:      -7.7      4.006      8.335
REMARK  Name = 
REMARK  5 active torsions:
REMARK  status: ('A' for Active; 'I' for Inactive)
REMARK    1  A    between atoms: C_2  and  C_3
REMARK    2  A    between atoms: C_3  and  O_4
REMARK    3  A    between atoms: O_4  and  C_5
REMARK    4  A    between atoms: C_9  and  C_10
REMARK    5  A    between atoms: N_15  and  C_16
REMARK                            x       y       z     vdW  Elec       q    Type
REMARK                         _______ _______ _______ _____ _____    ______ ____
ROOT
ATOM      1  O   UNL     1       1.508   8.491  19.675  0.00  0.00    +0.000 OA
ATOM      2  C   UNL     1       1.641   8.701  18.468  0.00  0.00    +0.000 C 
ATOM      3  N   UNL     1       0.791   9.473  17.688  0.00  0.00    +0.000 N 
ATOM      4  H   UNL     1       0.866   9.373  16.681  0.00  0.00    +0.000 HD
ENDROOT
BRANCH   3   5
ATOM      5  C   UNL     1      -0.254  10.302  18.172  0.00  0.00    +0.000 A 
ATOM      6  C   UNL     1      -0.020  11.371  19.047  0.00  0.00    +0.000 A 
ATOM      7  C   UNL     1      -1.049  12.210  19.491  0.00  0.00    +0.000 A 
ATOM      8  C   UNL     1      -2.332  11.942  19.022  0.00  0.00    +0.000 A 
ATOM      9  N   UNL     1      -3.529  12.564  19.249  0.00  0.00    +0.000 N 
ATOM     10  N   UNL     1      -4.569  11.996  18.615  0.00  0.00    +0.000 NA
ATOM     11  C   UNL     1      -4.011  10.976  17.957  0.00  0.00    +0.000 A 
ATOM     12  C   UNL     1      -2.614  10.892  18.158  0.00  0.00    +0.000 A 
ATOM     13  C   UNL     1      -1.562  10.058  17.717  0.00  0.00    +0.000 A 
ATOM     14  H   UNL     1      -3.703  13.381  19.826  0.00  0.00    +0.000 HD
ENDBRANCH   3   5
BRANCH   2  15
ATOM     15  C   UNL     1       2.832   8.100  17.719  0.00  0.00    +0.000 C 
BRANCH  15  16
ATOM     16  O   UNL     1       3.535   7.175  18.539  0.00  0.00    +0.000 OA
BRANCH  16  17
ATOM     17  C   UNL     1       3.291   5.849  18.297  0.00  0.00    +0.000 A 
ATOM     18  C   UNL     1       4.043   5.287  17.265  0.00  0.00    +0.000 A 
ATOM     19  C   UNL     1       3.883   3.943  16.915  0.00  0.00    +0.000 A 
ATOM     20  C   UNL     1       2.946   3.155  17.582  0.00  0.00    +0.000 A 
ATOM     21  C   UNL     1       2.158   3.708  18.601  0.00  0.00    +0.000 A 
ATOM     22  C   UNL     1       2.341   5.060  18.954  0.00  0.00    +0.000 A 
BRANCH  21  23
ATOM     23  C   UNL     1       1.114   2.878  19.310  0.00  0.00    +0.000 C 
ATOM     24  F   UNL     1       0.222   2.285  18.469  0.00  0.00    +0.000 F 
ATOM     25  F   UNL     1       1.665   1.869  20.042  0.00  0.00    +0.000 F 
ATOM     26  F   UNL     1       0.372   3.610  20.185  0.00  0.00    +0.000 F 
ENDBRANCH  21  23
ENDBRANCH  16  17
ENDBRANCH  15  16
ENDBRANCH   2  15
TORSDOF 5
ENDMDL
MODEL 6
REMARK VINA RESULT:      -7.7      7.285      8.733
REMARK  Name = 
REMARK  5 active torsions:
REMARK  status: ('A' for Active; 'I' for Inactive)
REMARK    1  A    between atoms: C_2  and  C_3
REMARK    2  A    between atoms: C_3  and  O_4
REMARK    3  A    between atoms: O_4  and  C_5
REMARK    4  A    between atoms: C_9  and  C_10
REMARK    5  A    between atoms: N_15  and  C_16
REMARK                            x       y       z     vdW  Elec       q    Type
REMARK                         _______ _______ _______ _____ _____    ______ ____
ROOT
ATOM      1  O   UNL     1       8.029   6.746  18.569  0.00  0.00    +0.000 OA
ATOM      2  C   UNL     1       7.580   7.585  17.786  0.00  0.00    +0.000 C 
ATOM      3  N   UNL     1       6.514   7.387  16.921  0.00  0.00    +0.000 N 
ATOM      4  H   UNL     1       6.396   8.058  16.168  0.00  0.00    +0.000 HD
ENDROOT
BRANCH   3   5
ATOM      5  C   UNL     1       5.643   6.267  16.922  0.00  0.00    +0.000 A 
ATOM      6  C   UNL     1       6.004   5.035  16.360  0.00  0.00    +0.000 A 
ATOM      7  C   UNL     1       5.157   3.921  16.398  0.00  0.00    +0.000 A 
ATOM      8  C   UNL     1       3.925   4.083  17.027  0.00  0.00    +0.000 A 
ATOM      9  N   UNL     1       2.893   3.210  17.241  0.00  0.00    +0.000 N 
ATOM     10  N   UNL     1       1.846   3.749  17.888  0.00  0.00    +0.000 NA
ATOM     11  C   UNL     1       2.228   5.012  18.095  0.00  0.00    +0.000 A 
ATOM     12  C   UNL     1       3.521   5.285  17.594  0.00  0.00    +0.000 A 
ATOM     13  C   UNL     1       4.391   6.397  17.549  0.00  0.00    +0.000 A 
ATOM     14  H   UNL     1       2.844   2.232  16.971  0.00  0.00    +0.000 HD
ENDBRANCH   3   5
BRANCH   2  15
ATOM     15  C   UNL     1       8.199   8.983  17.734  0.00  0.00    +0.000 C 
BRANCH  15  16
ATOM     16  O   UNL     1       8.955   9.250  18.909  0.00  0.00    +0.000 OA
BRANCH  16  17
ATOM     17  C   UNL     1       9.336  10.552  19.097  0.00  0.00    +0.000 A 
ATOM     18  C   UNL     1       9.961  11.151  18.003  0.00  0.00    +0.000 A 
ATOM     19  C   UNL     1      10.404  12.475  18.070  0.00  0.00    +0.000 A 
ATOM     20  C   UNL     1      10.247  13.204  19.247  0.00  0.00    +0.000 A 
ATOM     21  C   UNL     1       9.651  12.612  20.369  0.00  0.00    +0.000 A 
ATOM     22  C   UNL     1       9.194  11.282  20.283  0.00  0.00    +0.000 A 
BRANCH  21  23
ATOM     23  C   UNL     1       9.505  13.376  21.664  0.00  0.00    +0.000 C 
ATOM     24  F   UNL     1       8.350  14.093  21.749  0.00  0.00    +0.000 F 
ATOM     25  F   UNL     1       9.516  12.557  22.752  0.00  0.00    +0.000 F 
ATOM     26  F   UNL     1      10.513  14.269  21.859  0.00  0.00    +0.000 F 
ENDBRANCH  21  23
ENDBRANCH  16  17
ENDBRANCH  15  16
ENDBRANCH   2  15
TORSDOF 5
ENDMDL
MODEL 7
REMARK VINA RESULT:      -7.7      4.695      8.387
REMARK  Name = 
REMARK  5 active torsions:
REMARK  status: ('A' for Active; 'I' for Inactive)
REMARK    1  A    between atoms: C_2  and  C_3
REMARK    2  A    between atoms: C_3  and  O_4
REMARK    3  A    between atoms: O_4  and  C_5
REMARK    4  A    between atoms: C_9  and  C_10
REMARK    5  A    between atoms: N_15  and  C_16
REMARK                            x       y       z     vdW  Elec       q    Type
REMARK                         _______ _______ _______ _____ _____    ______ ____
ROOT
ATOM      1  O   UNL     1       1.950   5.046  17.883  0.00  0.00    +0.000 OA
ATOM      2  C   UNL     1       2.703   5.029  18.859  0.00  0.00    +0.000 C 
ATOM      3  N   UNL     1       2.939   6.100  19.710  0.00  0.00    +0.000 N 
ATOM      4  H   UNL     1       3.748   6.039  20.320  0.00  0.00    +0.000 HD
ENDROOT
BRANCH   3   5
ATOM      5  C   UNL     1       2.220   7.322  19.723  0.00  0.00    +0.000 A 
ATOM      6  C   UNL     1       2.181   8.182  18.617  0.00  0.00    +0.000 A 
ATOM      7  C   UNL     1       1.438   9.369  18.619  0.00  0.00    +0.000 A 
ATOM      8  C   UNL     1       0.725   9.667  19.778  0.00  0.00    +0.000 A 
ATOM      9  N   UNL     1      -0.090  10.718  20.096  0.00  0.00    +0.000 N 
ATOM     10  N   UNL     1      -0.599  10.659  21.339  0.00  0.00    +0.000 NA
ATOM     11  C   UNL     1      -0.090   9.525  21.827  0.00  0.00    +0.000 A 
ATOM     12  C   UNL     1       0.736   8.849  20.901  0.00  0.00    +0.000 A 
ATOM     13  C   UNL     1       1.488   7.654  20.878  0.00  0.00    +0.000 A 
ATOM     14  H   UNL     1      -0.340  11.508  19.508  0.00  0.00    +0.000 HD
ENDBRANCH   3   5
BRANCH   2  15
ATOM     15  C   UNL     1       3.452   3.745  19.218  0.00  0.00    +0.000 C 
BRANCH  15  16
ATOM     16  O   UNL     1       4.790   4.026  19.607  0.00  0.00    +0.000 OA
BRANCH  16  17
ATOM     17  C   UNL     1       5.596   4.572  18.643  0.00  0.00    +0.000 A 
ATOM     18  C   UNL     1       6.511   5.519  19.102  0.00  0.00    +0.000 A 
ATOM     19  C   UNL     1       7.385   6.155  18.217  0.00  0.00    +0.000 A 
ATOM     20  C   UNL     1       7.333   5.863  16.855  0.00  0.00    +0.000 A 
ATOM     21  C   UNL     1       6.401   4.938  16.367  0.00  0.00    +0.000 A 
ATOM     22  C   UNL     1       5.535   4.293  17.273  0.00  0.00    +0.000 A 
BRANCH  21  23
ATOM     23  C   UNL     1       6.306   4.636  14.891  0.00  0.00    +0.000 C 
ATOM     24  F   UNL     1       7.362   5.103  14.168  0.00  0.00    +0.000 F 
ATOM     25  F   UNL     1       6.244   3.299  14.639  0.00  0.00    +0.000 F 
ATOM     26  F   UNL     1       5.195   5.175  14.318  0.00  0.00    +0.000 F 
ENDBRANCH  21  23
ENDBRANCH  16  17
ENDBRANCH  15  16
ENDBRANCH   2  15
TORSDOF 5
ENDMDL
MODEL 8
REMARK VINA RESULT:      -7.7      5.155      8.656
REMARK  Name = 
REMARK  5 active torsions:
REMARK  status: ('A' for Active; 'I' for Inactive)
REMARK    1  A    between atoms: C_2  and  C_3
REMARK    2  A    between atoms: C_3  and  O_4
REMARK    3  A    between atoms: O_4  and  C_5
REMARK    4  A    between atoms: C_9  and  C_10
REMARK    5  A    between atoms: N_15  and  C_16
REMARK                            x       y       z     vdW  Elec       q    Type
REMARK                         _______ _______ _______ _____ _____    ______ ____
ROOT
ATOM      1  O   UNL     1       1.243   4.452  17.925  0.00  0.00    +0.000 OA
ATOM      2  C   UNL     1       2.433   4.685  17.700  0.00  0.00    +0.000 C 
ATOM      3  N   UNL     1       3.049   5.921  17.840  0.00  0.00    +0.000 N 
ATOM      4  H   UNL     1       3.956   6.041  17.401  0.00  0.00    +0.000 HD
ENDROOT
BRANCH   3   5
ATOM      5  C   UNL     1       2.473   7.070  18.441  0.00  0.00    +0.000 A 
ATOM      6  C   UNL     1       2.151   8.220  17.708  0.00  0.00    +0.000 A 
ATOM      7  C   UNL     1       1.547   9.337  18.298  0.00  0.00    +0.000 A 
ATOM      8  C   UNL     1       1.271   9.262  19.660  0.00  0.00    +0.000 A 
ATOM      9  N   UNL     1       0.689  10.154  20.519  0.00  0.00    +0.000 N 
ATOM     10  N   UNL     1       0.604   9.717  21.787  0.00  0.00    +0.000 NA
ATOM     11  C   UNL     1       1.149   8.499  21.731  0.00  0.00    +0.000 A 
ATOM     12  C   UNL     1       1.576   8.146  20.430  0.00  0.00    +0.000 A 
ATOM     13  C   UNL     1       2.181   7.027  19.817  0.00  0.00    +0.000 A 
ATOM     14  H   UNL     1       0.329  11.078  20.301  0.00  0.00    +0.000 HD
ENDBRANCH   3   5
BRANCH   2  15
ATOM     15  C   UNL     1       3.356   3.555  17.245  0.00  0.00    +0.000 C 
BRANCH  15  16
ATOM     16  O   UNL     1       4.718   3.876  17.497  0.00  0.00    +0.000 OA
BRANCH  16  17
ATOM     17  C   UNL     1       5.495   4.115  16.394  0.00  0.00    +0.000 A 
ATOM     18  C   UNL     1       6.615   4.916  16.621  0.00  0.00    +0.000 A 
ATOM     19  C   UNL     1       7.485   5.239  15.577  0.00  0.00    +0.000 A 
ATOM     20  C   UNL     1       7.225   4.783  14.285  0.00  0.00    +0.000 A 
ATOM     21  C   UNL     1       6.089   4.003  14.029  0.00  0.00    +0.000 A 
ATOM     22  C   UNL     1       5.228   3.671  15.095  0.00  0.00    +0.000 A 
BRANCH  21  23
ATOM     23  C   UNL     1       5.772   3.530  12.630  0.00  0.00    +0.000 C 
ATOM     24  F   UNL     1       5.955   2.192  12.451  0.00  0.00    +0.000 F 
ATOM     25  F   UNL     1       4.480   3.780  12.279  0.00  0.00    +0.000 F 
ATOM     26  F   UNL     1       6.540   4.141  11.687  0.00  0.00    +0.000 F 
ENDBRANCH  21  23
ENDBRANCH  16  17
ENDBRANCH  15  16
ENDBRANCH   2  15
TORSDOF 5
ENDMDL
MODEL 9
REMARK VINA RESULT:      -7.6      6.698      8.846
REMARK  Name = 
REMARK  5 active torsions:
REMARK  status: ('A' for Active; 'I' for Inactive)
REMARK    1  A    between atoms: C_2  and  C_3
REMARK    2  A    between atoms: C_3  and  O_4
REMARK    3  A    between atoms: O_4  and  C_5
REMARK    4  A    between atoms: C_9  and  C_10
REMARK    5  A    between atoms: N_15  and  C_16
REMARK                            x       y       z     vdW  Elec       q    Type
REMARK                         _______ _______ _______ _____ _____    ______ ____
ROOT
ATOM      1  O   UNL     1       6.444   5.092  18.673  0.00  0.00    +0.000 OA
ATOM      2  C   UNL     1       6.286   4.398  17.667  0.00  0.00    +0.000 C 
ATOM      3  N   UNL     1       5.199   3.568  17.426  0.00  0.00    +0.000 N 
ATOM      4  H   UNL     1       5.298   2.877  16.690  0.00  0.00    +0.000 HD
ENDROOT
BRANCH   3   5
ATOM      5  C   UNL     1       4.007   3.521  18.192  0.00  0.00    +0.000 A 
ATOM      6  C   UNL     1       2.756   3.855  17.657  0.00  0.00    +0.000 A 
ATOM      7  C   UNL     1       1.576   3.768  18.406  0.00  0.00    +0.000 A 
ATOM      8  C   UNL     1       1.692   3.328  19.722  0.00  0.00    +0.000 A 
ATOM      9  N   UNL     1       0.754   3.126  20.697  0.00  0.00    +0.000 N 
ATOM     10  N   UNL     1       1.263   2.698  21.865  0.00  0.00    +0.000 NA
ATOM     11  C   UNL     1       2.574   2.623  21.621  0.00  0.00    +0.000 A 
ATOM     12  C   UNL     1       2.910   2.991  20.298  0.00  0.00    +0.000 A 
ATOM     13  C   UNL     1       4.089   3.080  19.526  0.00  0.00    +0.000 A 
ATOM     14  H   UNL     1      -0.250   3.262  20.628  0.00  0.00    +0.000 HD
ENDBRANCH   3   5
BRANCH   2  15
ATOM     15  C   UNL     1       7.332   4.428  16.552  0.00  0.00    +0.000 C 
BRANCH  15  16
ATOM     16  O   UNL     1       7.009   5.409  15.575  0.00  0.00    +0.000 OA
BRANCH  16  17
ATOM     17  C   UNL     1       7.072   5.002  14.268  0.00  0.00    +0.000 A 
ATOM     18  C   UNL     1       7.904   5.767  13.450  0.00  0.00    +0.000 A 
ATOM     19  C   UNL     1       8.049   5.460  12.094  0.00  0.00    +0.000 A 
ATOM     20  C   UNL     1       7.340   4.396  11.540  0.00  0.00    +0.000 A 
ATOM     21  C   UNL     1       6.475   3.634  12.337  0.00  0.00    +0.000 A 
ATOM     22  C   UNL     1       6.350   3.945  13.705  0.00  0.00    +0.000 A 
BRANCH  21  23
ATOM     23  C   UNL     1       5.672   2.500  11.745  0.00  0.00    +0.000 C 
ATOM     24  F   UNL     1       6.238   1.950  10.635  0.00  0.00    +0.000 F 
ATOM     25  F   UNL     1       5.501   1.473  12.624  0.00  0.00    +0.000 F 
ATOM     26  F   UNL     1       4.421   2.885  11.374  0.00  0.00    +0.000 F 
ENDBRANCH  21  23
ENDBRANCH  16  17
ENDBRANCH  15  16
ENDBRANCH   2  15
TORSDOF 5
ENDMDL
