MODEL 1
REMARK VINA RESULT:      -7.6      0.000      0.000
REMARK  Name = 
REMARK  0 active torsions:
REMARK  status: ('A' for Active; 'I' for Inactive)
REMARK                            x       y       z     vdW  Elec       q    Type
REMARK                         _______ _______ _______ _____ _____    ______ ____
ROOT
ATOM      1  O   UNL     1       5.908   4.287  19.942  0.00  0.00    +0.000 OA
ATOM      2  C   UNL     1       5.462   4.156  18.808  0.00  0.00    +0.000 C 
ATOM      3  N   UNL     1       5.988   4.718  17.647  0.00  0.00    +0.000 N 
ATOM      4  C   UNL     1       7.291   5.380  17.708  0.00  0.00    +0.000 C 
ATOM      5  C   UNL     1       7.166   6.892  17.474  0.00  0.00    +0.000 C 
ATOM      6  O   UNL     1       6.450   7.173  16.261  0.00  0.00    +0.000 OA
ATOM      7  C   UNL     1       5.132   6.611  16.309  0.00  0.00    +0.000 C 
ATOM      8  C   UNL     1       5.192   5.083  16.461  0.00  0.00    +0.000 C 
ATOM      9  N   UNL     1       4.276   3.432  18.620  0.00  0.00    +0.000 N 
ATOM     10  N   UNL     1       4.143   2.516  17.619  0.00  0.00    +0.000 NA
ATOM     11  N   UNL     1       2.915   2.017  17.683  0.00  0.00    +0.000 NA
ATOM     12  C   UNL     1       2.252   2.647  18.699  0.00  0.00    +0.000 A 
ATOM     13  C   UNL     1       0.922   2.539  19.128  0.00  0.00    +0.000 A 
ATOM     14  C   UNL     1       0.483   3.379  20.162  0.00  0.00    +0.000 A 
ATOM     15  C   UNL     1       1.351   4.290  20.764  0.00  0.00    +0.000 A 
ATOM     16  C   UNL     1       2.689   4.388  20.371  0.00  0.00    +0.000 A 
ATOM     17  C   UNL     1       3.096   3.546  19.330  0.00  0.00    +0.000 A 
ENDROOT
TORSDOF 0
ENDMDL
MODEL 2
REMARK VINA RESULT:      -7.2      2.296      5.423
REMARK  Name = 
REMARK  0 active torsions:
REMARK  status: ('A' for Active; 'I' for Inactive)
REMARK                            x       y       z     vdW  Elec       q    Type
REMARK                         _______ _______ _______ _____ _____    ______ ____
ROOT
ATOM      1  O   UNL     1       3.773   1.949  18.254  0.00  0.00    +0.000 OA
ATOM      2  C   UNL     1       4.068   2.996  18.819  0.00  0.00    +0.000 C 
ATOM      3  N   UNL     1       3.361   3.600  19.856  0.00  0.00    +0.000 N 
ATOM      4  C   UNL     1       2.262   2.867  20.484  0.00  0.00    +0.000 C 
ATOM      5  C   UNL     1       0.906   3.525  20.194  0.00  0.00    +0.000 C 
ATOM      6  O   UNL     1       0.921   4.920  20.539  0.00  0.00    +0.000 OA
ATOM      7  C   UNL     1       1.931   5.615  19.796  0.00  0.00    +0.000 C 
ATOM      8  C   UNL     1       3.326   5.052  20.109  0.00  0.00    +0.000 C 
ATOM      9  N   UNL     1       5.182   3.722  18.373  0.00  0.00    +0.000 N 
ATOM     10  N   UNL     1       6.090   4.253  19.241  0.00  0.00    +0.000 NA
ATOM     11  N   UNL     1       7.008   4.894  18.529  0.00  0.00    +0.000 NA
ATOM     12  C   UNL     1       6.661   4.807  17.210  0.00  0.00    +0.000 A 
ATOM     13  C   UNL     1       7.251   5.370  16.070  0.00  0.00    +0.000 A 
ATOM     14  C   UNL     1       6.626   5.179  14.829  0.00  0.00    +0.000 A 
ATOM     15  C   UNL     1       5.453   4.430  14.724  0.00  0.00    +0.000 A 
ATOM     16  C   UNL     1       4.869   3.834  15.846  0.00  0.00    +0.000 A 
ATOM     17  C   UNL     1       5.508   4.052  17.072  0.00  0.00    +0.000 A 
ENDROOT
TORSDOF 0
ENDMDL
MODEL 3
REMARK VINA RESULT:      -6.8      1.675      1.799
REMARK  Name = 
REMARK  0 active torsions:
REMARK  status: ('A' for Active; 'I' for Inactive)
REMARK                            x       y       z     vdW  Elec       q    Type
REMARK                         _______ _______ _______ _____ _____    ______ ____
ROOT
ATOM      1  O   UNL     1       4.610   6.370  19.463  0.00  0.00    +0.000 OA
ATOM      2  C   UNL     1       5.165   5.346  19.079  0.00  0.00    +0.000 C 
ATOM      3  N   UNL     1       6.366   5.272  18.379  0.00  0.00    +0.000 N 
ATOM      4  C   UNL     1       7.168   6.485  18.221  0.00  0.00    +0.000 C 
ATOM      5  C   UNL     1       7.220   6.941  16.757  0.00  0.00    +0.000 C 
ATOM      6  O   UNL     1       7.643   5.872  15.895  0.00  0.00    +0.000 OA
ATOM      7  C   UNL     1       6.745   4.758  15.992  0.00  0.00    +0.000 C 
ATOM      8  C   UNL     1       6.713   4.204  17.424  0.00  0.00    +0.000 C 
ATOM      9  N   UNL     1       4.536   4.110  19.289  0.00  0.00    +0.000 N 
ATOM     10  N   UNL     1       5.219   3.024  19.750  0.00  0.00    +0.000 NA
ATOM     11  N   UNL     1       4.368   2.008  19.825  0.00  0.00    +0.000 NA
ATOM     12  C   UNL     1       3.152   2.438  19.371  0.00  0.00    +0.000 A 
ATOM     13  C   UNL     1       1.951   1.742  19.180  0.00  0.00    +0.000 A 
ATOM     14  C   UNL     1       0.864   2.427  18.614  0.00  0.00    +0.000 A 
ATOM     15  C   UNL     1       0.967   3.774  18.267  0.00  0.00    +0.000 A 
ATOM     16  C   UNL     1       2.148   4.491  18.482  0.00  0.00    +0.000 A 
ATOM     17  C   UNL     1       3.218   3.780  19.036  0.00  0.00    +0.000 A 
ENDROOT
TORSDOF 0
ENDMDL
MODEL 4
REMARK VINA RESULT:      -6.8      2.052      2.792
REMARK  Name = 
REMARK  0 active torsions:
REMARK  status: ('A' for Active; 'I' for Inactive)
REMARK                            x       y       z     vdW  Elec       q    Type
REMARK                         _______ _______ _______ _____ _____    ______ ____
ROOT
ATOM      1  O   UNL     1       3.714   3.567  16.341  0.00  0.00    +0.000 OA
ATOM      2  C   UNL     1       3.950   4.652  16.859  0.00  0.00    +0.000 C 
ATOM      3  N   UNL     1       4.916   5.568  16.450  0.00  0.00    +0.000 N 
ATOM      4  C   UNL     1       5.613   5.342  15.183  0.00  0.00    +0.000 C 
ATOM      5  C   UNL     1       7.098   5.026  15.405  0.00  0.00    +0.000 C 
ATOM      6  O   UNL     1       7.726   6.029  16.221  0.00  0.00    +0.000 OA
ATOM      7  C   UNL     1       7.084   6.116  17.500  0.00  0.00    +0.000 C 
ATOM      8  C   UNL     1       5.608   6.511  17.347  0.00  0.00    +0.000 C 
ATOM      9  N   UNL     1       3.248   5.023  18.015  0.00  0.00    +0.000 N 
ATOM     10  N   UNL     1       2.727   6.274  18.171  0.00  0.00    +0.000 NA
ATOM     11  N   UNL     1       2.146   6.329  19.362  0.00  0.00    +0.000 NA
ATOM     12  C   UNL     1       2.334   5.126  19.983  0.00  0.00    +0.000 A 
ATOM     13  C   UNL     1       1.984   4.697  21.271  0.00  0.00    +0.000 A 
ATOM     14  C   UNL     1       2.380   3.415  21.680  0.00  0.00    +0.000 A 
ATOM     15  C   UNL     1       3.089   2.575  20.821  0.00  0.00    +0.000 A 
ATOM     16  C   UNL     1       3.417   2.974  19.522  0.00  0.00    +0.000 A 
ATOM     17  C   UNL     1       3.020   4.262  19.146  0.00  0.00    +0.000 A 
ENDROOT
TORSDOF 0
ENDMDL
MODEL 5
REMARK VINA RESULT:      -6.8      1.945      5.559
REMARK  Name = 
REMARK  0 active torsions:
REMARK  status: ('A' for Active; 'I' for Inactive)
REMARK                            x       y       z     vdW  Elec       q    Type
REMARK                         _______ _______ _______ _____ _____    ______ ____
ROOT
ATOM      1  O   UNL     1       3.987   2.469  17.600  0.00  0.00    +0.000 OA
ATOM      2  C   UNL     1       4.059   3.173  18.601  0.00  0.00    +0.000 C 
ATOM      3  N   UNL     1       3.149   3.201  19.655  0.00  0.00    +0.000 N 
ATOM      4  C   UNL     1       2.094   2.189  19.706  0.00  0.00    +0.000 C 
ATOM      5  C   UNL     1       0.707   2.809  19.493  0.00  0.00    +0.000 C 
ATOM      6  O   UNL     1       0.481   3.902  20.399  0.00  0.00    +0.000 OA
ATOM      7  C   UNL     1       1.469   4.924  20.215  0.00  0.00    +0.000 C 
ATOM      8  C   UNL     1       2.879   4.381  20.496  0.00  0.00    +0.000 C 
ATOM      9  N   UNL     1       5.107   4.098  18.711  0.00  0.00    +0.000 N 
ATOM     10  N   UNL     1       5.815   4.250  19.867  0.00  0.00    +0.000 NA
ATOM     11  N   UNL     1       6.716   5.204  19.671  0.00  0.00    +0.000 NA
ATOM     12  C   UNL     1       6.553   5.689  18.404  0.00  0.00    +0.000 A 
ATOM     13  C   UNL     1       7.197   6.741  17.738  0.00  0.00    +0.000 A 
ATOM     14  C   UNL     1       6.766   7.079  16.447  0.00  0.00    +0.000 A 
ATOM     15  C   UNL     1       5.733   6.374  15.828  0.00  0.00    +0.000 A 
ATOM     16  C   UNL     1       5.102   5.302  16.465  0.00  0.00    +0.000 A 
ATOM     17  C   UNL     1       5.545   4.995  17.756  0.00  0.00    +0.000 A 
ENDROOT
TORSDOF 0
ENDMDL
MODEL 6
REMARK VINA RESULT:      -6.7      1.783      2.054
REMARK  Name = 
REMARK  0 active torsions:
REMARK  status: ('A' for Active; 'I' for Inactive)
REMARK                            x       y       z     vdW  Elec       q    Type
REMARK                         _______ _______ _______ _____ _____    ______ ____
ROOT
ATOM      1  O   UNL     1       4.831   2.051  17.309  0.00  0.00    +0.000 OA
ATOM      2  C   UNL     1       4.281   3.134  17.143  0.00  0.00    +0.000 C 
ATOM      3  N   UNL     1       4.793   4.219  16.437  0.00  0.00    +0.000 N 
ATOM      4  C   UNL     1       6.013   4.039  15.650  0.00  0.00    +0.000 C 
ATOM      5  C   UNL     1       7.185   4.838  16.235  0.00  0.00    +0.000 C 
ATOM      6  O   UNL     1       6.832   6.220  16.417  0.00  0.00    +0.000 OA
ATOM      7  C   UNL     1       5.711   6.344  17.302  0.00  0.00    +0.000 C 
ATOM      8  C   UNL     1       4.478   5.630  16.728  0.00  0.00    +0.000 C 
ATOM      9  N   UNL     1       3.042   3.370  17.757  0.00  0.00    +0.000 N 
ATOM     10  N   UNL     1       2.008   3.956  17.090  0.00  0.00    +0.000 NA
ATOM     11  N   UNL     1       0.988   4.065  17.931  0.00  0.00    +0.000 NA
ATOM     12  C   UNL     1       1.387   3.585  19.148  0.00  0.00    +0.000 A 
ATOM     13  C   UNL     1       0.717   3.543  20.378  0.00  0.00    +0.000 A 
ATOM     14  C   UNL     1       1.409   3.063  21.500  0.00  0.00    +0.000 A 
ATOM     15  C   UNL     1       2.727   2.618  21.394  0.00  0.00    +0.000 A 
ATOM     16  C   UNL     1       3.399   2.623  20.168  0.00  0.00    +0.000 A 
ATOM     17  C   UNL     1       2.689   3.119  19.069  0.00  0.00    +0.000 A 
ENDROOT
TORSDOF 0
ENDMDL
MODEL 7
REMARK VINA RESULT:      -6.6      2.117      5.478
REMARK  Name = 
REMARK  0 active torsions:
REMARK  status: ('A' for Active; 'I' for Inactive)
REMARK                            x       y       z     vdW  Elec       q    Type
REMARK                         _______ _______ _______ _____ _____    ______ ____
ROOT
ATOM      1  O   UNL     1       5.234   3.510  19.658  0.00  0.00    +0.000 OA
ATOM      2  C   UNL     1       4.323   4.238  19.279  0.00  0.00    +0.000 C 
ATOM      3  N   UNL     1       3.020   4.250  19.770  0.00  0.00    +0.000 N 
ATOM      4  C   UNL     1       2.709   3.472  20.969  0.00  0.00    +0.000 C 
ATOM      5  C   UNL     1       1.769   2.301  20.654  0.00  0.00    +0.000 C 
ATOM      6  O   UNL     1       0.596   2.750  19.955  0.00  0.00    +0.000 OA
ATOM      7  C   UNL     1       0.954   3.390  18.723  0.00  0.00    +0.000 C 
ATOM      8  C   UNL     1       1.832   4.624  18.981  0.00  0.00    +0.000 C 
ATOM      9  N   UNL     1       4.551   5.115  18.209  0.00  0.00    +0.000 N 
ATOM     10  N   UNL     1       4.131   6.412  18.239  0.00  0.00    +0.000 NA
ATOM     11  N   UNL     1       4.469   6.978  17.088  0.00  0.00    +0.000 NA
ATOM     12  C   UNL     1       5.067   6.028  16.307  0.00  0.00    +0.000 A 
ATOM     13  C   UNL     1       5.535   6.093  14.987  0.00  0.00    +0.000 A 
ATOM     14  C   UNL     1       6.038   4.923  14.398  0.00  0.00    +0.000 A 
ATOM     15  C   UNL     1       6.091   3.725  15.112  0.00  0.00    +0.000 A 
ATOM     16  C   UNL     1       5.658   3.652  16.440  0.00  0.00    +0.000 A 
ATOM     17  C   UNL     1       5.150   4.831  16.997  0.00  0.00    +0.000 A 
ENDROOT
TORSDOF 0
ENDMDL
MODEL 8
REMARK VINA RESULT:      -6.4      1.907      5.676
REMARK  Name = 
REMARK  0 active torsions:
REMARK  status: ('A' for Active; 'I' for Inactive)
REMARK                            x       y       z     vdW  Elec       q    Type
REMARK                         _______ _______ _______ _____ _____    ______ ____
ROOT
ATOM      1  O   UNL     1       4.758   4.729  16.001  0.00  0.00    +0.000 OA
ATOM      2  C   UNL     1       4.871   4.555  17.209  0.00  0.00    +0.000 C 
ATOM      3  N   UNL     1       3.924   3.976  18.050  0.00  0.00    +0.000 N 
ATOM      4  C   UNL     1       2.748   3.337  17.458  0.00  0.00    +0.000 C 
ATOM      5  C   UNL     1       1.462   4.104  17.791  0.00  0.00    +0.000 C 
ATOM      6  O   UNL     1       1.334   4.315  19.206  0.00  0.00    +0.000 OA
ATOM      7  C   UNL     1       2.450   5.060  19.711  0.00  0.00    +0.000 C 
ATOM      8  C   UNL     1       3.765   4.301  19.479  0.00  0.00    +0.000 C 
ATOM      9  N   UNL     1       6.021   5.023  17.861  0.00  0.00    +0.000 N 
ATOM     10  N   UNL     1       6.687   4.265  18.778  0.00  0.00    +0.000 NA
ATOM     11  N   UNL     1       7.710   4.979  19.232  0.00  0.00    +0.000 NA
ATOM     12  C   UNL     1       7.669   6.208  18.635  0.00  0.00    +0.000 A 
ATOM     13  C   UNL     1       8.470   7.342  18.822  0.00  0.00    +0.000 A 
ATOM     14  C   UNL     1       8.146   8.514  18.122  0.00  0.00    +0.000 A 
ATOM     15  C   UNL     1       7.063   8.548  17.243  0.00  0.00    +0.000 A 
ATOM     16  C   UNL     1       6.273   7.416  17.020  0.00  0.00    +0.000 A 
ATOM     17  C   UNL     1       6.613   6.266  17.741  0.00  0.00    +0.000 A 
ENDROOT
TORSDOF 0
ENDMDL
MODEL 9
REMARK VINA RESULT:      -6.4      1.926      5.622
REMARK  Name = 
REMARK  0 active torsions:
REMARK  status: ('A' for Active; 'I' for Inactive)
REMARK                            x       y       z     vdW  Elec       q    Type
REMARK                         _______ _______ _______ _____ _____    ______ ____
ROOT
ATOM      1  O   UNL     1       4.517   3.504  16.950  0.00  0.00    +0.000 OA
ATOM      2  C   UNL     1       4.566   3.845  18.126  0.00  0.00    +0.000 C 
ATOM      3  N   UNL     1       3.584   3.627  19.089  0.00  0.00    +0.000 N 
ATOM      4  C   UNL     1       2.454   2.758  18.763  0.00  0.00    +0.000 C 
ATOM      5  C   UNL     1       1.139   3.545  18.695  0.00  0.00    +0.000 C 
ATOM      6  O   UNL     1       0.930   4.312  19.892  0.00  0.00    +0.000 OA
ATOM      7  C   UNL     1       2.004   5.240  20.092  0.00  0.00    +0.000 C 
ATOM      8  C   UNL     1       3.343   4.503  20.250  0.00  0.00    +0.000 C 
ATOM      9  N   UNL     1       5.671   4.583  18.576  0.00  0.00    +0.000 N 
ATOM     10  N   UNL     1       6.299   4.294  19.751  0.00  0.00    +0.000 NA
ATOM     11  N   UNL     1       7.283   5.169  19.915  0.00  0.00    +0.000 NA
ATOM     12  C   UNL     1       7.254   6.043  18.864  0.00  0.00    +0.000 A 
ATOM     13  C   UNL     1       8.025   7.184  18.602  0.00  0.00    +0.000 A 
ATOM     14  C   UNL     1       7.719   7.952  17.469  0.00  0.00    +0.000 A 
ATOM     15  C   UNL     1       6.685   7.582  16.609  0.00  0.00    +0.000 A 
ATOM     16  C   UNL     1       5.928   6.429  16.837  0.00  0.00    +0.000 A 
ATOM     17  C   UNL     1       6.247   5.689  17.981  0.00  0.00    +0.000 A 
ENDROOT
TORSDOF 0
ENDMDL
