MODEL 1
REMARK VINA RESULT:      -8.0      0.000      0.000
REMARK  Name = 
REMARK  8 active torsions:
REMARK  status: ('A' for Active; 'I' for Inactive)
REMARK    1  A    between atoms: C_1  and  C_2
REMARK    2  A    between atoms: C_2  and  C_3
REMARK    3  A    between atoms: C_2  and  C_5
REMARK    4  A    between atoms: C_2  and  N_7
REMARK    5  A    between atoms: C_3  and  O_4
REMARK    6  A    between atoms: C_5  and  O_6
REMARK    7  A    between atoms: N_7  and  C_8
REMARK    8  A    between atoms: C_8  and  C_9
REMARK                            x       y       z     vdW  Elec       q    Type
REMARK                         _______ _______ _______ _____ _____    ______ ____
ROOT
ATOM      1  C   UNL     1       5.664   4.690  15.572  0.00  0.00    +0.000 A 
ATOM      2  C   UNL     1       4.927   3.721  16.295  0.00  0.00    +0.000 A 
ATOM      3  C   UNL     1       3.954   4.143  17.181  0.00  0.00    +0.000 A 
ATOM      4  C   UNL     1       3.745   5.501  17.362  0.00  0.00    +0.000 A 
ATOM      5  C   UNL     1       2.724   5.713  18.277  0.00  0.00    +0.000 A 
ATOM      6  C   UNL     1       2.363   7.010  18.590  0.00  0.00    +0.000 A 
ATOM      7  C   UNL     1       3.050   8.068  17.968  0.00  0.00    +0.000 A 
ATOM      8  C   UNL     1       4.081   7.828  17.033  0.00  0.00    +0.000 A 
ATOM      9  C   UNL     1       4.449   6.507  16.705  0.00  0.00    +0.000 A 
ATOM     10  C   UNL     1       5.428   6.074  15.791  0.00  0.00    +0.000 A 
ATOM     11  C   UNL     1       2.236   4.410  18.708  0.00  0.00    +0.000 A 
ATOM     12  C   UNL     1       1.229   4.041  19.576  0.00  0.00    +0.000 A 
ATOM     13  C   UNL     1       0.985   2.677  19.756  0.00  0.00    +0.000 A 
ATOM     14  C   UNL     1       1.749   1.707  19.079  0.00  0.00    +0.000 A 
ATOM     15  C   UNL     1       2.772   2.078  18.203  0.00  0.00    +0.000 A 
ATOM     16  C   UNL     1       3.006   3.428  18.024  0.00  0.00    +0.000 A 
ENDROOT
BRANCH   1  17
ATOM     17  C   UNL     1       6.717   4.256  14.575  0.00  0.00    +0.000 C 
BRANCH  17  18
ATOM     18  N   UNL     1       6.240   3.153  13.743  0.00  0.00    +0.000 NA
ATOM     19  H   UNL     1       6.772   2.307  13.925  0.00  0.00    +0.000 HD
BRANCH  18  21
ATOM     20  C   UNL     1       7.116   4.628  12.055  0.00  0.00    +0.000 C 
ATOM     21  C   UNL     1       6.167   3.430  12.288  0.00  0.00    +0.000 C 
BRANCH  21  22
ATOM     22  C   UNL     1       4.740   3.837  11.822  0.00  0.00    +0.000 C 
BRANCH  22  23
ATOM     23  O   UNL     1       4.131   2.827  11.019  0.00  0.00    +0.000 OA
ATOM     24  H   UNL     1       4.768   2.599  10.322  0.00  0.00    +0.000 HD
ENDBRANCH  22  23
ENDBRANCH  21  22
BRANCH  21  25
ATOM     25  C   UNL     1       6.631   2.220  11.422  0.00  0.00    +0.000 C 
BRANCH  25  26
ATOM     26  O   UNL     1       5.960   0.995  11.717  0.00  0.00    +0.000 OA
ATOM     27  H   UNL     1       5.759   0.986  12.667  0.00  0.00    +0.000 HD
ENDBRANCH  25  26
ENDBRANCH  21  25
ENDBRANCH  18  21
ENDBRANCH  17  18
ENDBRANCH   1  17
TORSDOF 7
ENDMDL
MODEL 2
REMARK VINA RESULT:      -7.9      5.239      8.554
REMARK  Name = 
REMARK  8 active torsions:
REMARK  status: ('A' for Active; 'I' for Inactive)
REMARK    1  A    between atoms: C_1  and  C_2
REMARK    2  A    between atoms: C_2  and  C_3
REMARK    3  A    between atoms: C_2  and  C_5
REMARK    4  A    between atoms: C_2  and  N_7
REMARK    5  A    between atoms: C_3  and  O_4
REMARK    6  A    between atoms: C_5  and  O_6
REMARK    7  A    between atoms: N_7  and  C_8
REMARK    8  A    between atoms: C_8  and  C_9
REMARK                            x       y       z     vdW  Elec       q    Type
REMARK                         _______ _______ _______ _____ _____    ______ ____
ROOT
ATOM      1  C   UNL     1       1.646   6.593  20.412  0.00  0.00    +0.000 A 
ATOM      2  C   UNL     1       2.602   6.867  19.405  0.00  0.00    +0.000 A 
ATOM      3  C   UNL     1       3.063   5.828  18.618  0.00  0.00    +0.000 A 
ATOM      4  C   UNL     1       2.599   4.543  18.853  0.00  0.00    +0.000 A 
ATOM      5  C   UNL     1       3.170   3.654  17.954  0.00  0.00    +0.000 A 
ATOM      6  C   UNL     1       2.828   2.316  18.026  0.00  0.00    +0.000 A 
ATOM      7  C   UNL     1       1.915   1.908  19.015  0.00  0.00    +0.000 A 
ATOM      8  C   UNL     1       1.340   2.833  19.914  0.00  0.00    +0.000 A 
ATOM      9  C   UNL     1       1.680   4.199  19.842  0.00  0.00    +0.000 A 
ATOM     10  C   UNL     1       1.200   5.262  20.630  0.00  0.00    +0.000 A 
ATOM     11  C   UNL     1       4.049   4.413  17.076  0.00  0.00    +0.000 A 
ATOM     12  C   UNL     1       4.834   4.038  16.005  0.00  0.00    +0.000 A 
ATOM     13  C   UNL     1       5.554   5.033  15.339  0.00  0.00    +0.000 A 
ATOM     14  C   UNL     1       5.488   6.377  15.753  0.00  0.00    +0.000 A 
ATOM     15  C   UNL     1       4.698   6.759  16.840  0.00  0.00    +0.000 A 
ATOM     16  C   UNL     1       3.984   5.773  17.492  0.00  0.00    +0.000 A 
ENDROOT
BRANCH   1  17
ATOM     17  C   UNL     1       1.104   7.716  21.271  0.00  0.00    +0.000 C 
BRANCH  17  18
ATOM     18  N   UNL     1       1.405   9.024  20.690  0.00  0.00    +0.000 NA
ATOM     19  H   UNL     1       2.324   9.346  20.982  0.00  0.00    +0.000 HD
BRANCH  18  21
ATOM     20  C   UNL     1      -0.572   9.969  19.694  0.00  0.00    +0.000 C 
ATOM     21  C   UNL     1       0.381  10.074  20.906  0.00  0.00    +0.000 C 
BRANCH  21  22
ATOM     22  C   UNL     1       0.985  11.508  20.932  0.00  0.00    +0.000 C 
BRANCH  22  23
ATOM     23  O   UNL     1       0.295  12.363  21.842  0.00  0.00    +0.000 OA
ATOM     24  H   UNL     1       0.267  13.243  21.435  0.00  0.00    +0.000 HD
ENDBRANCH  22  23
ENDBRANCH  21  22
BRANCH  21  25
ATOM     25  C   UNL     1      -0.425   9.866  22.224  0.00  0.00    +0.000 C 
BRANCH  25  26
ATOM     26  O   UNL     1       0.345  10.032  23.415  0.00  0.00    +0.000 OA
ATOM     27  H   UNL     1       0.051   9.363  24.056  0.00  0.00    +0.000 HD
ENDBRANCH  25  26
ENDBRANCH  21  25
ENDBRANCH  18  21
ENDBRANCH  17  18
ENDBRANCH   1  17
TORSDOF 7
ENDMDL
MODEL 3
REMARK VINA RESULT:      -7.9      4.564      7.270
REMARK  Name = 
REMARK  8 active torsions:
REMARK  status: ('A' for Active; 'I' for Inactive)
REMARK    1  A    between atoms: C_1  and  C_2
REMARK    2  A    between atoms: C_2  and  C_3
REMARK    3  A    between atoms: C_2  and  C_5
REMARK    4  A    between atoms: C_2  and  N_7
REMARK    5  A    between atoms: C_3  and  O_4
REMARK    6  A    between atoms: C_5  and  O_6
REMARK    7  A    between atoms: N_7  and  C_8
REMARK    8  A    between atoms: C_8  and  C_9
REMARK                            x       y       z     vdW  Elec       q    Type
REMARK                         _______ _______ _______ _____ _____    ______ ____
ROOT
ATOM      1  C   UNL     1       2.369   8.383  18.315  0.00  0.00    +0.000 A 
ATOM      2  C   UNL     1       1.826   7.285  19.024  0.00  0.00    +0.000 A 
ATOM      3  C   UNL     1       2.354   6.024  18.815  0.00  0.00    +0.000 A 
ATOM      4  C   UNL     1       3.380   5.863  17.898  0.00  0.00    +0.000 A 
ATOM      5  C   UNL     1       3.774   4.535  17.846  0.00  0.00    +0.000 A 
ATOM      6  C   UNL     1       4.795   4.171  16.987  0.00  0.00    +0.000 A 
ATOM      7  C   UNL     1       5.392   5.167  16.193  0.00  0.00    +0.000 A 
ATOM      8  C   UNL     1       4.979   6.515  16.269  0.00  0.00    +0.000 A 
ATOM      9  C   UNL     1       3.944   6.893  17.148  0.00  0.00    +0.000 A 
ATOM     10  C   UNL     1       3.415   8.178  17.375  0.00  0.00    +0.000 A 
ATOM     11  C   UNL     1       2.959   3.791  18.797  0.00  0.00    +0.000 A 
ATOM     12  C   UNL     1       2.947   2.461  19.163  0.00  0.00    +0.000 A 
ATOM     13  C   UNL     1       2.042   2.060  20.149  0.00  0.00    +0.000 A 
ATOM     14  C   UNL     1       1.162   2.983  20.745  0.00  0.00    +0.000 A 
ATOM     15  C   UNL     1       1.168   4.330  20.374  0.00  0.00    +0.000 A 
ATOM     16  C   UNL     1       2.069   4.722  19.402  0.00  0.00    +0.000 A 
ENDROOT
BRANCH   1  17
ATOM     17  C   UNL     1       1.828   9.777  18.543  0.00  0.00    +0.000 C 
BRANCH  17  18
ATOM     18  N   UNL     1       0.611  10.011  17.768  0.00  0.00    +0.000 NA
ATOM     19  H   UNL     1       0.818  10.526  16.917  0.00  0.00    +0.000 HD
BRANCH  18  21
ATOM     20  C   UNL     1      -0.429  10.060  19.938  0.00  0.00    +0.000 C 
ATOM     21  C   UNL     1      -0.512  10.637  18.506  0.00  0.00    +0.000 C 
BRANCH  21  22
ATOM     22  C   UNL     1      -1.902  10.275  17.910  0.00  0.00    +0.000 C 
BRANCH  22  23
ATOM     23  O   UNL     1      -1.906  10.338  16.485  0.00  0.00    +0.000 OA
ATOM     24  H   UNL     1      -1.697   9.446  16.162  0.00  0.00    +0.000 HD
ENDBRANCH  22  23
ENDBRANCH  21  22
BRANCH  21  25
ATOM     25  C   UNL     1      -0.401  12.191  18.563  0.00  0.00    +0.000 C 
BRANCH  25  26
ATOM     26  O   UNL     1      -1.020  12.864  17.466  0.00  0.00    +0.000 OA
ATOM     27  H   UNL     1      -0.562  13.711  17.338  0.00  0.00    +0.000 HD
ENDBRANCH  25  26
ENDBRANCH  21  25
ENDBRANCH  18  21
ENDBRANCH  17  18
ENDBRANCH   1  17
TORSDOF 7
ENDMDL
MODEL 4
REMARK VINA RESULT:      -7.8      4.374      7.786
REMARK  Name = 
REMARK  8 active torsions:
REMARK  status: ('A' for Active; 'I' for Inactive)
REMARK    1  A    between atoms: C_1  and  C_2
REMARK    2  A    between atoms: C_2  and  C_3
REMARK    3  A    between atoms: C_2  and  C_5
REMARK    4  A    between atoms: C_2  and  N_7
REMARK    5  A    between atoms: C_3  and  O_4
REMARK    6  A    between atoms: C_5  and  O_6
REMARK    7  A    between atoms: N_7  and  C_8
REMARK    8  A    between atoms: C_8  and  C_9
REMARK                            x       y       z     vdW  Elec       q    Type
REMARK                         _______ _______ _______ _____ _____    ______ ____
ROOT
ATOM      1  C   UNL     1       1.735   7.551  20.145  0.00  0.00    +0.000 A 
ATOM      2  C   UNL     1       2.651   7.496  19.066  0.00  0.00    +0.000 A 
ATOM      3  C   UNL     1       3.074   6.261  18.609  0.00  0.00    +0.000 A 
ATOM      4  C   UNL     1       2.615   5.113  19.234  0.00  0.00    +0.000 A 
ATOM      5  C   UNL     1       3.144   3.988  18.621  0.00  0.00    +0.000 A 
ATOM      6  C   UNL     1       2.800   2.737  19.102  0.00  0.00    +0.000 A 
ATOM      7  C   UNL     1       1.926   2.658  20.201  0.00  0.00    +0.000 A 
ATOM      8  C   UNL     1       1.393   3.818  20.805  0.00  0.00    +0.000 A 
ATOM      9  C   UNL     1       1.736   5.094  20.315  0.00  0.00    +0.000 A 
ATOM     10  C   UNL     1       1.294   6.352  20.768  0.00  0.00    +0.000 A 
ATOM     11  C   UNL     1       3.990   4.435  17.523  0.00  0.00    +0.000 A 
ATOM     12  C   UNL     1       4.729   3.744  16.585  0.00  0.00    +0.000 A 
ATOM     13  C   UNL     1       5.425   4.484  15.625  0.00  0.00    +0.000 A 
ATOM     14  C   UNL     1       5.382   5.891  15.621  0.00  0.00    +0.000 A 
ATOM     15  C   UNL     1       4.639   6.593  16.573  0.00  0.00    +0.000 A 
ATOM     16  C   UNL     1       3.948   5.858  17.517  0.00  0.00    +0.000 A 
ENDROOT
BRANCH   1  17
ATOM     17  C   UNL     1       1.235   8.887  20.649  0.00  0.00    +0.000 C 
BRANCH  17  18
ATOM     18  N   UNL     1       0.355   9.529  19.673  0.00  0.00    +0.000 NA
ATOM     19  H   UNL     1       0.346   9.009  18.799  0.00  0.00    +0.000 HD
BRANCH  18  21
ATOM     20  C   UNL     1       0.873  11.576  20.827  0.00  0.00    +0.000 C 
ATOM     21  C   UNL     1       0.607  10.969  19.430  0.00  0.00    +0.000 C 
BRANCH  21  22
ATOM     22  C   UNL     1      -0.616  11.698  18.803  0.00  0.00    +0.000 C 
BRANCH  22  23
ATOM     23  O   UNL     1      -1.048  11.075  17.594  0.00  0.00    +0.000 OA
ATOM     24  H   UNL     1      -1.995  11.267  17.501  0.00  0.00    +0.000 HD
ENDBRANCH  22  23
ENDBRANCH  21  22
BRANCH  21  25
ATOM     25  C   UNL     1       1.840  11.218  18.509  0.00  0.00    +0.000 C 
BRANCH  25  26
ATOM     26  O   UNL     1       1.894  10.372  17.360  0.00  0.00    +0.000 OA
ATOM     27  H   UNL     1       2.588   9.709  17.509  0.00  0.00    +0.000 HD
ENDBRANCH  25  26
ENDBRANCH  21  25
ENDBRANCH  18  21
ENDBRANCH  17  18
ENDBRANCH   1  17
TORSDOF 7
ENDMDL
MODEL 5
REMARK VINA RESULT:      -7.8      4.914      7.996
REMARK  Name = 
REMARK  8 active torsions:
REMARK  status: ('A' for Active; 'I' for Inactive)
REMARK    1  A    between atoms: C_1  and  C_2
REMARK    2  A    between atoms: C_2  and  C_3
REMARK    3  A    between atoms: C_2  and  C_5
REMARK    4  A    between atoms: C_2  and  N_7
REMARK    5  A    between atoms: C_3  and  O_4
REMARK    6  A    between atoms: C_5  and  O_6
REMARK    7  A    between atoms: N_7  and  C_8
REMARK    8  A    between atoms: C_8  and  C_9
REMARK                            x       y       z     vdW  Elec       q    Type
REMARK                         _______ _______ _______ _____ _____    ______ ____
ROOT
ATOM      1  C   UNL     1       2.063   8.495  18.845  0.00  0.00    +0.000 A 
ATOM      2  C   UNL     1       2.975   8.089  17.841  0.00  0.00    +0.000 A 
ATOM      3  C   UNL     1       3.450   6.791  17.852  0.00  0.00    +0.000 A 
ATOM      4  C   UNL     1       3.044   5.930  18.858  0.00  0.00    +0.000 A 
ATOM      5  C   UNL     1       3.619   4.680  18.683  0.00  0.00    +0.000 A 
ATOM      6  C   UNL     1       3.332   3.676  19.589  0.00  0.00    +0.000 A 
ATOM      7  C   UNL     1       2.467   3.965  20.660  0.00  0.00    +0.000 A 
ATOM      8  C   UNL     1       1.887   5.243  20.815  0.00  0.00    +0.000 A 
ATOM      9  C   UNL     1       2.171   6.268  19.890  0.00  0.00    +0.000 A 
ATOM     10  C   UNL     1       1.677   7.586  19.867  0.00  0.00    +0.000 A 
ATOM     11  C   UNL     1       4.440   4.733  17.481  0.00  0.00    +0.000 A 
ATOM     12  C   UNL     1       5.204   3.779  16.840  0.00  0.00    +0.000 A 
ATOM     13  C   UNL     1       5.862   4.148  15.664  0.00  0.00    +0.000 A 
ATOM     14  C   UNL     1       5.759   5.456  15.154  0.00  0.00    +0.000 A 
ATOM     15  C   UNL     1       4.990   6.425  15.803  0.00  0.00    +0.000 A 
ATOM     16  C   UNL     1       4.336   6.054  16.962  0.00  0.00    +0.000 A 
ENDROOT
BRANCH   1  17
ATOM     17  C   UNL     1       1.507   9.902  18.843  0.00  0.00    +0.000 C 
BRANCH  17  18
ATOM     18  N   UNL     1       0.476  10.066  17.819  0.00  0.00    +0.000 NA
ATOM     19  H   UNL     1       0.866  10.480  16.977  0.00  0.00    +0.000 HD
BRANCH  18  21
ATOM     20  C   UNL     1      -1.090  10.213  19.640  0.00  0.00    +0.000 C 
ATOM     21  C   UNL     1      -0.746  10.788  18.247  0.00  0.00    +0.000 C 
BRANCH  21  22
ATOM     22  C   UNL     1      -1.956  10.538  17.300  0.00  0.00    +0.000 C 
BRANCH  22  23
ATOM     23  O   UNL     1      -2.148  11.614  16.384  0.00  0.00    +0.000 OA
ATOM     24  H   UNL     1      -3.062  11.549  16.061  0.00  0.00    +0.000 HD
ENDBRANCH  22  23
ENDBRANCH  21  22
BRANCH  21  25
ATOM     25  C   UNL     1      -0.528  12.328  18.356  0.00  0.00    +0.000 C 
BRANCH  25  26
ATOM     26  O   UNL     1      -1.644  13.042  18.889  0.00  0.00    +0.000 OA
ATOM     27  H   UNL     1      -1.471  13.208  19.830  0.00  0.00    +0.000 HD
ENDBRANCH  25  26
ENDBRANCH  21  25
ENDBRANCH  18  21
ENDBRANCH  17  18
ENDBRANCH   1  17
TORSDOF 7
ENDMDL
MODEL 6
REMARK VINA RESULT:      -7.7      4.824      8.249
REMARK  Name = 
REMARK  8 active torsions:
REMARK  status: ('A' for Active; 'I' for Inactive)
REMARK    1  A    between atoms: C_1  and  C_2
REMARK    2  A    between atoms: C_2  and  C_3
REMARK    3  A    between atoms: C_2  and  C_5
REMARK    4  A    between atoms: C_2  and  N_7
REMARK    5  A    between atoms: C_3  and  O_4
REMARK    6  A    between atoms: C_5  and  O_6
REMARK    7  A    between atoms: N_7  and  C_8
REMARK    8  A    between atoms: C_8  and  C_9
REMARK                            x       y       z     vdW  Elec       q    Type
REMARK                         _______ _______ _______ _____ _____    ______ ____
ROOT
ATOM      1  C   UNL     1       1.800   6.843  20.252  0.00  0.00    +0.000 A 
ATOM      2  C   UNL     1       2.743   6.986  19.205  0.00  0.00    +0.000 A 
ATOM      3  C   UNL     1       3.153   5.861  18.515  0.00  0.00    +0.000 A 
ATOM      4  C   UNL     1       2.655   4.621  18.881  0.00  0.00    +0.000 A 
ATOM      5  C   UNL     1       3.177   3.631  18.063  0.00  0.00    +0.000 A 
ATOM      6  C   UNL     1       2.795   2.318  18.270  0.00  0.00    +0.000 A 
ATOM      7  C   UNL     1       1.891   2.038  19.310  0.00  0.00    +0.000 A 
ATOM      8  C   UNL     1       1.366   3.064  20.126  0.00  0.00    +0.000 A 
ATOM      9  C   UNL     1       1.747   4.404  19.916  0.00  0.00    +0.000 A 
ATOM     10  C   UNL     1       1.318   5.554  20.606  0.00  0.00    +0.000 A 
ATOM     11  C   UNL     1       4.061   4.272  17.099  0.00  0.00    +0.000 A 
ATOM     12  C   UNL     1       4.810   3.769  16.055  0.00  0.00    +0.000 A 
ATOM     13  C   UNL     1       5.546   4.671  15.282  0.00  0.00    +0.000 A 
ATOM     14  C   UNL     1       5.532   6.050  15.565  0.00  0.00    +0.000 A 
ATOM     15  C   UNL     1       4.778   6.562  16.625  0.00  0.00    +0.000 A 
ATOM     16  C   UNL     1       4.048   5.667  17.382  0.00  0.00    +0.000 A 
ENDROOT
BRANCH   1  17
ATOM     17  C   UNL     1       1.313   8.060  21.007  0.00  0.00    +0.000 C 
BRANCH  17  18
ATOM     18  N   UNL     1       1.275   9.241  20.147  0.00  0.00    +0.000 NA
ATOM     19  H   UNL     1       2.197   9.661  20.068  0.00  0.00    +0.000 HD
BRANCH  18  21
ATOM     20  C   UNL     1       1.048  11.575  20.686  0.00  0.00    +0.000 C 
ATOM     21  C   UNL     1       0.257  10.261  20.498  0.00  0.00    +0.000 C 
BRANCH  21  22
ATOM     22  C   UNL     1      -0.485   9.939  21.827  0.00  0.00    +0.000 C 
BRANCH  22  23
ATOM     23  O   UNL     1       0.023  10.702  22.921  0.00  0.00    +0.000 OA
ATOM     24  H   UNL     1      -0.700  11.276  23.223  0.00  0.00    +0.000 HD
ENDBRANCH  22  23
ENDBRANCH  21  22
BRANCH  21  25
ATOM     25  C   UNL     1      -0.814  10.451  19.381  0.00  0.00    +0.000 C 
BRANCH  25  26
ATOM     26  O   UNL     1      -0.299  10.362  18.052  0.00  0.00    +0.000 OA
ATOM     27  H   UNL     1      -1.052  10.290  17.444  0.00  0.00    +0.000 HD
ENDBRANCH  25  26
ENDBRANCH  21  25
ENDBRANCH  18  21
ENDBRANCH  17  18
ENDBRANCH   1  17
TORSDOF 7
ENDMDL
MODEL 7
REMARK VINA RESULT:      -7.7      4.273      7.699
REMARK  Name = 
REMARK  8 active torsions:
REMARK  status: ('A' for Active; 'I' for Inactive)
REMARK    1  A    between atoms: C_1  and  C_2
REMARK    2  A    between atoms: C_2  and  C_3
REMARK    3  A    between atoms: C_2  and  C_5
REMARK    4  A    between atoms: C_2  and  N_7
REMARK    5  A    between atoms: C_3  and  O_4
REMARK    6  A    between atoms: C_5  and  O_6
REMARK    7  A    between atoms: N_7  and  C_8
REMARK    8  A    between atoms: C_8  and  C_9
REMARK                            x       y       z     vdW  Elec       q    Type
REMARK                         _______ _______ _______ _____ _____    ______ ____
ROOT
ATOM      1  C   UNL     1       2.254   6.810  19.531  0.00  0.00    +0.000 A 
ATOM      2  C   UNL     1       3.192   6.853  18.471  0.00  0.00    +0.000 A 
ATOM      3  C   UNL     1       3.645   5.664  17.929  0.00  0.00    +0.000 A 
ATOM      4  C   UNL     1       3.194   4.464  18.455  0.00  0.00    +0.000 A 
ATOM      5  C   UNL     1       3.755   3.397  17.769  0.00  0.00    +0.000 A 
ATOM      6  C   UNL     1       3.423   2.109  18.146  0.00  0.00    +0.000 A 
ATOM      7  C   UNL     1       2.529   1.931  19.217  0.00  0.00    +0.000 A 
ATOM      8  C   UNL     1       1.964   3.033  19.896  0.00  0.00    +0.000 A 
ATOM      9  C   UNL     1       2.294   4.349  19.512  0.00  0.00    +0.000 A 
ATOM     10  C   UNL     1       1.821   5.561  20.051  0.00  0.00    +0.000 A 
ATOM     11  C   UNL     1       4.615   3.942  16.727  0.00  0.00    +0.000 A 
ATOM     12  C   UNL     1       5.383   3.336  15.754  0.00  0.00    +0.000 A 
ATOM     13  C   UNL     1       6.085   4.159  14.868  0.00  0.00    +0.000 A 
ATOM     14  C   UNL     1       6.019   5.561  14.971  0.00  0.00    +0.000 A 
ATOM     15  C   UNL     1       5.245   6.176  15.958  0.00  0.00    +0.000 A 
ATOM     16  C   UNL     1       4.548   5.359  16.828  0.00  0.00    +0.000 A 
ENDROOT
BRANCH   1  17
ATOM     17  C   UNL     1       1.721   8.096  20.125  0.00  0.00    +0.000 C 
BRANCH  17  18
ATOM     18  N   UNL     1       1.448   9.089  19.087  0.00  0.00    +0.000 NA
ATOM     19  H   UNL     1       2.304   9.357  18.610  0.00  0.00    +0.000 HD
BRANCH  18  21
ATOM     20  C   UNL     1       0.635  10.189  21.067  0.00  0.00    +0.000 C 
ATOM     21  C   UNL     1       0.688  10.285  19.525  0.00  0.00    +0.000 C 
BRANCH  21  22
ATOM     22  C   UNL     1      -0.770  10.305  18.983  0.00  0.00    +0.000 C 
BRANCH  22  23
ATOM     23  O   UNL     1      -0.819  10.618  17.592  0.00  0.00    +0.000 OA
ATOM     24  H   UNL     1      -1.623  10.204  17.239  0.00  0.00    +0.000 HD
ENDBRANCH  22  23
ENDBRANCH  21  22
BRANCH  21  25
ATOM     25  C   UNL     1       1.377  11.620  19.108  0.00  0.00    +0.000 C 
BRANCH  25  26
ATOM     26  O   UNL     1       2.075  11.557  17.864  0.00  0.00    +0.000 OA
ATOM     27  H   UNL     1       1.632  12.156  17.242  0.00  0.00    +0.000 HD
ENDBRANCH  25  26
ENDBRANCH  21  25
ENDBRANCH  18  21
ENDBRANCH  17  18
ENDBRANCH   1  17
TORSDOF 7
ENDMDL
MODEL 8
REMARK VINA RESULT:      -7.6      4.996      7.421
REMARK  Name = 
REMARK  8 active torsions:
REMARK  status: ('A' for Active; 'I' for Inactive)
REMARK    1  A    between atoms: C_1  and  C_2
REMARK    2  A    between atoms: C_2  and  C_3
REMARK    3  A    between atoms: C_2  and  C_5
REMARK    4  A    between atoms: C_2  and  N_7
REMARK    5  A    between atoms: C_3  and  O_4
REMARK    6  A    between atoms: C_5  and  O_6
REMARK    7  A    between atoms: N_7  and  C_8
REMARK    8  A    between atoms: C_8  and  C_9
REMARK                            x       y       z     vdW  Elec       q    Type
REMARK                         _______ _______ _______ _____ _____    ______ ____
ROOT
ATOM      1  C   UNL     1       2.433   8.387  18.138  0.00  0.00    +0.000 A 
ATOM      2  C   UNL     1       1.880   7.352  18.929  0.00  0.00    +0.000 A 
ATOM      3  C   UNL     1       2.407   6.077  18.828  0.00  0.00    +0.000 A 
ATOM      4  C   UNL     1       3.441   5.840  17.938  0.00  0.00    +0.000 A 
ATOM      5  C   UNL     1       3.833   4.511  17.997  0.00  0.00    +0.000 A 
ATOM      6  C   UNL     1       4.860   4.077  17.180  0.00  0.00    +0.000 A 
ATOM      7  C   UNL     1       5.468   5.004  16.314  0.00  0.00    +0.000 A 
ATOM      8  C   UNL     1       5.058   6.355  16.276  0.00  0.00    +0.000 A 
ATOM      9  C   UNL     1       4.015   6.805  17.111  0.00  0.00    +0.000 A 
ATOM     10  C   UNL     1       3.487   8.105  17.228  0.00  0.00    +0.000 A 
ATOM     11  C   UNL     1       3.006   3.849  18.998  0.00  0.00    +0.000 A 
ATOM     12  C   UNL     1       2.988   2.553  19.470  0.00  0.00    +0.000 A 
ATOM     13  C   UNL     1       2.072   2.235  20.477  0.00  0.00    +0.000 A 
ATOM     14  C   UNL     1       1.188   3.205  20.987  0.00  0.00    +0.000 A 
ATOM     15  C   UNL     1       1.202   4.517  20.508  0.00  0.00    +0.000 A 
ATOM     16  C   UNL     1       2.113   4.828  19.516  0.00  0.00    +0.000 A 
ENDROOT
BRANCH   1  17
ATOM     17  C   UNL     1       1.894   9.797  18.247  0.00  0.00    +0.000 C 
BRANCH  17  18
ATOM     18  N   UNL     1       0.512   9.877  17.777  0.00  0.00    +0.000 NA
ATOM     19  H   UNL     1       0.475  10.231  16.824  0.00  0.00    +0.000 HD
BRANCH  18  21
ATOM     20  C   UNL     1      -1.837  10.202  18.184  0.00  0.00    +0.000 C 
ATOM     21  C   UNL     1      -0.425  10.619  18.654  0.00  0.00    +0.000 C 
BRANCH  21  22
ATOM     22  C   UNL     1      -0.294  12.162  18.507  0.00  0.00    +0.000 C 
BRANCH  22  23
ATOM     23  O   UNL     1      -1.189  12.684  17.526  0.00  0.00    +0.000 OA
ATOM     24  H   UNL     1      -0.676  12.805  16.711  0.00  0.00    +0.000 HD
ENDBRANCH  22  23
ENDBRANCH  21  22
BRANCH  21  25
ATOM     25  C   UNL     1      -0.249  10.261  20.161  0.00  0.00    +0.000 C 
BRANCH  25  26
ATOM     26  O   UNL     1       0.209  11.344  20.972  0.00  0.00    +0.000 OA
ATOM     27  H   UNL     1       0.676  11.971  20.396  0.00  0.00    +0.000 HD
ENDBRANCH  25  26
ENDBRANCH  21  25
ENDBRANCH  18  21
ENDBRANCH  17  18
ENDBRANCH   1  17
TORSDOF 7
ENDMDL
MODEL 9
REMARK VINA RESULT:      -7.6      4.737      8.130
REMARK  Name = 
REMARK  8 active torsions:
REMARK  status: ('A' for Active; 'I' for Inactive)
REMARK    1  A    between atoms: C_1  and  C_2
REMARK    2  A    between atoms: C_2  and  C_3
REMARK    3  A    between atoms: C_2  and  C_5
REMARK    4  A    between atoms: C_2  and  N_7
REMARK    5  A    between atoms: C_3  and  O_4
REMARK    6  A    between atoms: C_5  and  O_6
REMARK    7  A    between atoms: N_7  and  C_8
REMARK    8  A    between atoms: C_8  and  C_9
REMARK                            x       y       z     vdW  Elec       q    Type
REMARK                         _______ _______ _______ _____ _____    ______ ____
ROOT
ATOM      1  C   UNL     1       1.735   7.360  20.368  0.00  0.00    +0.000 A 
ATOM      2  C   UNL     1       2.667   7.377  19.303  0.00  0.00    +0.000 A 
ATOM      3  C   UNL     1       3.033   6.181  18.714  0.00  0.00    +0.000 A 
ATOM      4  C   UNL     1       2.502   4.996  19.198  0.00  0.00    +0.000 A 
ATOM      5  C   UNL     1       2.983   3.920  18.468  0.00  0.00    +0.000 A 
ATOM      6  C   UNL     1       2.564   2.644  18.798  0.00  0.00    +0.000 A 
ATOM      7  C   UNL     1       1.665   2.489  19.869  0.00  0.00    +0.000 A 
ATOM      8  C   UNL     1       1.183   3.601  20.593  0.00  0.00    +0.000 A 
ATOM      9  C   UNL     1       1.602   4.904  20.257  0.00  0.00    +0.000 A 
ATOM     10  C   UNL     1       1.218   6.124  20.844  0.00  0.00    +0.000 A 
ATOM     11  C   UNL     1       3.873   4.442  17.440  0.00  0.00    +0.000 A 
ATOM     12  C   UNL     1       4.593   3.822  16.439  0.00  0.00    +0.000 A 
ATOM     13  C   UNL     1       5.346   4.626  15.579  0.00  0.00    +0.000 A 
ATOM     14  C   UNL     1       5.378   6.025  15.735  0.00  0.00    +0.000 A 
ATOM     15  C   UNL     1       4.654   6.654  16.751  0.00  0.00    +0.000 A 
ATOM     16  C   UNL     1       3.907   5.856  17.595  0.00  0.00    +0.000 A 
ENDROOT
BRANCH   1  17
ATOM     17  C   UNL     1       1.296   8.656  21.014  0.00  0.00    +0.000 C 
BRANCH  17  18
ATOM     18  N   UNL     1       0.128   9.220  20.338  0.00  0.00    +0.000 NA
ATOM     19  H   UNL     1      -0.129   8.656  19.531  0.00  0.00    +0.000 HD
BRANCH  18  21
ATOM     20  C   UNL     1      -1.152  11.014  19.374  0.00  0.00    +0.000 C 
ATOM     21  C   UNL     1       0.226  10.653  19.972  0.00  0.00    +0.000 C 
BRANCH  21  22
ATOM     22  C   UNL     1       1.316  10.928  18.897  0.00  0.00    +0.000 C 
BRANCH  22  23
ATOM     23  O   UNL     1       1.134  10.122  17.733  0.00  0.00    +0.000 OA
ATOM     24  H   UNL     1       1.928  10.235  17.185  0.00  0.00    +0.000 HD
ENDBRANCH  22  23
ENDBRANCH  21  22
BRANCH  21  25
ATOM     25  C   UNL     1       0.518  11.568  21.200  0.00  0.00    +0.000 C 
BRANCH  25  26
ATOM     26  O   UNL     1       1.605  12.475  21.011  0.00  0.00    +0.000 OA
ATOM     27  H   UNL     1       2.100  12.188  20.226  0.00  0.00    +0.000 HD
ENDBRANCH  25  26
ENDBRANCH  21  25
ENDBRANCH  18  21
ENDBRANCH  17  18
ENDBRANCH   1  17
TORSDOF 7
ENDMDL
