MODEL 1
REMARK VINA RESULT:      -6.9      0.000      0.000
REMARK  Name = 
REMARK  13 active torsions:
REMARK  status: ('A' for Active; 'I' for Inactive)
REMARK    1  A    between atoms: C_1  and  C_2
REMARK    2  A    between atoms: C_2  and  C_3
REMARK    3  A    between atoms: C_3  and  C_4
REMARK    4  A    between atoms: C_3  and  C_5
REMARK    5  A    between atoms: C_5  and  N_6
REMARK    6  A    between atoms: C_7  and  C_9
REMARK    7  A    between atoms: C_13  and  O_14
REMARK    8  A    between atoms: O_14  and  C_15
REMARK    9  A    between atoms: N_18  and  C_19
REMARK   10  A    between atoms: C_19  and  C_20
REMARK   11  A    between atoms: C_20  and  C_21
REMARK   12  A    between atoms: C_20  and  C_22
REMARK   13  A    between atoms: C_20  and  C_23
REMARK                            x       y       z     vdW  Elec       q    Type
REMARK                         _______ _______ _______ _____ _____    ______ ____
ROOT
ATOM      1  C   UNL     1       2.361   6.210  19.841  0.00  0.00    +0.000 A 
ATOM      2  C   UNL     1       2.026   5.124  20.675  0.00  0.00    +0.000 A 
ATOM      3  C   UNL     1       2.627   3.862  20.523  0.00  0.00    +0.000 A 
ATOM      4  C   UNL     1       3.614   3.641  19.551  0.00  0.00    +0.000 A 
ATOM      5  C   UNL     1       4.002   4.690  18.712  0.00  0.00    +0.000 A 
ATOM      6  C   UNL     1       3.344   5.954  18.863  0.00  0.00    +0.000 A 
ENDROOT
BRANCH   1   8
ATOM      7  N   UNL     1       1.116   7.825  21.384  0.00  0.00    +0.000 N 
ATOM      8  C   UNL     1       1.736   7.588  20.148  0.00  0.00    +0.000 C 
ATOM      9  O   UNL     1       1.782   8.460  19.281  0.00  0.00    +0.000 OA
ATOM     10  H   UNL     1       1.057   7.017  21.986  0.00  0.00    +0.000 HD
BRANCH   7  11
ATOM     11  C   UNL     1       0.011   8.801  21.553  0.00  0.00    +0.000 C 
BRANCH  11  12
ATOM     12  C   UNL     1       0.180  10.301  22.010  0.00  0.00    +0.000 C 
ATOM     13  C   UNL     1      -0.879  10.798  23.012  0.00  0.00    +0.000 C 
BRANCH  12  15
ATOM     14  C   UNL     1      -0.769  12.339  20.738  0.00  0.00    +0.000 C 
ATOM     15  C   UNL     1       0.410  11.417  20.978  0.00  0.00    +0.000 C 
ENDBRANCH  12  15
ENDBRANCH  11  12
ENDBRANCH   7  11
ENDBRANCH   1   8
BRANCH   5  16
ATOM     16  O   UNL     1       4.954   4.613  17.736  0.00  0.00    +0.000 OA
BRANCH  16  17
ATOM     17  C   UNL     1       5.888   5.689  17.485  0.00  0.00    +0.000 C 
ATOM     18  C   UNL     1       5.492   6.548  16.289  0.00  0.00    +0.000 C 
ATOM     19  C   UNL     1       5.332   5.707  15.015  0.00  0.00    +0.000 C 
ATOM     20  N   UNL     1       6.364   4.704  14.710  0.00  0.00    +0.000 NA
ATOM     21  C   UNL     1       7.103   4.178  15.876  0.00  0.00    +0.000 C 
ATOM     22  C   UNL     1       7.249   5.102  17.082  0.00  0.00    +0.000 C 
BRANCH  20  23
ATOM     23  C   UNL     1       5.816   3.540  13.950  0.00  0.00    +0.000 C 
BRANCH  23  24
ATOM     24  C   UNL     1       6.001   3.451  12.402  0.00  0.00    +0.000 C 
ATOM     25  C   UNL     1       4.683   3.812  11.700  0.00  0.00    +0.000 C 
ATOM     26  C   UNL     1       7.071   4.490  11.978  0.00  0.00    +0.000 C 
ATOM     27  C   UNL     1       6.519   2.088  11.914  0.00  0.00    +0.000 C 
ENDBRANCH  23  24
ENDBRANCH  20  23
ENDBRANCH  16  17
ENDBRANCH   5  16
TORSDOF 8
ENDMDL
MODEL 2
REMARK VINA RESULT:      -6.9      1.912      9.910
REMARK  Name = 
REMARK  13 active torsions:
REMARK  status: ('A' for Active; 'I' for Inactive)
REMARK    1  A    between atoms: C_1  and  C_2
REMARK    2  A    between atoms: C_2  and  C_3
REMARK    3  A    between atoms: C_3  and  C_4
REMARK    4  A    between atoms: C_3  and  C_5
REMARK    5  A    between atoms: C_5  and  N_6
REMARK    6  A    between atoms: C_7  and  C_9
REMARK    7  A    between atoms: C_13  and  O_14
REMARK    8  A    between atoms: O_14  and  C_15
REMARK    9  A    between atoms: N_18  and  C_19
REMARK   10  A    between atoms: C_19  and  C_20
REMARK   11  A    between atoms: C_20  and  C_21
REMARK   12  A    between atoms: C_20  and  C_22
REMARK   13  A    between atoms: C_20  and  C_23
REMARK                            x       y       z     vdW  Elec       q    Type
REMARK                         _______ _______ _______ _____ _____    ______ ____
ROOT
ATOM      1  C   UNL     1       4.052   5.972  17.428  0.00  0.00    +0.000 A 
ATOM      2  C   UNL     1       3.661   4.887  18.237  0.00  0.00    +0.000 A 
ATOM      3  C   UNL     1       2.770   5.051  19.313  0.00  0.00    +0.000 A 
ATOM      4  C   UNL     1       2.206   6.301  19.604  0.00  0.00    +0.000 A 
ATOM      5  C   UNL     1       2.541   7.408  18.817  0.00  0.00    +0.000 A 
ATOM      6  C   UNL     1       3.483   7.221  17.754  0.00  0.00    +0.000 A 
ENDROOT
BRANCH   1   8
ATOM      7  N   UNL     1       5.109   4.372  15.736  0.00  0.00    +0.000 N 
ATOM      8  C   UNL     1       4.947   5.685  16.201  0.00  0.00    +0.000 C 
ATOM      9  O   UNL     1       5.519   6.629  15.658  0.00  0.00    +0.000 OA
ATOM     10  H   UNL     1       4.667   3.666  16.307  0.00  0.00    +0.000 HD
BRANCH   7  11
ATOM     11  C   UNL     1       6.334   3.916  15.032  0.00  0.00    +0.000 C 
BRANCH  11  12
ATOM     12  C   UNL     1       6.524   3.871  13.467  0.00  0.00    +0.000 C 
ATOM     13  C   UNL     1       7.346   5.033  12.880  0.00  0.00    +0.000 C 
BRANCH  12  15
ATOM     14  C   UNL     1       5.452   2.434  11.607  0.00  0.00    +0.000 C 
ATOM     15  C   UNL     1       5.326   3.626  12.536  0.00  0.00    +0.000 C 
ENDBRANCH  12  15
ENDBRANCH  11  12
ENDBRANCH   7  11
ENDBRANCH   1   8
BRANCH   5  16
ATOM     16  O   UNL     1       2.059   8.674  18.985  0.00  0.00    +0.000 OA
BRANCH  16  17
ATOM     17  C   UNL     1       1.633   9.490  17.868  0.00  0.00    +0.000 C 
ATOM     18  C   UNL     1       2.033  10.954  18.021  0.00  0.00    +0.000 C 
ATOM     19  C   UNL     1       1.492  11.556  19.324  0.00  0.00    +0.000 C 
ATOM     20  N   UNL     1       0.094  11.281  19.691  0.00  0.00    +0.000 NA
ATOM     21  C   UNL     1      -0.471  10.031  19.144  0.00  0.00    +0.000 C 
ATOM     22  C   UNL     1       0.098   9.530  17.819  0.00  0.00    +0.000 C 
BRANCH  20  23
ATOM     23  C   UNL     1      -0.111  11.270  21.171  0.00  0.00    +0.000 C 
BRANCH  23  24
ATOM     24  C   UNL     1      -1.125  12.256  21.834  0.00  0.00    +0.000 C 
ATOM     25  C   UNL     1      -1.677  11.640  23.129  0.00  0.00    +0.000 C 
ATOM     26  C   UNL     1      -0.368  13.557  22.205  0.00  0.00    +0.000 C 
ATOM     27  C   UNL     1      -2.274  12.685  20.907  0.00  0.00    +0.000 C 
ENDBRANCH  23  24
ENDBRANCH  20  23
ENDBRANCH  16  17
ENDBRANCH   5  16
TORSDOF 8
ENDMDL
MODEL 3
REMARK VINA RESULT:      -6.6      3.006      5.164
REMARK  Name = 
REMARK  13 active torsions:
REMARK  status: ('A' for Active; 'I' for Inactive)
REMARK    1  A    between atoms: C_1  and  C_2
REMARK    2  A    between atoms: C_2  and  C_3
REMARK    3  A    between atoms: C_3  and  C_4
REMARK    4  A    between atoms: C_3  and  C_5
REMARK    5  A    between atoms: C_5  and  N_6
REMARK    6  A    between atoms: C_7  and  C_9
REMARK    7  A    between atoms: C_13  and  O_14
REMARK    8  A    between atoms: O_14  and  C_15
REMARK    9  A    between atoms: N_18  and  C_19
REMARK   10  A    between atoms: C_19  and  C_20
REMARK   11  A    between atoms: C_20  and  C_21
REMARK   12  A    between atoms: C_20  and  C_22
REMARK   13  A    between atoms: C_20  and  C_23
REMARK                            x       y       z     vdW  Elec       q    Type
REMARK                         _______ _______ _______ _____ _____    ______ ____
ROOT
ATOM      1  C   UNL     1       1.395   9.007  20.378  0.00  0.00    +0.000 A 
ATOM      2  C   UNL     1       1.230   9.956  19.350  0.00  0.00    +0.000 A 
ATOM      3  C   UNL     1       1.588   9.675  18.019  0.00  0.00    +0.000 A 
ATOM      4  C   UNL     1       2.095   8.419  17.655  0.00  0.00    +0.000 A 
ATOM      5  C   UNL     1       2.257   7.431  18.631  0.00  0.00    +0.000 A 
ATOM      6  C   UNL     1       1.923   7.759  19.986  0.00  0.00    +0.000 A 
ENDROOT
BRANCH   1   8
ATOM      7  N   UNL     1      -0.475   9.686  21.984  0.00  0.00    +0.000 N 
ATOM      8  C   UNL     1       0.875   9.358  21.789  0.00  0.00    +0.000 C 
ATOM      9  O   UNL     1       1.672   9.357  22.726  0.00  0.00    +0.000 OA
ATOM     10  H   UNL     1      -1.021   9.741  21.136  0.00  0.00    +0.000 HD
BRANCH   7  11
ATOM     11  C   UNL     1      -0.933  10.587  23.071  0.00  0.00    +0.000 C 
BRANCH  11  12
ATOM     12  C   UNL     1      -1.322  12.105  22.896  0.00  0.00    +0.000 C 
ATOM     13  C   UNL     1      -2.745  12.353  22.360  0.00  0.00    +0.000 C 
BRANCH  12  15
ATOM     14  C   UNL     1      -0.597  13.238  20.690  0.00  0.00    +0.000 C 
ATOM     15  C   UNL     1      -0.375  13.083  22.182  0.00  0.00    +0.000 C 
ENDBRANCH  12  15
ENDBRANCH  11  12
ENDBRANCH   7  11
ENDBRANCH   1   8
BRANCH   5  16
ATOM     16  O   UNL     1       2.729   6.169  18.411  0.00  0.00    +0.000 OA
BRANCH  16  17
ATOM     17  C   UNL     1       3.952   5.922  17.678  0.00  0.00    +0.000 C 
ATOM     18  C   UNL     1       3.920   4.609  16.902  0.00  0.00    +0.000 C 
ATOM     19  C   UNL     1       3.629   3.415  17.821  0.00  0.00    +0.000 C 
ATOM     20  N   UNL     1       4.348   3.331  19.101  0.00  0.00    +0.000 NA
ATOM     21  C   UNL     1       4.805   4.620  19.659  0.00  0.00    +0.000 C 
ATOM     22  C   UNL     1       5.113   5.738  18.666  0.00  0.00    +0.000 C 
BRANCH  20  23
ATOM     23  C   UNL     1       3.550   2.632  20.154  0.00  0.00    +0.000 C 
BRANCH  23  24
ATOM     24  C   UNL     1       2.192   3.229  20.642  0.00  0.00    +0.000 C 
ATOM     25  C   UNL     1       2.415   4.647  21.189  0.00  0.00    +0.000 C 
ATOM     26  C   UNL     1       1.238   3.329  19.424  0.00  0.00    +0.000 C 
ATOM     27  C   UNL     1       1.465   2.357  21.679  0.00  0.00    +0.000 C 
ENDBRANCH  23  24
ENDBRANCH  20  23
ENDBRANCH  16  17
ENDBRANCH   5  16
TORSDOF 8
ENDMDL
MODEL 4
REMARK VINA RESULT:      -6.6      2.348      4.312
REMARK  Name = 
REMARK  13 active torsions:
REMARK  status: ('A' for Active; 'I' for Inactive)
REMARK    1  A    between atoms: C_1  and  C_2
REMARK    2  A    between atoms: C_2  and  C_3
REMARK    3  A    between atoms: C_3  and  C_4
REMARK    4  A    between atoms: C_3  and  C_5
REMARK    5  A    between atoms: C_5  and  N_6
REMARK    6  A    between atoms: C_7  and  C_9
REMARK    7  A    between atoms: C_13  and  O_14
REMARK    8  A    between atoms: O_14  and  C_15
REMARK    9  A    between atoms: N_18  and  C_19
REMARK   10  A    between atoms: C_19  and  C_20
REMARK   11  A    between atoms: C_20  and  C_21
REMARK   12  A    between atoms: C_20  and  C_22
REMARK   13  A    between atoms: C_20  and  C_23
REMARK                            x       y       z     vdW  Elec       q    Type
REMARK                         _______ _______ _______ _____ _____    ______ ____
ROOT
ATOM      1  C   UNL     1       1.288   9.111  20.498  0.00  0.00    +0.000 A 
ATOM      2  C   UNL     1       1.101   9.972  19.398  0.00  0.00    +0.000 A 
ATOM      3  C   UNL     1       1.518   9.617  18.102  0.00  0.00    +0.000 A 
ATOM      4  C   UNL     1       2.109   8.372  17.845  0.00  0.00    +0.000 A 
ATOM      5  C   UNL     1       2.296   7.469  18.896  0.00  0.00    +0.000 A 
ATOM      6  C   UNL     1       1.900   7.872  20.213  0.00  0.00    +0.000 A 
ENDROOT
BRANCH   1   8
ATOM      7  N   UNL     1      -0.647   9.894  21.973  0.00  0.00    +0.000 N 
ATOM      8  C   UNL     1       0.703   9.531  21.864  0.00  0.00    +0.000 C 
ATOM      9  O   UNL     1       1.450   9.551  22.841  0.00  0.00    +0.000 OA
ATOM     10  H   UNL     1      -1.146   9.926  21.096  0.00  0.00    +0.000 HD
BRANCH   7  11
ATOM     11  C   UNL     1      -1.141  10.848  22.998  0.00  0.00    +0.000 C 
BRANCH  11  12
ATOM     12  C   UNL     1      -1.620  12.324  22.715  0.00  0.00    +0.000 C 
ATOM     13  C   UNL     1      -0.526  13.273  22.191  0.00  0.00    +0.000 C 
BRANCH  12  15
ATOM     14  C   UNL     1      -3.813  12.507  24.070  0.00  0.00    +0.000 C 
ATOM     15  C   UNL     1      -2.450  13.094  23.755  0.00  0.00    +0.000 C 
ENDBRANCH  12  15
ENDBRANCH  11  12
ENDBRANCH   7  11
ENDBRANCH   1   8
BRANCH   5  16
ATOM     16  O   UNL     1       2.848   6.225  18.783  0.00  0.00    +0.000 OA
BRANCH  16  17
ATOM     17  C   UNL     1       2.234   5.053  19.370  0.00  0.00    +0.000 C 
ATOM     18  C   UNL     1       3.248   4.119  20.020  0.00  0.00    +0.000 C 
ATOM     19  C   UNL     1       4.331   3.679  19.027  0.00  0.00    +0.000 C 
ATOM     20  N   UNL     1       3.912   3.257  17.682  0.00  0.00    +0.000 NA
ATOM     21  C   UNL     1       2.637   3.830  17.205  0.00  0.00    +0.000 C 
ATOM     22  C   UNL     1       1.600   4.198  18.263  0.00  0.00    +0.000 C 
BRANCH  20  23
ATOM     23  C   UNL     1       4.956   3.536  16.650  0.00  0.00    +0.000 C 
BRANCH  23  24
ATOM     24  C   UNL     1       5.846   4.816  16.752  0.00  0.00    +0.000 C 
ATOM     25  C   UNL     1       7.057   4.683  15.817  0.00  0.00    +0.000 C 
ATOM     26  C   UNL     1       5.006   6.031  16.281  0.00  0.00    +0.000 C 
ATOM     27  C   UNL     1       6.300   5.145  18.183  0.00  0.00    +0.000 C 
ENDBRANCH  23  24
ENDBRANCH  20  23
ENDBRANCH  16  17
ENDBRANCH   5  16
TORSDOF 8
ENDMDL
MODEL 5
REMARK VINA RESULT:      -6.5      3.159      5.383
REMARK  Name = 
REMARK  13 active torsions:
REMARK  status: ('A' for Active; 'I' for Inactive)
REMARK    1  A    between atoms: C_1  and  C_2
REMARK    2  A    between atoms: C_2  and  C_3
REMARK    3  A    between atoms: C_3  and  C_4
REMARK    4  A    between atoms: C_3  and  C_5
REMARK    5  A    between atoms: C_5  and  N_6
REMARK    6  A    between atoms: C_7  and  C_9
REMARK    7  A    between atoms: C_13  and  O_14
REMARK    8  A    between atoms: O_14  and  C_15
REMARK    9  A    between atoms: N_18  and  C_19
REMARK   10  A    between atoms: C_19  and  C_20
REMARK   11  A    between atoms: C_20  and  C_21
REMARK   12  A    between atoms: C_20  and  C_22
REMARK   13  A    between atoms: C_20  and  C_23
REMARK                            x       y       z     vdW  Elec       q    Type
REMARK                         _______ _______ _______ _____ _____    ______ ____
ROOT
ATOM      1  C   UNL     1       1.242   9.203  20.456  0.00  0.00    +0.000 A 
ATOM      2  C   UNL     1       1.085  10.037  19.330  0.00  0.00    +0.000 A 
ATOM      3  C   UNL     1       1.546   9.654  18.057  0.00  0.00    +0.000 A 
ATOM      4  C   UNL     1       2.155   8.408  17.851  0.00  0.00    +0.000 A 
ATOM      5  C   UNL     1       2.314   7.532  18.929  0.00  0.00    +0.000 A 
ATOM      6  C   UNL     1       1.872   7.964  20.221  0.00  0.00    +0.000 A 
ENDROOT
BRANCH   1   8
ATOM      7  N   UNL     1      -0.688  10.187  21.815  0.00  0.00    +0.000 N 
ATOM      8  C   UNL     1       0.609   9.651  21.791  0.00  0.00    +0.000 C 
ATOM      9  O   UNL     1       1.271   9.540  22.822  0.00  0.00    +0.000 OA
ATOM     10  H   UNL     1      -1.107  10.314  20.905  0.00  0.00    +0.000 HD
BRANCH   7  11
ATOM     11  C   UNL     1      -1.134  11.164  22.841  0.00  0.00    +0.000 C 
BRANCH  11  12
ATOM     12  C   UNL     1      -1.553  12.657  22.558  0.00  0.00    +0.000 C 
ATOM     13  C   UNL     1      -0.396  13.593  22.163  0.00  0.00    +0.000 C 
BRANCH  12  15
ATOM     14  C   UNL     1      -3.685  12.666  24.018  0.00  0.00    +0.000 C 
ATOM     15  C   UNL     1      -2.459  13.419  23.538  0.00  0.00    +0.000 C 
ENDBRANCH  12  15
ENDBRANCH  11  12
ENDBRANCH   7  11
ENDBRANCH   1   8
BRANCH   5  16
ATOM     16  O   UNL     1       2.878   6.290  18.864  0.00  0.00    +0.000 OA
BRANCH  16  17
ATOM     17  C   UNL     1       3.912   5.964  17.905  0.00  0.00    +0.000 C 
ATOM     18  C   UNL     1       3.551   4.767  17.032  0.00  0.00    +0.000 C 
ATOM     19  C   UNL     1       3.232   3.526  17.875  0.00  0.00    +0.000 C 
ATOM     20  N   UNL     1       4.127   3.196  18.994  0.00  0.00    +0.000 NA
ATOM     21  C   UNL     1       4.863   4.336  19.576  0.00  0.00    +0.000 C 
ATOM     22  C   UNL     1       5.176   5.509  18.651  0.00  0.00    +0.000 C 
BRANCH  20  23
ATOM     23  C   UNL     1       3.412   2.495  20.104  0.00  0.00    +0.000 C 
BRANCH  23  24
ATOM     24  C   UNL     1       2.095   3.091  20.694  0.00  0.00    +0.000 C 
ATOM     25  C   UNL     1       1.579   2.190  21.827  0.00  0.00    +0.000 C 
ATOM     26  C   UNL     1       2.417   4.483  21.297  0.00  0.00    +0.000 C 
ATOM     27  C   UNL     1       0.994   3.328  19.648  0.00  0.00    +0.000 C 
ENDBRANCH  23  24
ENDBRANCH  20  23
ENDBRANCH  16  17
ENDBRANCH   5  16
TORSDOF 8
ENDMDL
MODEL 6
REMARK VINA RESULT:      -6.4      2.215      4.391
REMARK  Name = 
REMARK  13 active torsions:
REMARK  status: ('A' for Active; 'I' for Inactive)
REMARK    1  A    between atoms: C_1  and  C_2
REMARK    2  A    between atoms: C_2  and  C_3
REMARK    3  A    between atoms: C_3  and  C_4
REMARK    4  A    between atoms: C_3  and  C_5
REMARK    5  A    between atoms: C_5  and  N_6
REMARK    6  A    between atoms: C_7  and  C_9
REMARK    7  A    between atoms: C_13  and  O_14
REMARK    8  A    between atoms: O_14  and  C_15
REMARK    9  A    between atoms: N_18  and  C_19
REMARK   10  A    between atoms: C_19  and  C_20
REMARK   11  A    between atoms: C_20  and  C_21
REMARK   12  A    between atoms: C_20  and  C_22
REMARK   13  A    between atoms: C_20  and  C_23
REMARK                            x       y       z     vdW  Elec       q    Type
REMARK                         _______ _______ _______ _____ _____    ______ ____
ROOT
ATOM      1  C   UNL     1       0.928   9.181  21.117  0.00  0.00    +0.000 A 
ATOM      2  C   UNL     1       0.802   9.913  19.919  0.00  0.00    +0.000 A 
ATOM      3  C   UNL     1       1.339   9.445  18.706  0.00  0.00    +0.000 A 
ATOM      4  C   UNL     1       1.996   8.208  18.634  0.00  0.00    +0.000 A 
ATOM      5  C   UNL     1       2.127   7.429  19.788  0.00  0.00    +0.000 A 
ATOM      6  C   UNL     1       1.607   7.949  21.017  0.00  0.00    +0.000 A 
ENDROOT
BRANCH   1   8
ATOM      7  N   UNL     1      -1.063  10.284  22.281  0.00  0.00    +0.000 N 
ATOM      8  C   UNL     1       0.215   9.714  22.379  0.00  0.00    +0.000 C 
ATOM      9  O   UNL     1       0.798   9.640  23.459  0.00  0.00    +0.000 OA
ATOM     10  H   UNL     1      -1.412  10.374  21.338  0.00  0.00    +0.000 HD
BRANCH   7  11
ATOM     11  C   UNL     1      -1.552  11.324  23.221  0.00  0.00    +0.000 C 
BRANCH  11  12
ATOM     12  C   UNL     1      -2.538  12.498  22.852  0.00  0.00    +0.000 C 
ATOM     13  C   UNL     1      -2.608  12.839  21.352  0.00  0.00    +0.000 C 
BRANCH  12  15
ATOM     14  C   UNL     1      -3.818  14.210  24.302  0.00  0.00    +0.000 C 
ATOM     15  C   UNL     1      -2.514  13.821  23.633  0.00  0.00    +0.000 C 
ENDBRANCH  12  15
ENDBRANCH  11  12
ENDBRANCH   7  11
ENDBRANCH   1   8
BRANCH   5  16
ATOM     16  O   UNL     1       2.733   6.206  19.854  0.00  0.00    +0.000 OA
BRANCH  16  17
ATOM     17  C   UNL     1       2.012   4.976  19.604  0.00  0.00    +0.000 C 
ATOM     18  C   UNL     1       2.756   3.744  20.110  0.00  0.00    +0.000 C 
ATOM     19  C   UNL     1       4.160   3.641  19.502  0.00  0.00    +0.000 C 
ATOM     20  N   UNL     1       4.313   3.876  18.058  0.00  0.00    +0.000 NA
ATOM     21  C   UNL     1       3.285   4.740  17.443  0.00  0.00    +0.000 C 
ATOM     22  C   UNL     1       1.902   4.745  18.090  0.00  0.00    +0.000 C 
BRANCH  20  23
ATOM     23  C   UNL     1       5.653   4.440  17.714  0.00  0.00    +0.000 C 
BRANCH  23  24
ATOM     24  C   UNL     1       6.044   4.694  16.224  0.00  0.00    +0.000 C 
ATOM     25  C   UNL     1       7.568   4.840  16.104  0.00  0.00    +0.000 C 
ATOM     26  C   UNL     1       5.613   3.460  15.390  0.00  0.00    +0.000 C 
ATOM     27  C   UNL     1       5.333   5.901  15.590  0.00  0.00    +0.000 C 
ENDBRANCH  23  24
ENDBRANCH  20  23
ENDBRANCH  16  17
ENDBRANCH   5  16
TORSDOF 8
ENDMDL
MODEL 7
REMARK VINA RESULT:      -6.4      1.868      3.498
REMARK  Name = 
REMARK  13 active torsions:
REMARK  status: ('A' for Active; 'I' for Inactive)
REMARK    1  A    between atoms: C_1  and  C_2
REMARK    2  A    between atoms: C_2  and  C_3
REMARK    3  A    between atoms: C_3  and  C_4
REMARK    4  A    between atoms: C_3  and  C_5
REMARK    5  A    between atoms: C_5  and  N_6
REMARK    6  A    between atoms: C_7  and  C_9
REMARK    7  A    between atoms: C_13  and  O_14
REMARK    8  A    between atoms: O_14  and  C_15
REMARK    9  A    between atoms: N_18  and  C_19
REMARK   10  A    between atoms: C_19  and  C_20
REMARK   11  A    between atoms: C_20  and  C_21
REMARK   12  A    between atoms: C_20  and  C_22
REMARK   13  A    between atoms: C_20  and  C_23
REMARK                            x       y       z     vdW  Elec       q    Type
REMARK                         _______ _______ _______ _____ _____    ______ ____
ROOT
ATOM      1  C   UNL     1       1.486   8.577  20.467  0.00  0.00    +0.000 A 
ATOM      2  C   UNL     1       1.550   9.344  19.287  0.00  0.00    +0.000 A 
ATOM      3  C   UNL     1       1.936   8.778  18.058  0.00  0.00    +0.000 A 
ATOM      4  C   UNL     1       2.241   7.414  17.952  0.00  0.00    +0.000 A 
ATOM      5  C   UNL     1       2.171   6.601  19.088  0.00  0.00    +0.000 A 
ATOM      6  C   UNL     1       1.815   7.212  20.334  0.00  0.00    +0.000 A 
ENDROOT
BRANCH   1   8
ATOM      7  N   UNL     1      -0.361   9.752  21.787  0.00  0.00    +0.000 N 
ATOM      8  C   UNL     1       0.948   9.250  21.749  0.00  0.00    +0.000 C 
ATOM      9  O   UNL     1       1.696   9.347  22.720  0.00  0.00    +0.000 OA
ATOM     10  H   UNL     1      -0.858   9.699  20.910  0.00  0.00    +0.000 HD
BRANCH   7  11
ATOM     11  C   UNL     1      -0.759  10.891  22.652  0.00  0.00    +0.000 C 
BRANCH  11  12
ATOM     12  C   UNL     1      -1.835  11.984  22.285  0.00  0.00    +0.000 C 
ATOM     13  C   UNL     1      -1.467  12.882  21.089  0.00  0.00    +0.000 C 
BRANCH  12  15
ATOM     14  C   UNL     1      -3.713  12.350  24.022  0.00  0.00    +0.000 C 
ATOM     15  C   UNL     1      -2.449  12.880  23.373  0.00  0.00    +0.000 C 
ENDBRANCH  12  15
ENDBRANCH  11  12
ENDBRANCH   7  11
ENDBRANCH   1   8
BRANCH   5  16
ATOM     16  O   UNL     1       2.432   5.261  19.121  0.00  0.00    +0.000 OA
BRANCH  16  17
ATOM     17  C   UNL     1       3.487   4.703  19.939  0.00  0.00    +0.000 C 
ATOM     18  C   UNL     1       4.853   5.306  19.632  0.00  0.00    +0.000 C 
ATOM     19  C   UNL     1       5.223   5.149  18.151  0.00  0.00    +0.000 C 
ATOM     20  N   UNL     1       4.992   3.845  17.511  0.00  0.00    +0.000 NA
ATOM     21  C   UNL     1       3.927   3.020  18.117  0.00  0.00    +0.000 C 
ATOM     22  C   UNL     1       3.658   3.213  19.606  0.00  0.00    +0.000 C 
BRANCH  20  23
ATOM     23  C   UNL     1       4.701   3.974  16.052  0.00  0.00    +0.000 C 
BRANCH  23  24
ATOM     24  C   UNL     1       5.741   4.637  15.094  0.00  0.00    +0.000 C 
ATOM     25  C   UNL     1       5.462   6.144  14.987  0.00  0.00    +0.000 C 
ATOM     26  C   UNL     1       7.153   4.453  15.707  0.00  0.00    +0.000 C 
ATOM     27  C   UNL     1       5.800   3.997  13.698  0.00  0.00    +0.000 C 
ENDBRANCH  23  24
ENDBRANCH  20  23
ENDBRANCH  16  17
ENDBRANCH   5  16
TORSDOF 8
ENDMDL
MODEL 8
REMARK VINA RESULT:      -6.4      3.676      9.882
REMARK  Name = 
REMARK  13 active torsions:
REMARK  status: ('A' for Active; 'I' for Inactive)
REMARK    1  A    between atoms: C_1  and  C_2
REMARK    2  A    between atoms: C_2  and  C_3
REMARK    3  A    between atoms: C_3  and  C_4
REMARK    4  A    between atoms: C_3  and  C_5
REMARK    5  A    between atoms: C_5  and  N_6
REMARK    6  A    between atoms: C_7  and  C_9
REMARK    7  A    between atoms: C_13  and  O_14
REMARK    8  A    between atoms: O_14  and  C_15
REMARK    9  A    between atoms: N_18  and  C_19
REMARK   10  A    between atoms: C_19  and  C_20
REMARK   11  A    between atoms: C_20  and  C_21
REMARK   12  A    between atoms: C_20  and  C_22
REMARK   13  A    between atoms: C_20  and  C_23
REMARK                            x       y       z     vdW  Elec       q    Type
REMARK                         _______ _______ _______ _____ _____    ______ ____
ROOT
ATOM      1  C   UNL     1       2.129   7.282  19.485  0.00  0.00    +0.000 A 
ATOM      2  C   UNL     1       2.460   7.562  18.144  0.00  0.00    +0.000 A 
ATOM      3  C   UNL     1       2.197   8.818  17.565  0.00  0.00    +0.000 A 
ATOM      4  C   UNL     1       1.624   9.855  18.313  0.00  0.00    +0.000 A 
ATOM      5  C   UNL     1       1.298   9.639  19.656  0.00  0.00    +0.000 A 
ATOM      6  C   UNL     1       1.538   8.339  20.208  0.00  0.00    +0.000 A 
ENDROOT
BRANCH   1   8
ATOM      7  N   UNL     1       3.805   5.371  19.762  0.00  0.00    +0.000 N 
ATOM      8  C   UNL     1       2.551   5.917  20.073  0.00  0.00    +0.000 C 
ATOM      9  O   UNL     1       1.759   5.322  20.801  0.00  0.00    +0.000 OA
ATOM     10  H   UNL     1       4.339   5.900  19.088  0.00  0.00    +0.000 HD
BRANCH   7  11
ATOM     11  C   UNL     1       4.060   3.909  19.739  0.00  0.00    +0.000 C 
BRANCH  11  12
ATOM     12  C   UNL     1       3.385   2.880  18.753  0.00  0.00    +0.000 C 
ATOM     13  C   UNL     1       3.088   3.429  17.345  0.00  0.00    +0.000 C 
BRANCH  12  15
ATOM     14  C   UNL     1       0.819   2.580  18.774  0.00  0.00    +0.000 C 
ATOM     15  C   UNL     1       2.173   2.045  19.196  0.00  0.00    +0.000 C 
ENDBRANCH  12  15
ENDBRANCH  11  12
ENDBRANCH   7  11
ENDBRANCH   1   8
BRANCH   5  16
ATOM     16  O   UNL     1       0.746  10.564  20.496  0.00  0.00    +0.000 OA
BRANCH  16  17
ATOM     17  C   UNL     1      -0.681  10.796  20.554  0.00  0.00    +0.000 C 
ATOM     18  C   UNL     1      -1.234  11.397  19.265  0.00  0.00    +0.000 C 
ATOM     19  C   UNL     1      -0.521  12.705  18.899  0.00  0.00    +0.000 C 
ATOM     20  N   UNL     1      -0.290  13.693  19.964  0.00  0.00    +0.000 NA
ATOM     21  C   UNL     1      -0.206  13.144  21.332  0.00  0.00    +0.000 C 
ATOM     22  C   UNL     1      -0.984  11.862  21.617  0.00  0.00    +0.000 C 
BRANCH  20  23
ATOM     23  C   UNL     1       0.936  14.512  19.721  0.00  0.00    +0.000 C 
BRANCH  23  24
ATOM     24  C   UNL     1       0.819  16.042  19.429  0.00  0.00    +0.000 C 
ATOM     25  C   UNL     1      -0.569  16.355  18.851  0.00  0.00    +0.000 C 
ATOM     26  C   UNL     1       0.964  16.805  20.770  0.00  0.00    +0.000 C 
ATOM     27  C   UNL     1       1.924  16.587  18.510  0.00  0.00    +0.000 C 
ENDBRANCH  23  24
ENDBRANCH  20  23
ENDBRANCH  16  17
ENDBRANCH   5  16
TORSDOF 8
ENDMDL
MODEL 9
REMARK VINA RESULT:      -6.4      3.007      9.816
REMARK  Name = 
REMARK  13 active torsions:
REMARK  status: ('A' for Active; 'I' for Inactive)
REMARK    1  A    between atoms: C_1  and  C_2
REMARK    2  A    between atoms: C_2  and  C_3
REMARK    3  A    between atoms: C_3  and  C_4
REMARK    4  A    between atoms: C_3  and  C_5
REMARK    5  A    between atoms: C_5  and  N_6
REMARK    6  A    between atoms: C_7  and  C_9
REMARK    7  A    between atoms: C_13  and  O_14
REMARK    8  A    between atoms: O_14  and  C_15
REMARK    9  A    between atoms: N_18  and  C_19
REMARK   10  A    between atoms: C_19  and  C_20
REMARK   11  A    between atoms: C_20  and  C_21
REMARK   12  A    between atoms: C_20  and  C_22
REMARK   13  A    between atoms: C_20  and  C_23
REMARK                            x       y       z     vdW  Elec       q    Type
REMARK                         _______ _______ _______ _____ _____    ______ ____
ROOT
ATOM      1  C   UNL     1       3.082   6.302  19.053  0.00  0.00    +0.000 A 
ATOM      2  C   UNL     1       2.476   5.298  19.834  0.00  0.00    +0.000 A 
ATOM      3  C   UNL     1       1.484   5.600  20.785  0.00  0.00    +0.000 A 
ATOM      4  C   UNL     1       1.032   6.914  20.970  0.00  0.00    +0.000 A 
ATOM      5  C   UNL     1       1.583   7.947  20.203  0.00  0.00    +0.000 A 
ATOM      6  C   UNL     1       2.621   7.616  19.272  0.00  0.00    +0.000 A 
ENDROOT
BRANCH   1   8
ATOM      7  N   UNL     1       4.943   4.785  18.173  0.00  0.00    +0.000 N 
ATOM      8  C   UNL     1       4.082   5.872  17.957  0.00  0.00    +0.000 C 
ATOM      9  O   UNL     1       4.112   6.510  16.906  0.00  0.00    +0.000 OA
ATOM     10  H   UNL     1       4.895   4.389  19.100  0.00  0.00    +0.000 HD
BRANCH   7  11
ATOM     11  C   UNL     1       6.273   4.675  17.523  0.00  0.00    +0.000 C 
BRANCH  11  12
ATOM     12  C   UNL     1       7.486   5.656  17.753  0.00  0.00    +0.000 C 
ATOM     13  C   UNL     1       7.935   5.800  19.219  0.00  0.00    +0.000 C 
BRANCH  12  15
ATOM     14  C   UNL     1       8.091   8.158  17.975  0.00  0.00    +0.000 C 
ATOM     15  C   UNL     1       7.496   7.057  17.119  0.00  0.00    +0.000 C 
ENDBRANCH  12  15
ENDBRANCH  11  12
ENDBRANCH   7  11
ENDBRANCH   1   8
BRANCH   5  16
ATOM     16  O   UNL     1       1.229   9.263  20.276  0.00  0.00    +0.000 OA
BRANCH  16  17
ATOM     17  C   UNL     1       0.971  10.058  19.094  0.00  0.00    +0.000 C 
ATOM     18  C   UNL     1       1.453  11.498  19.235  0.00  0.00    +0.000 C 
ATOM     19  C   UNL     1       0.829  12.187  20.455  0.00  0.00    +0.000 C 
ATOM     20  N   UNL     1      -0.614  12.018  20.688  0.00  0.00    +0.000 NA
ATOM     21  C   UNL     1      -1.206  10.785  20.130  0.00  0.00    +0.000 C 
ATOM     22  C   UNL     1      -0.544  10.194  18.889  0.00  0.00    +0.000 C 
BRANCH  20  23
ATOM     23  C   UNL     1      -0.965  12.082  22.139  0.00  0.00    +0.000 C 
BRANCH  23  24
ATOM     24  C   UNL     1      -2.016  13.117  22.652  0.00  0.00    +0.000 C 
ATOM     25  C   UNL     1      -3.114  12.393  23.445  0.00  0.00    +0.000 C 
ATOM     26  C   UNL     1      -1.301  14.102  23.611  0.00  0.00    +0.000 C 
ATOM     27  C   UNL     1      -2.633  13.981  21.540  0.00  0.00    +0.000 C 
ENDBRANCH  23  24
ENDBRANCH  20  23
ENDBRANCH  16  17
ENDBRANCH   5  16
TORSDOF 8
ENDMDL
