MODEL 1
REMARK VINA RESULT:      -7.9      0.000      0.000
REMARK  Name = 
REMARK  4 active torsions:
REMARK  status: ('A' for Active; 'I' for Inactive)
REMARK    1  A    between atoms: C_2  and  O_3
REMARK    2  A    between atoms: C_2  and  C_14
REMARK    3  A    between atoms: O_3  and  N_4
REMARK    4  A    between atoms: C_5  and  C_6
REMARK                            x       y       z     vdW  Elec       q    Type
REMARK                         _______ _______ _______ _____ _____    ______ ____
ROOT
ATOM      1  O   UNL     1       6.831   5.376  19.702  0.00  0.00    +0.000 OA
ENDROOT
BRANCH   1   3
ATOM      2  O   UNL     1       8.260   6.958  18.777  0.00  0.00    +0.000 OA
ATOM      3  C   UNL     1       7.389   6.101  18.682  0.00  0.00    +0.000 C 
BRANCH   3   4
ATOM      4  C   UNL     1       6.818   5.722  17.354  0.00  0.00    +0.000 A 
ATOM      5  C   UNL     1       7.340   4.573  16.733  0.00  0.00    +0.000 A 
ATOM      6  C   UNL     1       6.853   4.146  15.495  0.00  0.00    +0.000 A 
ATOM      7  C   UNL     1       5.842   4.867  14.877  0.00  0.00    +0.000 A 
ATOM      8  F   UNL     1       5.370   4.459  13.692  0.00  0.00    +0.000 F 
ATOM      9  C   UNL     1       5.310   6.008  15.473  0.00  0.00    +0.000 A 
ATOM     10  C   UNL     1       5.796   6.440  16.714  0.00  0.00    +0.000 A 
ENDBRANCH   3   4
ENDBRANCH   1   3
BRANCH   1  11
ATOM     11  N   UNL     1       5.462   5.169  19.416  0.00  0.00    +0.000 NA
ATOM     12  C   UNL     1       5.151   3.919  19.537  0.00  0.00    +0.000 C 
BRANCH  12  13
ATOM     13  C   UNL     1       3.763   3.457  19.332  0.00  0.00    +0.000 A 
ATOM     14  C   UNL     1       2.847   3.417  20.393  0.00  0.00    +0.000 A 
ATOM     15  C   UNL     1       1.554   2.932  20.173  0.00  0.00    +0.000 A 
ATOM     16  C   UNL     1       1.188   2.495  18.903  0.00  0.00    +0.000 A 
ATOM     17  F   UNL     1      -0.048   2.018  18.701  0.00  0.00    +0.000 F 
ATOM     18  C   UNL     1       2.084   2.541  17.842  0.00  0.00    +0.000 A 
ATOM     19  C   UNL     1       3.370   3.025  18.066  0.00  0.00    +0.000 A 
ATOM     20  F   UNL     1       4.231   3.061  17.038  0.00  0.00    +0.000 F 
ENDBRANCH  12  13
ENDBRANCH   1  11
TORSDOF 4
ENDMDL
MODEL 2
REMARK VINA RESULT:      -7.9      2.623      3.509
REMARK  Name = 
REMARK  4 active torsions:
REMARK  status: ('A' for Active; 'I' for Inactive)
REMARK    1  A    between atoms: C_2  and  O_3
REMARK    2  A    between atoms: C_2  and  C_14
REMARK    3  A    between atoms: O_3  and  N_4
REMARK    4  A    between atoms: C_5  and  C_6
REMARK                            x       y       z     vdW  Elec       q    Type
REMARK                         _______ _______ _______ _____ _____    ______ ____
ROOT
ATOM      1  O   UNL     1       4.623   5.050  15.969  0.00  0.00    +0.000 OA
ENDROOT
BRANCH   1   3
ATOM      2  O   UNL     1       6.394   3.577  15.664  0.00  0.00    +0.000 OA
ATOM      3  C   UNL     1       5.904   4.595  16.140  0.00  0.00    +0.000 C 
BRANCH   3   4
ATOM      4  C   UNL     1       6.709   5.512  17.001  0.00  0.00    +0.000 A 
ATOM      5  C   UNL     1       6.883   6.833  16.548  0.00  0.00    +0.000 A 
ATOM      6  C   UNL     1       7.614   7.756  17.300  0.00  0.00    +0.000 A 
ATOM      7  C   UNL     1       8.171   7.360  18.506  0.00  0.00    +0.000 A 
ATOM      8  F   UNL     1       8.870   8.244  19.231  0.00  0.00    +0.000 F 
ATOM      9  C   UNL     1       8.013   6.059  18.975  0.00  0.00    +0.000 A 
ATOM     10  C   UNL     1       7.281   5.130  18.224  0.00  0.00    +0.000 A 
ENDBRANCH   3   4
ENDBRANCH   1   3
BRANCH   1  11
ATOM     11  N   UNL     1       3.942   4.966  17.205  0.00  0.00    +0.000 NA
ATOM     12  C   UNL     1       3.517   3.763  17.415  0.00  0.00    +0.000 C 
BRANCH  12  13
ATOM     13  C   UNL     1       2.811   3.412  18.665  0.00  0.00    +0.000 A 
ATOM     14  C   UNL     1       1.412   3.435  18.739  0.00  0.00    +0.000 A 
ATOM     15  C   UNL     1       0.777   3.142  19.950  0.00  0.00    +0.000 A 
ATOM     16  C   UNL     1       1.542   2.829  21.070  0.00  0.00    +0.000 A 
ATOM     17  F   UNL     1       0.930   2.562  22.232  0.00  0.00    +0.000 F 
ATOM     18  C   UNL     1       2.930   2.792  21.005  0.00  0.00    +0.000 A 
ATOM     19  C   UNL     1       3.556   3.085  19.797  0.00  0.00    +0.000 A 
ATOM     20  F   UNL     1       4.896   3.053  19.743  0.00  0.00    +0.000 F 
ENDBRANCH  12  13
ENDBRANCH   1  11
TORSDOF 4
ENDMDL
MODEL 3
REMARK VINA RESULT:      -7.9      1.106      1.580
REMARK  Name = 
REMARK  4 active torsions:
REMARK  status: ('A' for Active; 'I' for Inactive)
REMARK    1  A    between atoms: C_2  and  O_3
REMARK    2  A    between atoms: C_2  and  C_14
REMARK    3  A    between atoms: O_3  and  N_4
REMARK    4  A    between atoms: C_5  and  C_6
REMARK                            x       y       z     vdW  Elec       q    Type
REMARK                         _______ _______ _______ _____ _____    ______ ____
ROOT
ATOM      1  O   UNL     1       6.944   5.329  19.555  0.00  0.00    +0.000 OA
ENDROOT
BRANCH   1   3
ATOM      2  O   UNL     1       8.199   7.018  18.569  0.00  0.00    +0.000 OA
ATOM      3  C   UNL     1       7.390   6.099  18.513  0.00  0.00    +0.000 C 
BRANCH   3   4
ATOM      4  C   UNL     1       6.776   5.686  17.216  0.00  0.00    +0.000 A 
ATOM      5  C   UNL     1       7.264   4.510  16.618  0.00  0.00    +0.000 A 
ATOM      6  C   UNL     1       6.736   4.050  15.409  0.00  0.00    +0.000 A 
ATOM      7  C   UNL     1       5.718   4.765  14.797  0.00  0.00    +0.000 A 
ATOM      8  F   UNL     1       5.207   4.325  13.639  0.00  0.00    +0.000 F 
ATOM      9  C   UNL     1       5.219   5.932  15.369  0.00  0.00    +0.000 A 
ATOM     10  C   UNL     1       5.746   6.397  16.581  0.00  0.00    +0.000 A 
ENDBRANCH   3   4
ENDBRANCH   1   3
BRANCH   1  11
ATOM     11  N   UNL     1       5.920   4.476  19.085  0.00  0.00    +0.000 NA
ATOM     12  C   UNL     1       4.818   4.678  19.732  0.00  0.00    +0.000 C 
BRANCH  12  13
ATOM     13  C   UNL     1       3.588   3.935  19.391  0.00  0.00    +0.000 A 
ATOM     14  C   UNL     1       3.501   3.174  18.217  0.00  0.00    +0.000 A 
ATOM     15  C   UNL     1       2.307   2.519  17.903  0.00  0.00    +0.000 A 
ATOM     16  C   UNL     1       1.215   2.628  18.759  0.00  0.00    +0.000 A 
ATOM     17  F   UNL     1       0.067   2.011  18.447  0.00  0.00    +0.000 F 
ATOM     18  C   UNL     1       1.293   3.371  19.932  0.00  0.00    +0.000 A 
ATOM     19  C   UNL     1       2.485   4.021  20.240  0.00  0.00    +0.000 A 
ATOM     20  F   UNL     1       2.552   4.739  21.370  0.00  0.00    +0.000 F 
ENDBRANCH  12  13
ENDBRANCH   1  11
TORSDOF 4
ENDMDL
MODEL 4
REMARK VINA RESULT:      -7.8      0.339      1.131
REMARK  Name = 
REMARK  4 active torsions:
REMARK  status: ('A' for Active; 'I' for Inactive)
REMARK    1  A    between atoms: C_2  and  O_3
REMARK    2  A    between atoms: C_2  and  C_14
REMARK    3  A    between atoms: O_3  and  N_4
REMARK    4  A    between atoms: C_5  and  C_6
REMARK                            x       y       z     vdW  Elec       q    Type
REMARK                         _______ _______ _______ _____ _____    ______ ____
ROOT
ATOM      1  O   UNL     1       6.880   5.347  19.640  0.00  0.00    +0.000 OA
ENDROOT
BRANCH   1   3
ATOM      2  O   UNL     1       8.102   7.065  18.661  0.00  0.00    +0.000 OA
ATOM      3  C   UNL     1       7.344   6.104  18.596  0.00  0.00    +0.000 C 
BRANCH   3   4
ATOM      4  C   UNL     1       6.823   5.617  17.283  0.00  0.00    +0.000 A 
ATOM      5  C   UNL     1       5.885   6.431  16.621  0.00  0.00    +0.000 A 
ATOM      6  C   UNL     1       5.357   6.052  15.384  0.00  0.00    +0.000 A 
ATOM      7  C   UNL     1       5.768   4.860  14.807  0.00  0.00    +0.000 A 
ATOM      8  F   UNL     1       5.266   4.495  13.619  0.00  0.00    +0.000 F 
ATOM      9  C   UNL     1       6.694   4.038  15.443  0.00  0.00    +0.000 A 
ATOM     10  C   UNL     1       7.226   4.414  16.684  0.00  0.00    +0.000 A 
ENDBRANCH   3   4
ENDBRANCH   1   3
BRANCH   1  11
ATOM     11  N   UNL     1       5.478   5.212  19.516  0.00  0.00    +0.000 NA
ATOM     12  C   UNL     1       5.136   3.964  19.503  0.00  0.00    +0.000 C 
BRANCH  12  13
ATOM     13  C   UNL     1       3.715   3.566  19.426  0.00  0.00    +0.000 A 
ATOM     14  C   UNL     1       2.986   3.251  20.581  0.00  0.00    +0.000 A 
ATOM     15  C   UNL     1       1.656   2.834  20.468  0.00  0.00    +0.000 A 
ATOM     16  C   UNL     1       1.068   2.738  19.209  0.00  0.00    +0.000 A 
ATOM     17  F   UNL     1      -0.202   2.325  19.105  0.00  0.00    +0.000 F 
ATOM     18  C   UNL     1       1.779   3.059  18.058  0.00  0.00    +0.000 A 
ATOM     19  C   UNL     1       3.103   3.473  18.177  0.00  0.00    +0.000 A 
ATOM     20  F   UNL     1       3.784   3.776  17.062  0.00  0.00    +0.000 F 
ENDBRANCH  12  13
ENDBRANCH   1  11
TORSDOF 4
ENDMDL
MODEL 5
REMARK VINA RESULT:      -7.6      2.786      3.478
REMARK  Name = 
REMARK  4 active torsions:
REMARK  status: ('A' for Active; 'I' for Inactive)
REMARK    1  A    between atoms: C_2  and  O_3
REMARK    2  A    between atoms: C_2  and  C_14
REMARK    3  A    between atoms: O_3  and  N_4
REMARK    4  A    between atoms: C_5  and  C_6
REMARK                            x       y       z     vdW  Elec       q    Type
REMARK                         _______ _______ _______ _____ _____    ______ ____
ROOT
ATOM      1  O   UNL     1       4.498   4.454  15.683  0.00  0.00    +0.000 OA
ENDROOT
BRANCH   1   3
ATOM      2  O   UNL     1       6.485   3.595  14.837  0.00  0.00    +0.000 OA
ATOM      3  C   UNL     1       5.860   4.332  15.591  0.00  0.00    +0.000 C 
BRANCH   3   4
ATOM      4  C   UNL     1       6.565   5.244  16.541  0.00  0.00    +0.000 A 
ATOM      5  C   UNL     1       7.275   4.647  17.599  0.00  0.00    +0.000 A 
ATOM      6  C   UNL     1       7.970   5.430  18.524  0.00  0.00    +0.000 A 
ATOM      7  C   UNL     1       7.956   6.811  18.393  0.00  0.00    +0.000 A 
ATOM      8  F   UNL     1       8.623   7.564  19.277  0.00  0.00    +0.000 F 
ATOM      9  C   UNL     1       7.259   7.423  17.356  0.00  0.00    +0.000 A 
ATOM     10  C   UNL     1       6.561   6.642  16.425  0.00  0.00    +0.000 A 
ENDBRANCH   3   4
ENDBRANCH   1   3
BRANCH   1  11
ATOM     11  N   UNL     1       4.057   3.763  16.835  0.00  0.00    +0.000 NA
ATOM     12  C   UNL     1       3.237   4.491  17.522  0.00  0.00    +0.000 C 
BRANCH  12  13
ATOM     13  C   UNL     1       2.603   3.970  18.750  0.00  0.00    +0.000 A 
ATOM     14  C   UNL     1       1.598   2.996  18.691  0.00  0.00    +0.000 A 
ATOM     15  C   UNL     1       0.988   2.558  19.871  0.00  0.00    +0.000 A 
ATOM     16  C   UNL     1       1.386   3.093  21.093  0.00  0.00    +0.000 A 
ATOM     17  F   UNL     1       0.789   2.681  22.219  0.00  0.00    +0.000 F 
ATOM     18  C   UNL     1       2.390   4.052  21.163  0.00  0.00    +0.000 A 
ATOM     19  C   UNL     1       2.994   4.484  19.986  0.00  0.00    +0.000 A 
ATOM     20  F   UNL     1       3.958   5.414  20.062  0.00  0.00    +0.000 F 
ENDBRANCH  12  13
ENDBRANCH   1  11
TORSDOF 4
ENDMDL
MODEL 6
REMARK VINA RESULT:      -7.3      2.235      2.732
REMARK  Name = 
REMARK  4 active torsions:
REMARK  status: ('A' for Active; 'I' for Inactive)
REMARK    1  A    between atoms: C_2  and  O_3
REMARK    2  A    between atoms: C_2  and  C_14
REMARK    3  A    between atoms: O_3  and  N_4
REMARK    4  A    between atoms: C_5  and  C_6
REMARK                            x       y       z     vdW  Elec       q    Type
REMARK                         _______ _______ _______ _____ _____    ______ ____
ROOT
ATOM      1  O   UNL     1       6.073   6.565  16.353  0.00  0.00    +0.000 OA
ENDROOT
BRANCH   1   3
ATOM      2  O   UNL     1       7.662   5.027  17.066  0.00  0.00    +0.000 OA
ATOM      3  C   UNL     1       6.937   5.512  16.205  0.00  0.00    +0.000 C 
BRANCH   3   4
ATOM      4  C   UNL     1       6.907   4.961  14.817  0.00  0.00    +0.000 A 
ATOM      5  C   UNL     1       7.782   5.536  13.877  0.00  0.00    +0.000 A 
ATOM      6  C   UNL     1       7.823   5.070  12.560  0.00  0.00    +0.000 A 
ATOM      7  C   UNL     1       6.990   4.028  12.182  0.00  0.00    +0.000 A 
ATOM      8  F   UNL     1       7.029   3.577  10.921  0.00  0.00    +0.000 F 
ATOM      9  C   UNL     1       6.116   3.444  13.094  0.00  0.00    +0.000 A 
ATOM     10  C   UNL     1       6.071   3.908  14.416  0.00  0.00    +0.000 A 
ENDBRANCH   3   4
ENDBRANCH   1   3
BRANCH   1  11
ATOM     11  N   UNL     1       5.229   6.309  17.458  0.00  0.00    +0.000 NA
ATOM     12  C   UNL     1       4.240   5.548  17.116  0.00  0.00    +0.000 C 
BRANCH  12  13
ATOM     13  C   UNL     1       3.243   5.102  18.110  0.00  0.00    +0.000 A 
ATOM     14  C   UNL     1       3.118   5.743  19.350  0.00  0.00    +0.000 A 
ATOM     15  C   UNL     1       2.195   5.267  20.286  0.00  0.00    +0.000 A 
ATOM     16  C   UNL     1       1.408   4.161  19.977  0.00  0.00    +0.000 A 
ATOM     17  F   UNL     1       0.535   3.700  20.882  0.00  0.00    +0.000 F 
ATOM     18  C   UNL     1       1.516   3.525  18.746  0.00  0.00    +0.000 A 
ATOM     19  C   UNL     1       2.437   4.003  17.818  0.00  0.00    +0.000 A 
ATOM     20  F   UNL     1       2.540   3.380  16.635  0.00  0.00    +0.000 F 
ENDBRANCH  12  13
ENDBRANCH   1  11
TORSDOF 4
ENDMDL
MODEL 7
REMARK VINA RESULT:      -7.3      2.674      3.357
REMARK  Name = 
REMARK  4 active torsions:
REMARK  status: ('A' for Active; 'I' for Inactive)
REMARK    1  A    between atoms: C_2  and  O_3
REMARK    2  A    between atoms: C_2  and  C_14
REMARK    3  A    between atoms: O_3  and  N_4
REMARK    4  A    between atoms: C_5  and  C_6
REMARK                            x       y       z     vdW  Elec       q    Type
REMARK                         _______ _______ _______ _____ _____    ______ ____
ROOT
ATOM      1  O   UNL     1       4.665   5.046  16.035  0.00  0.00    +0.000 OA
ENDROOT
BRANCH   1   3
ATOM      2  O   UNL     1       6.569   3.796  15.572  0.00  0.00    +0.000 OA
ATOM      3  C   UNL     1       6.000   4.745  16.100  0.00  0.00    +0.000 C 
BRANCH   3   4
ATOM      4  C   UNL     1       6.755   5.745  16.912  0.00  0.00    +0.000 A 
ATOM      5  C   UNL     1       7.406   5.277  18.069  0.00  0.00    +0.000 A 
ATOM      6  C   UNL     1       8.142   6.147  18.877  0.00  0.00    +0.000 A 
ATOM      7  C   UNL     1       8.229   7.487  18.529  0.00  0.00    +0.000 A 
ATOM      8  F   UNL     1       8.937   8.323  19.300  0.00  0.00    +0.000 F 
ATOM      9  C   UNL     1       7.593   7.973  17.391  0.00  0.00    +0.000 A 
ATOM     10  C   UNL     1       6.854   7.105  16.577  0.00  0.00    +0.000 A 
ENDBRANCH   3   4
ENDBRANCH   1   3
BRANCH   1  11
ATOM     11  N   UNL     1       4.109   4.933  17.330  0.00  0.00    +0.000 NA
ATOM     12  C   UNL     1       3.229   3.986  17.372  0.00  0.00    +0.000 C 
BRANCH  12  13
ATOM     13  C   UNL     1       2.539   3.645  18.633  0.00  0.00    +0.000 A 
ATOM     14  C   UNL     1       1.860   4.620  19.375  0.00  0.00    +0.000 A 
ATOM     15  C   UNL     1       1.255   4.272  20.587  0.00  0.00    +0.000 A 
ATOM     16  C   UNL     1       1.333   2.959  21.044  0.00  0.00    +0.000 A 
ATOM     17  F   UNL     1       0.764   2.633  22.213  0.00  0.00    +0.000 F 
ATOM     18  C   UNL     1       1.994   1.981  20.309  0.00  0.00    +0.000 A 
ATOM     19  C   UNL     1       2.594   2.333  19.104  0.00  0.00    +0.000 A 
ATOM     20  F   UNL     1       3.234   1.386  18.404  0.00  0.00    +0.000 F 
ENDBRANCH  12  13
ENDBRANCH   1  11
TORSDOF 4
ENDMDL
MODEL 8
REMARK VINA RESULT:      -7.3      3.938      4.282
REMARK  Name = 
REMARK  4 active torsions:
REMARK  status: ('A' for Active; 'I' for Inactive)
REMARK    1  A    between atoms: C_2  and  O_3
REMARK    2  A    between atoms: C_2  and  C_14
REMARK    3  A    between atoms: O_3  and  N_4
REMARK    4  A    between atoms: C_5  and  C_6
REMARK                            x       y       z     vdW  Elec       q    Type
REMARK                         _______ _______ _______ _____ _____    ______ ____
ROOT
ATOM      1  O   UNL     1       4.169   4.358  19.195  0.00  0.00    +0.000 OA
ENDROOT
BRANCH   1   3
ATOM      2  O   UNL     1       6.306   5.114  19.707  0.00  0.00    +0.000 OA
ATOM      3  C   UNL     1       5.455   4.732  18.910  0.00  0.00    +0.000 C 
BRANCH   3   4
ATOM      4  C   UNL     1       5.757   4.615  17.452  0.00  0.00    +0.000 A 
ATOM      5  C   UNL     1       7.082   4.863  17.047  0.00  0.00    +0.000 A 
ATOM      6  C   UNL     1       7.448   4.764  15.703  0.00  0.00    +0.000 A 
ATOM      7  C   UNL     1       6.491   4.416  14.761  0.00  0.00    +0.000 A 
ATOM      8  F   UNL     1       6.840   4.318  13.471  0.00  0.00    +0.000 F 
ATOM      9  C   UNL     1       5.175   4.167  15.138  0.00  0.00    +0.000 A 
ATOM     10  C   UNL     1       4.802   4.265  16.485  0.00  0.00    +0.000 A 
ENDBRANCH   3   4
ENDBRANCH   1   3
BRANCH   1  11
ATOM     11  N   UNL     1       3.515   5.433  19.840  0.00  0.00    +0.000 NA
ATOM     12  C   UNL     1       2.988   6.237  18.974  0.00  0.00    +0.000 C 
BRANCH  12  13
ATOM     13  C   UNL     1       2.211   7.416  19.406  0.00  0.00    +0.000 A 
ATOM     14  C   UNL     1       1.660   7.492  20.692  0.00  0.00    +0.000 A 
ATOM     15  C   UNL     1       0.892   8.603  21.053  0.00  0.00    +0.000 A 
ATOM     16  C   UNL     1       0.682   9.625  20.130  0.00  0.00    +0.000 A 
ATOM     17  F   UNL     1      -0.067  10.681  20.476  0.00  0.00    +0.000 F 
ATOM     18  C   UNL     1       1.233   9.565  18.856  0.00  0.00    +0.000 A 
ATOM     19  C   UNL     1       1.997   8.457  18.502  0.00  0.00    +0.000 A 
ATOM     20  F   UNL     1       2.521   8.404  17.268  0.00  0.00    +0.000 F 
ENDBRANCH  12  13
ENDBRANCH   1  11
TORSDOF 4
ENDMDL
MODEL 9
REMARK VINA RESULT:      -7.3      2.143      2.603
REMARK  Name = 
REMARK  4 active torsions:
REMARK  status: ('A' for Active; 'I' for Inactive)
REMARK    1  A    between atoms: C_2  and  O_3
REMARK    2  A    between atoms: C_2  and  C_14
REMARK    3  A    between atoms: O_3  and  N_4
REMARK    4  A    between atoms: C_5  and  C_6
REMARK                            x       y       z     vdW  Elec       q    Type
REMARK                         _______ _______ _______ _____ _____    ______ ____
ROOT
ATOM      1  O   UNL     1       5.624   6.318  16.465  0.00  0.00    +0.000 OA
ENDROOT
BRANCH   1   3
ATOM      2  O   UNL     1       7.569   5.230  17.124  0.00  0.00    +0.000 OA
ATOM      3  C   UNL     1       6.724   5.521  16.285  0.00  0.00    +0.000 C 
BRANCH   3   4
ATOM      4  C   UNL     1       6.804   4.992  14.891  0.00  0.00    +0.000 A 
ATOM      5  C   UNL     1       5.871   4.005  14.522  0.00  0.00    +0.000 A 
ATOM      6  C   UNL     1       5.873   3.466  13.233  0.00  0.00    +0.000 A 
ATOM      7  C   UNL     1       6.807   3.914  12.310  0.00  0.00    +0.000 A 
ATOM      8  F   UNL     1       6.809   3.401  11.073  0.00  0.00    +0.000 F 
ATOM      9  C   UNL     1       7.740   4.888  12.652  0.00  0.00    +0.000 A 
ATOM     10  C   UNL     1       7.742   5.432  13.944  0.00  0.00    +0.000 A 
ENDBRANCH   3   4
ENDBRANCH   1   3
BRANCH   1  11
ATOM     11  N   UNL     1       4.974   5.933  17.659  0.00  0.00    +0.000 NA
ATOM     12  C   UNL     1       3.915   5.235  17.402  0.00  0.00    +0.000 C 
BRANCH  12  13
ATOM     13  C   UNL     1       3.088   4.677  18.491  0.00  0.00    +0.000 A 
ATOM     14  C   UNL     1       3.117   5.229  19.779  0.00  0.00    +0.000 A 
ATOM     15  C   UNL     1       2.355   4.648  20.799  0.00  0.00    +0.000 A 
ATOM     16  C   UNL     1       1.575   3.529  20.524  0.00  0.00    +0.000 A 
ATOM     17  F   UNL     1       0.858   2.968  21.507  0.00  0.00    +0.000 F 
ATOM     18  C   UNL     1       1.530   2.981  19.247  0.00  0.00    +0.000 A 
ATOM     19  C   UNL     1       2.290   3.562  18.236  0.00  0.00    +0.000 A 
ATOM     20  F   UNL     1       2.246   3.025  17.008  0.00  0.00    +0.000 F 
ENDBRANCH  12  13
ENDBRANCH   1  11
TORSDOF 4
ENDMDL
