MODEL 1
REMARK VINA RESULT:      -6.9      0.000      0.000
REMARK  Name = 
REMARK  6 active torsions:
REMARK  status: ('A' for Active; 'I' for Inactive)
REMARK    1  A    between atoms: C_1  and  O_2
REMARK    2  A    between atoms: O_2  and  C_3
REMARK    3  A    between atoms: C_6  and  C_7
REMARK    4  A    between atoms: C_15  and  C_16
REMARK    5  A    between atoms: N_18  and  C_19
REMARK    6  A    between atoms: C_25  and  C_26
REMARK                            x       y       z     vdW  Elec       q    Type
REMARK                         _______ _______ _______ _____ _____    ______ ____
ROOT
ATOM      1  C   UNL     1      -1.465  12.686  19.159  0.00  0.00    +0.000 A 
ATOM      2  C   UNL     1      -0.462  12.859  18.213  0.00  0.00    +0.000 A 
ATOM      3  N   UNL     1       0.552  13.449  18.902  0.00  0.00    +0.000 N 
ATOM      4  N   UNL     1       1.781  13.866  18.531  0.00  0.00    +0.000 NA
ATOM      5  C   UNL     1       2.354  14.317  19.617  0.00  0.00    +0.000 A 
ATOM      6  N   UNL     1       3.616  14.856  19.692  0.00  0.00    +0.000 N 
ATOM      7  C   UNL     1       4.467  14.719  20.873  0.00  0.00    +0.000 C 
ATOM      8  C   UNL     1       5.001  16.100  21.245  0.00  0.00    +0.000 C 
ATOM      9  C   UNL     1       5.749  16.746  20.068  0.00  0.00    +0.000 C 
ATOM     10  C   UNL     1       4.870  16.741  18.806  0.00  0.00    +0.000 C 
ATOM     11  C   UNL     1       4.308  15.345  18.503  0.00  0.00    +0.000 C 
ATOM     12  S   UNL     1       1.362  14.283  21.124  0.00  0.00    +0.000 S 
ATOM     13  C   UNL     1       0.137  13.578  20.183  0.00  0.00    +0.000 A 
ATOM     14  N   UNL     1      -1.066  13.141  20.408  0.00  0.00    +0.000 NA
ENDROOT
BRANCH   1  18
ATOM     15  C   UNL     1      -5.347  11.053  18.537  0.00  0.00    +0.000 A 
ATOM     16  C   UNL     1      -5.120  11.972  19.558  0.00  0.00    +0.000 A 
ATOM     17  C   UNL     1      -3.843  12.505  19.752  0.00  0.00    +0.000 A 
ATOM     18  C   UNL     1      -2.774  12.100  18.943  0.00  0.00    +0.000 A 
ATOM     19  C   UNL     1      -3.003  11.160  17.934  0.00  0.00    +0.000 A 
ATOM     20  C   UNL     1      -4.286  10.637  17.730  0.00  0.00    +0.000 A 
BRANCH  15  22
ATOM     21  C   UNL     1      -7.219  10.150  19.657  0.00  0.00    +0.000 C 
ATOM     22  O   UNL     1      -6.635  10.600  18.440  0.00  0.00    +0.000 OA
ENDBRANCH  15  22
ENDBRANCH   1  18
BRANCH   9  23
ATOM     23  C   UNL     1       7.070  16.023  19.815  0.00  0.00    +0.000 C 
ATOM     24  O   UNL     1       7.759  15.577  20.728  0.00  0.00    +0.000 OA
ATOM     25  N   UNL     1       7.420  15.952  18.478  0.00  0.00    +0.000 N 
ATOM     26  H   UNL     1       7.109  16.722  17.902  0.00  0.00    +0.000 HD
BRANCH  25  27
ATOM     27  C   UNL     1       8.590  15.273  18.078  0.00  0.00    +0.000 A 
ATOM     28  C   UNL     1       8.590  13.871  18.012  0.00  0.00    +0.000 A 
ATOM     29  C   UNL     1       9.731  13.179  17.611  0.00  0.00    +0.000 A 
ATOM     30  C   UNL     1      10.879  13.891  17.280  0.00  0.00    +0.000 A 
ATOM     31 CL   UNL     1      12.299  13.045  16.805  0.00  0.00    +0.000 Cl
ATOM     32  C   UNL     1      10.892  15.286  17.343  0.00  0.00    +0.000 A 
ATOM     33  C   UNL     1       9.748  15.995  17.746  0.00  0.00    +0.000 A 
ATOM     34  C   UNL     1       9.822  17.491  17.873  0.00  0.00    +0.000 C 
ENDBRANCH  25  27
ENDBRANCH   9  23
TORSDOF 4
ENDMDL
MODEL 2
REMARK VINA RESULT:      -6.8      7.259     10.741
REMARK  Name = 
REMARK  6 active torsions:
REMARK  status: ('A' for Active; 'I' for Inactive)
REMARK    1  A    between atoms: C_1  and  O_2
REMARK    2  A    between atoms: O_2  and  C_3
REMARK    3  A    between atoms: C_6  and  C_7
REMARK    4  A    between atoms: C_15  and  C_16
REMARK    5  A    between atoms: N_18  and  C_19
REMARK    6  A    between atoms: C_25  and  C_26
REMARK                            x       y       z     vdW  Elec       q    Type
REMARK                         _______ _______ _______ _____ _____    ______ ____
ROOT
ATOM      1  C   UNL     1       1.898   7.406  19.996  0.00  0.00    +0.000 A 
ATOM      2  C   UNL     1       1.210   8.009  21.043  0.00  0.00    +0.000 A 
ATOM      3  N   UNL     1       0.988   9.280  20.612  0.00  0.00    +0.000 N 
ATOM      4  N   UNL     1       0.376  10.339  21.182  0.00  0.00    +0.000 NA
ATOM      5  C   UNL     1       0.409  11.299  20.294  0.00  0.00    +0.000 A 
ATOM      6  N   UNL     1      -0.091  12.567  20.466  0.00  0.00    +0.000 N 
ATOM      7  C   UNL     1      -0.656  13.352  19.370  0.00  0.00    +0.000 C 
ATOM      8  C   UNL     1      -0.021  14.740  19.393  0.00  0.00    +0.000 C 
ATOM      9  C   UNL     1      -0.222  15.424  20.753  0.00  0.00    +0.000 C 
ATOM     10  C   UNL     1       0.254  14.506  21.891  0.00  0.00    +0.000 C 
ATOM     11  C   UNL     1      -0.365  13.105  21.796  0.00  0.00    +0.000 C 
ATOM     12  S   UNL     1       1.247  10.928  18.740  0.00  0.00    +0.000 S 
ATOM     13  C   UNL     1       1.510   9.373  19.368  0.00  0.00    +0.000 A 
ATOM     14  N   UNL     1       2.074   8.285  18.936  0.00  0.00    +0.000 NA
ENDROOT
BRANCH   1  18
ATOM     15  C   UNL     1       3.410   3.428  19.865  0.00  0.00    +0.000 A 
ATOM     16  C   UNL     1       4.110   4.474  19.268  0.00  0.00    +0.000 A 
ATOM     17  C   UNL     1       3.608   5.776  19.320  0.00  0.00    +0.000 A 
ATOM     18  C   UNL     1       2.382   6.041  19.945  0.00  0.00    +0.000 A 
ATOM     19  C   UNL     1       1.672   4.984  20.522  0.00  0.00    +0.000 A 
ATOM     20  C   UNL     1       2.184   3.681  20.484  0.00  0.00    +0.000 A 
BRANCH  15  22
ATOM     21  C   UNL     1       3.616   1.438  18.613  0.00  0.00    +0.000 C 
ATOM     22  O   UNL     1       3.998   2.198  19.753  0.00  0.00    +0.000 OA
ENDBRANCH  15  22
ENDBRANCH   1  18
BRANCH   9  23
ATOM     23  C   UNL     1      -1.686  15.813  20.942  0.00  0.00    +0.000 C 
ATOM     24  O   UNL     1      -2.319  16.422  20.085  0.00  0.00    +0.000 OA
ATOM     25  N   UNL     1      -2.207  15.443  22.170  0.00  0.00    +0.000 N 
ATOM     26  H   UNL     1      -1.551  15.427  22.939  0.00  0.00    +0.000 HD
BRANCH  25  27
ATOM     27  C   UNL     1      -3.562  15.689  22.478  0.00  0.00    +0.000 A 
ATOM     28  C   UNL     1      -4.547  14.790  22.040  0.00  0.00    +0.000 A 
ATOM     29  C   UNL     1      -5.890  15.009  22.341  0.00  0.00    +0.000 A 
ATOM     30  C   UNL     1      -6.251  16.133  23.076  0.00  0.00    +0.000 A 
ATOM     31 CL   UNL     1      -7.909  16.422  23.432  0.00  0.00    +0.000 Cl
ATOM     32  C   UNL     1      -5.280  17.035  23.515  0.00  0.00    +0.000 A 
ATOM     33  C   UNL     1      -3.922  16.826  23.219  0.00  0.00    +0.000 A 
ATOM     34  C   UNL     1      -2.914  17.857  23.646  0.00  0.00    +0.000 C 
ENDBRANCH  25  27
ENDBRANCH   9  23
TORSDOF 4
ENDMDL
MODEL 3
REMARK VINA RESULT:      -6.7      7.101     10.341
REMARK  Name = 
REMARK  6 active torsions:
REMARK  status: ('A' for Active; 'I' for Inactive)
REMARK    1  A    between atoms: C_1  and  O_2
REMARK    2  A    between atoms: O_2  and  C_3
REMARK    3  A    between atoms: C_6  and  C_7
REMARK    4  A    between atoms: C_15  and  C_16
REMARK    5  A    between atoms: N_18  and  C_19
REMARK    6  A    between atoms: C_25  and  C_26
REMARK                            x       y       z     vdW  Elec       q    Type
REMARK                         _______ _______ _______ _____ _____    ______ ____
ROOT
ATOM      1  C   UNL     1       1.856   7.541  19.747  0.00  0.00    +0.000 A 
ATOM      2  C   UNL     1       1.264   8.191  20.824  0.00  0.00    +0.000 A 
ATOM      3  N   UNL     1       1.127   9.479  20.405  0.00  0.00    +0.000 N 
ATOM      4  N   UNL     1       0.628  10.581  21.002  0.00  0.00    +0.000 NA
ATOM      5  C   UNL     1       0.700  11.539  20.116  0.00  0.00    +0.000 A 
ATOM      6  N   UNL     1       0.312  12.843  20.312  0.00  0.00    +0.000 N 
ATOM      7  C   UNL     1      -0.234  13.676  19.241  0.00  0.00    +0.000 C 
ATOM      8  C   UNL     1       0.512  15.008  19.240  0.00  0.00    +0.000 C 
ATOM      9  C   UNL     1       0.425  15.699  20.609  0.00  0.00    +0.000 C 
ATOM     10  C   UNL     1       0.873  14.740  21.724  0.00  0.00    +0.000 C 
ATOM     11  C   UNL     1       0.139  13.394  21.653  0.00  0.00    +0.000 C 
ATOM     12  S   UNL     1       1.440  11.110  18.527  0.00  0.00    +0.000 S 
ATOM     13  C   UNL     1       1.603   9.535  19.140  0.00  0.00    +0.000 A 
ATOM     14  N   UNL     1       2.058   8.408  18.682  0.00  0.00    +0.000 NA
ENDROOT
BRANCH   1  18
ATOM     15  C   UNL     1       2.859   3.407  19.568  0.00  0.00    +0.000 A 
ATOM     16  C   UNL     1       2.245   3.940  20.700  0.00  0.00    +0.000 A 
ATOM     17  C   UNL     1       1.916   5.297  20.747  0.00  0.00    +0.000 A 
ATOM     18  C   UNL     1       2.226   6.141  19.673  0.00  0.00    +0.000 A 
ATOM     19  C   UNL     1       2.864   5.605  18.550  0.00  0.00    +0.000 A 
ATOM     20  C   UNL     1       3.179   4.242  18.496  0.00  0.00    +0.000 A 
BRANCH  15  22
ATOM     21  C   UNL     1       3.658   1.491  18.444  0.00  0.00    +0.000 C 
ATOM     22  O   UNL     1       3.132   2.068  19.634  0.00  0.00    +0.000 OA
ENDBRANCH  15  22
ENDBRANCH   1  18
BRANCH   9  23
ATOM     23  C   UNL     1      -0.995  16.204  20.861  0.00  0.00    +0.000 C 
ATOM     24  O   UNL     1      -1.738  16.552  19.949  0.00  0.00    +0.000 OA
ATOM     25  N   UNL     1      -1.337  16.258  22.201  0.00  0.00    +0.000 N 
ATOM     26  H   UNL     1      -0.577  16.445  22.841  0.00  0.00    +0.000 HD
BRANCH  25  27
ATOM     27  C   UNL     1      -2.631  16.658  22.595  0.00  0.00    +0.000 A 
ATOM     28  C   UNL     1      -2.916  18.023  22.755  0.00  0.00    +0.000 A 
ATOM     29  C   UNL     1      -4.190  18.442  23.135  0.00  0.00    +0.000 A 
ATOM     30  C   UNL     1      -5.181  17.493  23.362  0.00  0.00    +0.000 A 
ATOM     31 CL   UNL     1      -6.750  17.999  23.853  0.00  0.00    +0.000 Cl
ATOM     32  C   UNL     1      -4.908  16.132  23.208  0.00  0.00    +0.000 A 
ATOM     33  C   UNL     1      -3.628  15.697  22.825  0.00  0.00    +0.000 A 
ATOM     34  C   UNL     1      -3.352  14.221  22.741  0.00  0.00    +0.000 C 
ENDBRANCH  25  27
ENDBRANCH   9  23
TORSDOF 4
ENDMDL
MODEL 4
REMARK VINA RESULT:      -6.7      2.331      2.787
REMARK  Name = 
REMARK  6 active torsions:
REMARK  status: ('A' for Active; 'I' for Inactive)
REMARK    1  A    between atoms: C_1  and  O_2
REMARK    2  A    between atoms: O_2  and  C_3
REMARK    3  A    between atoms: C_6  and  C_7
REMARK    4  A    between atoms: C_15  and  C_16
REMARK    5  A    between atoms: N_18  and  C_19
REMARK    6  A    between atoms: C_25  and  C_26
REMARK                            x       y       z     vdW  Elec       q    Type
REMARK                         _______ _______ _______ _____ _____    ______ ____
ROOT
ATOM      1  C   UNL     1      -1.791  13.780  22.025  0.00  0.00    +0.000 A 
ATOM      2  C   UNL     1      -0.942  13.039  21.210  0.00  0.00    +0.000 A 
ATOM      3  N   UNL     1       0.142  13.844  21.035  0.00  0.00    +0.000 N 
ATOM      4  N   UNL     1       1.289  13.685  20.343  0.00  0.00    +0.000 NA
ATOM      5  C   UNL     1       1.999  14.760  20.565  0.00  0.00    +0.000 A 
ATOM      6  N   UNL     1       3.240  15.024  20.038  0.00  0.00    +0.000 N 
ATOM      7  C   UNL     1       4.258  15.793  20.753  0.00  0.00    +0.000 C 
ATOM      8  C   UNL     1       4.795  16.870  19.814  0.00  0.00    +0.000 C 
ATOM      9  C   UNL     1       5.343  16.259  18.515  0.00  0.00    +0.000 C 
ATOM     10  C   UNL     1       4.291  15.343  17.869  0.00  0.00    +0.000 C 
ATOM     11  C   UNL     1       3.736  14.313  18.862  0.00  0.00    +0.000 C 
ATOM     12  S   UNL     1       1.238  16.026  21.602  0.00  0.00    +0.000 S 
ATOM     13  C   UNL     1      -0.087  14.974  21.742  0.00  0.00    +0.000 A 
ATOM     14  N   UNL     1      -1.230  15.004  22.360  0.00  0.00    +0.000 NA
ENDROOT
BRANCH   1  18
ATOM     15  C   UNL     1      -5.612  12.657  23.532  0.00  0.00    +0.000 A 
ATOM     16  C   UNL     1      -4.491  12.647  24.360  0.00  0.00    +0.000 A 
ATOM     17  C   UNL     1      -3.243  13.021  23.857  0.00  0.00    +0.000 A 
ATOM     18  C   UNL     1      -3.097  13.380  22.511  0.00  0.00    +0.000 A 
ATOM     19  C   UNL     1      -4.221  13.365  21.679  0.00  0.00    +0.000 A 
ATOM     20  C   UNL     1      -5.475  13.006  22.187  0.00  0.00    +0.000 A 
BRANCH  15  22
ATOM     21  C   UNL     1      -7.869  12.025  23.251  0.00  0.00    +0.000 C 
ATOM     22  O   UNL     1      -6.780  12.275  24.132  0.00  0.00    +0.000 OA
ENDBRANCH  15  22
ENDBRANCH   1  18
BRANCH   9  23
ATOM     23  C   UNL     1       6.636  15.495  18.790  0.00  0.00    +0.000 C 
ATOM     24  O   UNL     1       7.105  15.383  19.919  0.00  0.00    +0.000 OA
ATOM     25  N   UNL     1       7.231  14.978  17.652  0.00  0.00    +0.000 N 
ATOM     26  H   UNL     1       7.088  15.508  16.803  0.00  0.00    +0.000 HD
BRANCH  25  27
ATOM     27  C   UNL     1       8.407  14.205  17.745  0.00  0.00    +0.000 A 
ATOM     28  C   UNL     1       8.313  12.807  17.832  0.00  0.00    +0.000 A 
ATOM     29  C   UNL     1       9.462  12.023  17.916  0.00  0.00    +0.000 A 
ATOM     30  C   UNL     1      10.709  12.638  17.920  0.00  0.00    +0.000 A 
ATOM     31 CL   UNL     1      12.132  11.680  18.045  0.00  0.00    +0.000 Cl
ATOM     32  C   UNL     1      10.815  14.028  17.836  0.00  0.00    +0.000 A 
ATOM     33  C   UNL     1       9.664  14.830  17.751  0.00  0.00    +0.000 A 
ATOM     34  C   UNL     1       9.815  16.325  17.736  0.00  0.00    +0.000 C 
ENDBRANCH  25  27
ENDBRANCH   9  23
TORSDOF 4
ENDMDL
MODEL 5
REMARK VINA RESULT:      -6.7      7.222     10.807
REMARK  Name = 
REMARK  6 active torsions:
REMARK  status: ('A' for Active; 'I' for Inactive)
REMARK    1  A    between atoms: C_1  and  O_2
REMARK    2  A    between atoms: O_2  and  C_3
REMARK    3  A    between atoms: C_6  and  C_7
REMARK    4  A    between atoms: C_15  and  C_16
REMARK    5  A    between atoms: N_18  and  C_19
REMARK    6  A    between atoms: C_25  and  C_26
REMARK                            x       y       z     vdW  Elec       q    Type
REMARK                         _______ _______ _______ _____ _____    ______ ____
ROOT
ATOM      1  C   UNL     1       2.250   7.001  19.425  0.00  0.00    +0.000 A 
ATOM      2  C   UNL     1       1.690   7.591  20.552  0.00  0.00    +0.000 A 
ATOM      3  N   UNL     1       1.373   8.851  20.149  0.00  0.00    +0.000 N 
ATOM      4  N   UNL     1       0.810   9.896  20.791  0.00  0.00    +0.000 NA
ATOM      5  C   UNL     1       0.694  10.849  19.903  0.00  0.00    +0.000 A 
ATOM      6  N   UNL     1       0.182  12.103  20.135  0.00  0.00    +0.000 N 
ATOM      7  C   UNL     1      -0.549  12.861  19.120  0.00  0.00    +0.000 C 
ATOM      8  C   UNL     1       0.041  14.267  19.052  0.00  0.00    +0.000 C 
ATOM      9  C   UNL     1       0.002  14.957  20.424  0.00  0.00    +0.000 C 
ATOM     10  C   UNL     1       0.654  14.064  21.492  0.00  0.00    +0.000 C 
ATOM     11  C   UNL     1       0.073  12.644  21.487  0.00  0.00    +0.000 C 
ATOM     12  S   UNL     1       1.328  10.490  18.252  0.00  0.00    +0.000 S 
ATOM     13  C   UNL     1       1.721   8.949  18.846  0.00  0.00    +0.000 A 
ATOM     14  N   UNL     1       2.256   7.875  18.347  0.00  0.00    +0.000 NA
ENDROOT
BRANCH   1  18
ATOM     15  C   UNL     1       3.685   3.002  19.146  0.00  0.00    +0.000 A 
ATOM     16  C   UNL     1       3.065   3.454  20.309  0.00  0.00    +0.000 A 
ATOM     17  C   UNL     1       2.594   4.766  20.389  0.00  0.00    +0.000 A 
ATOM     18  C   UNL     1       2.766   5.650  19.316  0.00  0.00    +0.000 A 
ATOM     19  C   UNL     1       3.410   5.198  18.160  0.00  0.00    +0.000 A 
ATOM     20  C   UNL     1       3.868   3.878  18.074  0.00  0.00    +0.000 A 
BRANCH  15  22
ATOM     21  C   UNL     1       4.846   1.326  20.335  0.00  0.00    +0.000 C 
ATOM     22  O   UNL     1       4.104   1.700  19.181  0.00  0.00    +0.000 OA
ENDBRANCH  15  22
ENDBRANCH   1  18
BRANCH   9  23
ATOM     23  C   UNL     1      -1.435  15.303  20.806  0.00  0.00    +0.000 C 
ATOM     24  O   UNL     1      -2.080  16.166  20.218  0.00  0.00    +0.000 OA
ATOM     25  N   UNL     1      -1.916  14.579  21.883  0.00  0.00    +0.000 N 
ATOM     26  H   UNL     1      -1.227  14.306  22.571  0.00  0.00    +0.000 HD
BRANCH  25  27
ATOM     27  C   UNL     1      -3.244  14.749  22.327  0.00  0.00    +0.000 A 
ATOM     28  C   UNL     1      -3.525  15.693  23.327  0.00  0.00    +0.000 A 
ATOM     29  C   UNL     1      -4.831  15.885  23.775  0.00  0.00    +0.000 A 
ATOM     30  C   UNL     1      -5.859  15.126  23.226  0.00  0.00    +0.000 A 
ATOM     31 CL   UNL     1      -7.470  15.339  23.788  0.00  0.00    +0.000 Cl
ATOM     32  C   UNL     1      -5.591  14.182  22.232  0.00  0.00    +0.000 A 
ATOM     33  C   UNL     1      -4.279  13.979  21.772  0.00  0.00    +0.000 A 
ATOM     34  C   UNL     1      -4.019  12.904  20.754  0.00  0.00    +0.000 C 
ENDBRANCH  25  27
ENDBRANCH   9  23
TORSDOF 4
ENDMDL
MODEL 6
REMARK VINA RESULT:      -6.6      7.234     10.892
REMARK  Name = 
REMARK  6 active torsions:
REMARK  status: ('A' for Active; 'I' for Inactive)
REMARK    1  A    between atoms: C_1  and  O_2
REMARK    2  A    between atoms: O_2  and  C_3
REMARK    3  A    between atoms: C_6  and  C_7
REMARK    4  A    between atoms: C_15  and  C_16
REMARK    5  A    between atoms: N_18  and  C_19
REMARK    6  A    between atoms: C_25  and  C_26
REMARK                            x       y       z     vdW  Elec       q    Type
REMARK                         _______ _______ _______ _____ _____    ______ ____
ROOT
ATOM      1  C   UNL     1       2.157   7.388  18.987  0.00  0.00    +0.000 A 
ATOM      2  C   UNL     1       1.454   7.792  20.116  0.00  0.00    +0.000 A 
ATOM      3  N   UNL     1       1.185   9.107  19.892  0.00  0.00    +0.000 N 
ATOM      4  N   UNL     1       0.539  10.040  20.622  0.00  0.00    +0.000 NA
ATOM      5  C   UNL     1       0.533  11.128  19.898  0.00  0.00    +0.000 A 
ATOM      6  N   UNL     1      -0.011  12.335  20.269  0.00  0.00    +0.000 N 
ATOM      7  C   UNL     1      -0.609  13.263  19.310  0.00  0.00    +0.000 C 
ATOM      8  C   UNL     1      -0.023  14.651  19.553  0.00  0.00    +0.000 C 
ATOM      9  C   UNL     1      -0.241  15.104  21.005  0.00  0.00    +0.000 C 
ATOM     10  C   UNL     1       0.273  14.035  21.984  0.00  0.00    +0.000 C 
ATOM     11  C   UNL     1      -0.296  12.645  21.667  0.00  0.00    +0.000 C 
ATOM     12  S   UNL     1       1.376  11.039  18.306  0.00  0.00    +0.000 S 
ATOM     13  C   UNL     1       1.698   9.414  18.679  0.00  0.00    +0.000 A 
ATOM     14  N   UNL     1       2.297   8.429  18.080  0.00  0.00    +0.000 NA
ENDROOT
BRANCH   1  18
ATOM     15  C   UNL     1       3.691   3.514  18.113  0.00  0.00    +0.000 A 
ATOM     16  C   UNL     1       2.439   3.904  17.643  0.00  0.00    +0.000 A 
ATOM     17  C   UNL     1       1.946   5.179  17.932  0.00  0.00    +0.000 A 
ATOM     18  C   UNL     1       2.690   6.067  18.720  0.00  0.00    +0.000 A 
ATOM     19  C   UNL     1       3.936   5.661  19.209  0.00  0.00    +0.000 A 
ATOM     20  C   UNL     1       4.436   4.389  18.906  0.00  0.00    +0.000 A 
BRANCH  15  22
ATOM     21  C   UNL     1       3.738   1.229  18.705  0.00  0.00    +0.000 C 
ATOM     22  O   UNL     1       4.070   2.245  17.767  0.00  0.00    +0.000 OA
ENDBRANCH  15  22
ENDBRANCH   1  18
BRANCH   9  23
ATOM     23  C   UNL     1      -1.717  15.405  21.253  0.00  0.00    +0.000 C 
ATOM     24  O   UNL     1      -2.389  16.076  20.475  0.00  0.00    +0.000 OA
ATOM     25  N   UNL     1      -2.202  14.880  22.438  0.00  0.00    +0.000 N 
ATOM     26  H   UNL     1      -1.533  14.809  23.193  0.00  0.00    +0.000 HD
BRANCH  25  27
ATOM     27  C   UNL     1      -3.561  15.032  22.787  0.00  0.00    +0.000 A 
ATOM     28  C   UNL     1      -4.150  16.305  22.742  0.00  0.00    +0.000 A 
ATOM     29  C   UNL     1      -5.493  16.477  23.074  0.00  0.00    +0.000 A 
ATOM     30  C   UNL     1      -6.248  15.374  23.459  0.00  0.00    +0.000 A 
ATOM     31 CL   UNL     1      -7.899  15.579  23.891  0.00  0.00    +0.000 Cl
ATOM     32  C   UNL     1      -5.671  14.103  23.508  0.00  0.00    +0.000 A 
ATOM     33  C   UNL     1      -4.319  13.916  23.177  0.00  0.00    +0.000 A 
ATOM     34  C   UNL     1      -3.715  12.546  23.313  0.00  0.00    +0.000 C 
ENDBRANCH  25  27
ENDBRANCH   9  23
TORSDOF 4
ENDMDL
MODEL 7
REMARK VINA RESULT:      -6.5      1.333      1.648
REMARK  Name = 
REMARK  6 active torsions:
REMARK  status: ('A' for Active; 'I' for Inactive)
REMARK    1  A    between atoms: C_1  and  O_2
REMARK    2  A    between atoms: O_2  and  C_3
REMARK    3  A    between atoms: C_6  and  C_7
REMARK    4  A    between atoms: C_15  and  C_16
REMARK    5  A    between atoms: N_18  and  C_19
REMARK    6  A    between atoms: C_25  and  C_26
REMARK                            x       y       z     vdW  Elec       q    Type
REMARK                         _______ _______ _______ _____ _____    ______ ____
ROOT
ATOM      1  C   UNL     1      -1.188  12.795  19.174  0.00  0.00    +0.000 A 
ATOM      2  C   UNL     1      -0.247  13.027  18.178  0.00  0.00    +0.000 A 
ATOM      3  N   UNL     1       0.814  13.567  18.837  0.00  0.00    +0.000 N 
ATOM      4  N   UNL     1       2.019  14.003  18.416  0.00  0.00    +0.000 NA
ATOM      5  C   UNL     1       2.665  14.379  19.489  0.00  0.00    +0.000 A 
ATOM      6  N   UNL     1       3.933  14.908  19.518  0.00  0.00    +0.000 N 
ATOM      7  C   UNL     1       4.857  14.690  20.629  0.00  0.00    +0.000 C 
ATOM      8  C   UNL     1       5.425  16.041  21.056  0.00  0.00    +0.000 C 
ATOM      9  C   UNL     1       6.100  16.761  19.878  0.00  0.00    +0.000 C 
ATOM     10  C   UNL     1       5.142  16.843  18.679  0.00  0.00    +0.000 C 
ATOM     11  C   UNL     1       4.551  15.472  18.321  0.00  0.00    +0.000 C 
ATOM     12  S   UNL     1       1.772  14.248  21.052  0.00  0.00    +0.000 S 
ATOM     13  C   UNL     1       0.483  13.612  20.148  0.00  0.00    +0.000 A 
ATOM     14  N   UNL     1      -0.706  13.165  20.421  0.00  0.00    +0.000 NA
ENDROOT
BRANCH   1  18
ATOM     15  C   UNL     1      -5.115  11.221  18.695  0.00  0.00    +0.000 A 
ATOM     16  C   UNL     1      -4.827  12.105  19.732  0.00  0.00    +0.000 A 
ATOM     17  C   UNL     1      -3.536  12.619  19.878  0.00  0.00    +0.000 A 
ATOM     18  C   UNL     1      -2.513  12.229  19.005  0.00  0.00    +0.000 A 
ATOM     19  C   UNL     1      -2.803  11.324  17.980  0.00  0.00    +0.000 A 
ATOM     20  C   UNL     1      -4.100  10.821  17.823  0.00  0.00    +0.000 A 
BRANCH  15  22
ATOM     21  C   UNL     1      -7.159  10.956  19.846  0.00  0.00    +0.000 C 
ATOM     22  O   UNL     1      -6.411  10.785  18.648  0.00  0.00    +0.000 OA
ENDBRANCH  15  22
ENDBRANCH   1  18
BRANCH   9  23
ATOM     23  C   UNL     1       7.397  16.052  19.494  0.00  0.00    +0.000 C 
ATOM     24  O   UNL     1       8.278  16.604  18.841  0.00  0.00    +0.000 OA
ATOM     25  N   UNL     1       7.462  14.737  19.922  0.00  0.00    +0.000 N 
ATOM     26  H   UNL     1       6.577  14.250  19.978  0.00  0.00    +0.000 HD
BRANCH  25  27
ATOM     27  C   UNL     1       8.616  13.961  19.686  0.00  0.00    +0.000 A 
ATOM     28  C   UNL     1       9.663  13.975  20.621  0.00  0.00    +0.000 A 
ATOM     29  C   UNL     1      10.809  13.210  20.413  0.00  0.00    +0.000 A 
ATOM     30  C   UNL     1      10.913  12.434  19.264  0.00  0.00    +0.000 A 
ATOM     31 CL   UNL     1      12.333  11.504  18.988  0.00  0.00    +0.000 Cl
ATOM     32  C   UNL     1       9.878  12.414  18.327  0.00  0.00    +0.000 A 
ATOM     33  C   UNL     1       8.717  13.180  18.524  0.00  0.00    +0.000 A 
ATOM     34  C   UNL     1       7.657  13.190  17.458  0.00  0.00    +0.000 C 
ENDBRANCH  25  27
ENDBRANCH   9  23
TORSDOF 4
ENDMDL
MODEL 8
REMARK VINA RESULT:      -6.4      7.617      8.670
REMARK  Name = 
REMARK  6 active torsions:
REMARK  status: ('A' for Active; 'I' for Inactive)
REMARK    1  A    between atoms: C_1  and  O_2
REMARK    2  A    between atoms: O_2  and  C_3
REMARK    3  A    between atoms: C_6  and  C_7
REMARK    4  A    between atoms: C_15  and  C_16
REMARK    5  A    between atoms: N_18  and  C_19
REMARK    6  A    between atoms: C_25  and  C_26
REMARK                            x       y       z     vdW  Elec       q    Type
REMARK                         _______ _______ _______ _____ _____    ______ ____
ROOT
ATOM      1  C   UNL     1      -0.421  10.367  19.383  0.00  0.00    +0.000 A 
ATOM      2  C   UNL     1       0.246  10.282  18.166  0.00  0.00    +0.000 A 
ATOM      3  N   UNL     1       1.196   9.330  18.369  0.00  0.00    +0.000 N 
ATOM      4  N   UNL     1       2.150   8.813  17.568  0.00  0.00    +0.000 NA
ATOM      5  C   UNL     1       2.752   7.888  18.270  0.00  0.00    +0.000 A 
ATOM      6  N   UNL     1       3.805   7.115  17.842  0.00  0.00    +0.000 N 
ATOM      7  C   UNL     1       4.008   5.737  18.286  0.00  0.00    +0.000 C 
ATOM      8  C   UNL     1       5.457   5.586  18.743  0.00  0.00    +0.000 C 
ATOM      9  C   UNL     1       6.438   5.983  17.629  0.00  0.00    +0.000 C 
ATOM     10  C   UNL     1       6.102   7.383  17.091  0.00  0.00    +0.000 C 
ATOM     11  C   UNL     1       4.623   7.507  16.698  0.00  0.00    +0.000 C 
ATOM     12  S   UNL     1       2.182   7.668  19.967  0.00  0.00    +0.000 S 
ATOM     13  C   UNL     1       1.048   8.889  19.639  0.00  0.00    +0.000 A 
ATOM     14  N   UNL     1       0.096   9.469  20.306  0.00  0.00    +0.000 NA
ENDROOT
BRANCH   1  18
ATOM     15  C   UNL     1      -3.735  12.877  20.304  0.00  0.00    +0.000 A 
ATOM     16  C   UNL     1      -3.682  12.187  19.095  0.00  0.00    +0.000 A 
ATOM     17  C   UNL     1      -2.592  11.363  18.804  0.00  0.00    +0.000 A 
ATOM     18  C   UNL     1      -1.529  11.244  19.708  0.00  0.00    +0.000 A 
ATOM     19  C   UNL     1      -1.577  11.957  20.910  0.00  0.00    +0.000 A 
ATOM     20  C   UNL     1      -2.676  12.771  21.209  0.00  0.00    +0.000 A 
BRANCH  15  22
ATOM     21  C   UNL     1      -5.911  13.040  21.204  0.00  0.00    +0.000 C 
ATOM     22  O   UNL     1      -4.849  13.651  20.482  0.00  0.00    +0.000 OA
ENDBRANCH  15  22
ENDBRANCH   1  18
BRANCH   9  23
ATOM     23  C   UNL     1       6.418   4.947  16.507  0.00  0.00    +0.000 C 
ATOM     24  O   UNL     1       6.338   3.742  16.728  0.00  0.00    +0.000 OA
ATOM     25  N   UNL     1       6.528   5.495  15.241  0.00  0.00    +0.000 N 
ATOM     26  H   UNL     1       7.068   6.348  15.177  0.00  0.00    +0.000 HD
BRANCH  25  27
ATOM     27  C   UNL     1       6.477   4.672  14.096  0.00  0.00    +0.000 A 
ATOM     28  C   UNL     1       5.462   3.709  13.980  0.00  0.00    +0.000 A 
ATOM     29  C   UNL     1       5.387   2.891  12.854  0.00  0.00    +0.000 A 
ATOM     30  C   UNL     1       6.332   3.032  11.843  0.00  0.00    +0.000 A 
ATOM     31 CL   UNL     1       6.260   2.013  10.461  0.00  0.00    +0.000 Cl
ATOM     32  C   UNL     1       7.346   3.986  11.949  0.00  0.00    +0.000 A 
ATOM     33  C   UNL     1       7.434   4.817  13.079  0.00  0.00    +0.000 A 
ATOM     34  C   UNL     1       8.581   5.781  13.191  0.00  0.00    +0.000 C 
ENDBRANCH  25  27
ENDBRANCH   9  23
TORSDOF 4
ENDMDL
MODEL 9
REMARK VINA RESULT:      -6.4      7.596      8.663
REMARK  Name = 
REMARK  6 active torsions:
REMARK  status: ('A' for Active; 'I' for Inactive)
REMARK    1  A    between atoms: C_1  and  O_2
REMARK    2  A    between atoms: O_2  and  C_3
REMARK    3  A    between atoms: C_6  and  C_7
REMARK    4  A    between atoms: C_15  and  C_16
REMARK    5  A    between atoms: N_18  and  C_19
REMARK    6  A    between atoms: C_25  and  C_26
REMARK                            x       y       z     vdW  Elec       q    Type
REMARK                         _______ _______ _______ _____ _____    ______ ____
ROOT
ATOM      1  C   UNL     1      -0.122  10.074  19.058  0.00  0.00    +0.000 A 
ATOM      2  C   UNL     1       0.633  10.065  17.891  0.00  0.00    +0.000 A 
ATOM      3  N   UNL     1       1.607   9.144  18.128  0.00  0.00    +0.000 N 
ATOM      4  N   UNL     1       2.638   8.699  17.380  0.00  0.00    +0.000 NA
ATOM      5  C   UNL     1       3.228   7.773  18.090  0.00  0.00    +0.000 A 
ATOM      6  N   UNL     1       4.342   7.062  17.712  0.00  0.00    +0.000 N 
ATOM      7  C   UNL     1       4.573   5.676  18.118  0.00  0.00    +0.000 C 
ATOM      8  C   UNL     1       5.990   5.567  18.674  0.00  0.00    +0.000 C 
ATOM      9  C   UNL     1       7.031   6.048  17.651  0.00  0.00    +0.000 C 
ATOM     10  C   UNL     1       6.672   7.453  17.142  0.00  0.00    +0.000 C 
ATOM     11  C   UNL     1       5.222   7.532  16.646  0.00  0.00    +0.000 C 
ATOM     12  S   UNL     1       2.548   7.463  19.732  0.00  0.00    +0.000 S 
ATOM     13  C   UNL     1       1.388   8.648  19.366  0.00  0.00    +0.000 A 
ATOM     14  N   UNL     1       0.366   9.162  19.983  0.00  0.00    +0.000 NA
ENDROOT
BRANCH   1  18
ATOM     15  C   UNL     1      -3.486  12.544  19.898  0.00  0.00    +0.000 A 
ATOM     16  C   UNL     1      -2.421  12.467  20.793  0.00  0.00    +0.000 A 
ATOM     17  C   UNL     1      -1.320  11.658  20.506  0.00  0.00    +0.000 A 
ATOM     18  C   UNL     1      -1.288  10.891  19.334  0.00  0.00    +0.000 A 
ATOM     19  C   UNL     1      -2.370  10.954  18.451  0.00  0.00    +0.000 A 
ATOM     20  C   UNL     1      -3.467  11.778  18.731  0.00  0.00    +0.000 A 
BRANCH  15  22
ATOM     21  C   UNL     1      -4.527  13.721  21.661  0.00  0.00    +0.000 C 
ATOM     22  O   UNL     1      -4.508  13.370  20.282  0.00  0.00    +0.000 OA
ENDBRANCH  15  22
ENDBRANCH   1  18
BRANCH   9  23
ATOM     23  C   UNL     1       7.136   5.057  16.493  0.00  0.00    +0.000 C 
ATOM     24  O   UNL     1       7.711   3.979  16.603  0.00  0.00    +0.000 OA
ATOM     25  N   UNL     1       6.554   5.507  15.321  0.00  0.00    +0.000 N 
ATOM     26  H   UNL     1       6.573   6.508  15.177  0.00  0.00    +0.000 HD
BRANCH  25  27
ATOM     27  C   UNL     1       6.526   4.687  14.173  0.00  0.00    +0.000 A 
ATOM     28  C   UNL     1       5.538   3.698  14.052  0.00  0.00    +0.000 A 
ATOM     29  C   UNL     1       5.486   2.882  12.923  0.00  0.00    +0.000 A 
ATOM     30  C   UNL     1       6.428   3.051  11.915  0.00  0.00    +0.000 A 
ATOM     31 CL   UNL     1       6.385   2.035  10.528  0.00  0.00    +0.000 Cl
ATOM     32  C   UNL     1       7.417   4.032  12.025  0.00  0.00    +0.000 A 
ATOM     33  C   UNL     1       7.481   4.860  13.158  0.00  0.00    +0.000 A 
ATOM     34  C   UNL     1       8.602   5.854  13.275  0.00  0.00    +0.000 C 
ENDBRANCH  25  27
ENDBRANCH   9  23
TORSDOF 4
ENDMDL
