MODEL 1
REMARK VINA RESULT:      -7.3      0.000      0.000
REMARK  Name = 
REMARK  4 active torsions:
REMARK  status: ('A' for Active; 'I' for Inactive)
REMARK    1  A    between atoms: C_12  and  N_13
REMARK    2  A    between atoms: N_13  and  C_14
REMARK    3  A    between atoms: C_18  and  O_19
REMARK    4  A    between atoms: C_21  and  C_22
REMARK                            x       y       z     vdW  Elec       q    Type
REMARK                         _______ _______ _______ _____ _____    ______ ____
ROOT
ATOM      1  O   UNL     1      -1.814   9.768  17.259  0.00  0.00    +0.000 OA
ATOM      2  C   UNL     1      -2.193  10.482  18.188  0.00  0.00    +0.000 A 
ATOM      3  N   UNL     1      -3.471  10.897  18.172  0.00  0.00    +0.000 N 
ATOM      4  C   UNL     1      -3.914  11.923  18.948  0.00  0.00    +0.000 A 
ATOM      5  N   UNL     1      -5.202  12.339  18.679  0.00  0.00    +0.000 N 
ATOM      6  C   UNL     1      -5.897  12.140  17.390  0.00  0.00    +0.000 C 
ATOM      7  C   UNL     1      -6.523  13.456  16.909  0.00  0.00    +0.000 C 
ATOM      8  O   UNL     1      -7.400  14.003  17.902  0.00  0.00    +0.000 OA
ATOM      9  C   UNL     1      -6.674  14.259  19.117  0.00  0.00    +0.000 C 
ATOM     10  C   UNL     1      -6.063  12.970  19.685  0.00  0.00    +0.000 C 
ATOM     11  N   UNL     1      -3.139  12.447  19.854  0.00  0.00    +0.000 NA
ATOM     12  C   UNL     1      -1.801  12.046  19.987  0.00  0.00    +0.000 A 
ATOM     13  C   UNL     1      -1.319  10.990  19.278  0.00  0.00    +0.000 A 
ATOM     14  H   UNL     1      -4.043  10.503  17.464  0.00  0.00    +0.000 HD
ENDROOT
BRANCH  13  15
ATOM     15  C   UNL     1      -0.015  10.406  19.339  0.00  0.00    +0.000 A 
ATOM     16  N   UNL     1       0.890  10.259  18.386  0.00  0.00    +0.000 NA
ATOM     17  C   UNL     1       1.641   9.116  18.637  0.00  0.00    +0.000 A 
ATOM     18  C   UNL     1       2.524   8.498  17.734  0.00  0.00    +0.000 A 
ATOM     19  C   UNL     1       3.035   7.227  18.022  0.00  0.00    +0.000 A 
ATOM     20  C   UNL     1       2.708   6.585  19.214  0.00  0.00    +0.000 A 
ATOM     21  C   UNL     1       1.922   7.225  20.176  0.00  0.00    +0.000 A 
ATOM     22  C   UNL     1       1.415   8.499  19.867  0.00  0.00    +0.000 A 
ATOM     23  S   UNL     1       0.481   9.581  20.818  0.00  0.00    +0.000 S 
ENDBRANCH  13  15
BRANCH  12  24
ATOM     24  N   UNL     1      -1.002  12.849  20.856  0.00  0.00    +0.000 N 
ATOM     25  H   UNL     1      -1.583  13.008  21.675  0.00  0.00    +0.000 HD
BRANCH  24  26
ATOM     26  C   UNL     1      -0.499  14.184  20.343  0.00  0.00    +0.000 C 
ATOM     27  C   UNL     1       0.485  14.840  21.337  0.00  0.00    +0.000 C 
ATOM     28  N   UNL     1       1.724  14.054  21.574  0.00  0.00    +0.000 NA
ATOM     29  C   UNL     1       2.112  13.207  20.424  0.00  0.00    +0.000 C 
ATOM     30  C   UNL     1       1.764  13.865  19.089  0.00  0.00    +0.000 C 
ATOM     31  C   UNL     1       0.251  14.168  18.978  0.00  0.00    +0.000 C 
ATOM     32  H   UNL     1       1.482  13.403  22.334  0.00  0.00    +0.000 HD
BRANCH  30  33
ATOM     33  O   UNL     1       2.526  15.081  18.978  0.00  0.00    +0.000 OA
ATOM     34  H   UNL     1       3.169  14.935  18.253  0.00  0.00    +0.000 HD
ENDBRANCH  30  33
ENDBRANCH  24  26
ENDBRANCH  12  24
TORSDOF 4
ENDMDL
MODEL 2
REMARK VINA RESULT:      -7.3      2.675      4.622
REMARK  Name = 
REMARK  4 active torsions:
REMARK  status: ('A' for Active; 'I' for Inactive)
REMARK    1  A    between atoms: C_12  and  N_13
REMARK    2  A    between atoms: N_13  and  C_14
REMARK    3  A    between atoms: C_18  and  O_19
REMARK    4  A    between atoms: C_21  and  C_22
REMARK                            x       y       z     vdW  Elec       q    Type
REMARK                         _______ _______ _______ _____ _____    ______ ____
ROOT
ATOM      1  O   UNL     1      -1.168  11.365  23.251  0.00  0.00    +0.000 OA
ATOM      2  C   UNL     1      -1.845  11.939  22.397  0.00  0.00    +0.000 A 
ATOM      3  N   UNL     1      -2.957  12.573  22.806  0.00  0.00    +0.000 N 
ATOM      4  C   UNL     1      -3.935  12.961  21.943  0.00  0.00    +0.000 A 
ATOM      5  N   UNL     1      -5.084  13.432  22.544  0.00  0.00    +0.000 N 
ATOM      6  C   UNL     1      -5.514  13.095  23.917  0.00  0.00    +0.000 C 
ATOM      7  C   UNL     1      -6.982  12.649  23.927  0.00  0.00    +0.000 C 
ATOM      8  O   UNL     1      -7.827  13.646  23.340  0.00  0.00    +0.000 OA
ATOM      9  C   UNL     1      -7.432  13.893  21.979  0.00  0.00    +0.000 C 
ATOM     10  C   UNL     1      -5.983  14.395  21.899  0.00  0.00    +0.000 C 
ATOM     11  N   UNL     1      -3.756  12.864  20.658  0.00  0.00    +0.000 NA
ATOM     12  C   UNL     1      -2.603  12.264  20.127  0.00  0.00    +0.000 A 
ATOM     13  C   UNL     1      -1.570  11.908  20.936  0.00  0.00    +0.000 A 
ATOM     14  H   UNL     1      -3.088  12.621  23.788  0.00  0.00    +0.000 HD
ENDROOT
BRANCH  13  15
ATOM     15  C   UNL     1      -0.305  11.355  20.563  0.00  0.00    +0.000 A 
ATOM     16  N   UNL     1       0.396  11.522  19.454  0.00  0.00    +0.000 NA
ATOM     17  C   UNL     1       1.130  10.370  19.196  0.00  0.00    +0.000 A 
ATOM     18  C   UNL     1       1.799  10.073  17.995  0.00  0.00    +0.000 A 
ATOM     19  C   UNL     1       2.300   8.783  17.781  0.00  0.00    +0.000 A 
ATOM     20  C   UNL     1       2.177   7.803  18.761  0.00  0.00    +0.000 A 
ATOM     21  C   UNL     1       1.616   8.105  20.005  0.00  0.00    +0.000 A 
ATOM     22  C   UNL     1       1.116   9.403  20.201  0.00  0.00    +0.000 A 
ATOM     23  S   UNL     1       0.427  10.127  21.597  0.00  0.00    +0.000 S 
ENDBRANCH  13  15
BRANCH  12  24
ATOM     24  N   UNL     1      -2.631  12.017  18.721  0.00  0.00    +0.000 N 
ATOM     25  H   UNL     1      -3.380  12.606  18.364  0.00  0.00    +0.000 HD
BRANCH  24  26
ATOM     26  C   UNL     1      -2.854  10.595  18.244  0.00  0.00    +0.000 C 
ATOM     27  C   UNL     1      -4.322  10.360  17.824  0.00  0.00    +0.000 C 
ATOM     28  N   UNL     1      -4.769  11.199  16.681  0.00  0.00    +0.000 NA
ATOM     29  C   UNL     1      -3.669  11.576  15.764  0.00  0.00    +0.000 C 
ATOM     30  C   UNL     1      -2.617  10.474  15.651  0.00  0.00    +0.000 C 
ATOM     31  C   UNL     1      -2.002  10.127  17.028  0.00  0.00    +0.000 C 
ATOM     32  H   UNL     1      -5.093  12.077  17.109  0.00  0.00    +0.000 HD
BRANCH  30  33
ATOM     33  O   UNL     1      -3.246   9.313  15.079  0.00  0.00    +0.000 OA
ATOM     34  H   UNL     1      -2.519   8.723  14.791  0.00  0.00    +0.000 HD
ENDBRANCH  30  33
ENDBRANCH  24  26
ENDBRANCH  12  24
TORSDOF 4
ENDMDL
MODEL 3
REMARK VINA RESULT:      -7.1      2.171      2.848
REMARK  Name = 
REMARK  4 active torsions:
REMARK  status: ('A' for Active; 'I' for Inactive)
REMARK    1  A    between atoms: C_12  and  N_13
REMARK    2  A    between atoms: N_13  and  C_14
REMARK    3  A    between atoms: C_18  and  O_19
REMARK    4  A    between atoms: C_21  and  C_22
REMARK                            x       y       z     vdW  Elec       q    Type
REMARK                         _______ _______ _______ _____ _____    ______ ____
ROOT
ATOM      1  O   UNL     1      -2.127  10.112  17.314  0.00  0.00    +0.000 OA
ATOM      2  C   UNL     1      -2.563  10.780  18.253  0.00  0.00    +0.000 A 
ATOM      3  N   UNL     1      -3.858  11.137  18.215  0.00  0.00    +0.000 N 
ATOM      4  C   UNL     1      -4.367  12.118  19.008  0.00  0.00    +0.000 A 
ATOM      5  N   UNL     1      -5.665  12.484  18.716  0.00  0.00    +0.000 N 
ATOM      6  C   UNL     1      -6.317  12.293  17.403  0.00  0.00    +0.000 C 
ATOM      7  C   UNL     1      -6.990  13.593  16.944  0.00  0.00    +0.000 C 
ATOM      8  O   UNL     1      -7.916  14.070  17.929  0.00  0.00    +0.000 OA
ATOM      9  C   UNL     1      -7.235  14.320  19.170  0.00  0.00    +0.000 C 
ATOM     10  C   UNL     1      -6.580  13.044  19.717  0.00  0.00    +0.000 C 
ATOM     11  N   UNL     1      -3.641  12.648  19.950  0.00  0.00    +0.000 NA
ATOM     12  C   UNL     1      -2.290  12.304  20.107  0.00  0.00    +0.000 A 
ATOM     13  C   UNL     1      -1.742  11.293  19.381  0.00  0.00    +0.000 A 
ATOM     14  H   UNL     1      -4.392  10.739  17.480  0.00  0.00    +0.000 HD
ENDROOT
BRANCH  13  15
ATOM     15  C   UNL     1      -0.414  10.766  19.461  0.00  0.00    +0.000 A 
ATOM     16  N   UNL     1       0.517  10.680  18.526  0.00  0.00    +0.000 NA
ATOM     17  C   UNL     1       1.313   9.566  18.771  0.00  0.00    +0.000 A 
ATOM     18  C   UNL     1       2.242   9.007  17.877  0.00  0.00    +0.000 A 
ATOM     19  C   UNL     1       2.804   7.754  18.152  0.00  0.00    +0.000 A 
ATOM     20  C   UNL     1       2.481   7.075  19.323  0.00  0.00    +0.000 A 
ATOM     21  C   UNL     1       1.646   7.659  20.280  0.00  0.00    +0.000 A 
ATOM     22  C   UNL     1       1.089   8.915  19.984  0.00  0.00    +0.000 A 
ATOM     23  S   UNL     1       0.087   9.935  20.934  0.00  0.00    +0.000 S 
ENDBRANCH  13  15
BRANCH  12  24
ATOM     24  N   UNL     1      -1.551  13.115  21.021  0.00  0.00    +0.000 N 
ATOM     25  H   UNL     1      -0.591  13.080  20.688  0.00  0.00    +0.000 HD
BRANCH  24  26
ATOM     26  C   UNL     1      -1.576  12.747  22.492  0.00  0.00    +0.000 C 
ATOM     27  C   UNL     1      -1.206  13.953  23.385  0.00  0.00    +0.000 C 
ATOM     28  N   UNL     1      -2.149  15.097  23.283  0.00  0.00    +0.000 NA
ATOM     29  C   UNL     1      -3.527  14.692  22.924  0.00  0.00    +0.000 C 
ATOM     30  C   UNL     1      -3.897  13.336  23.522  0.00  0.00    +0.000 C 
ATOM     31  C   UNL     1      -2.929  12.223  23.056  0.00  0.00    +0.000 C 
ATOM     32  H   UNL     1      -1.803  15.654  22.489  0.00  0.00    +0.000 HD
BRANCH  30  33
ATOM     33  O   UNL     1      -3.865  13.456  24.956  0.00  0.00    +0.000 OA
ATOM     34  H   UNL     1      -2.919  13.522  25.203  0.00  0.00    +0.000 HD
ENDBRANCH  30  33
ENDBRANCH  24  26
ENDBRANCH  12  24
TORSDOF 4
ENDMDL
MODEL 4
REMARK VINA RESULT:      -7.1      2.752      4.571
REMARK  Name = 
REMARK  4 active torsions:
REMARK  status: ('A' for Active; 'I' for Inactive)
REMARK    1  A    between atoms: C_12  and  N_13
REMARK    2  A    between atoms: N_13  and  C_14
REMARK    3  A    between atoms: C_18  and  O_19
REMARK    4  A    between atoms: C_21  and  C_22
REMARK                            x       y       z     vdW  Elec       q    Type
REMARK                         _______ _______ _______ _____ _____    ______ ____
ROOT
ATOM      1  O   UNL     1      -0.403  10.568  23.357  0.00  0.00    +0.000 OA
ATOM      2  C   UNL     1      -1.001  11.269  22.540  0.00  0.00    +0.000 A 
ATOM      3  N   UNL     1      -1.995  12.048  22.998  0.00  0.00    +0.000 N 
ATOM      4  C   UNL     1      -2.919  12.611  22.173  0.00  0.00    +0.000 A 
ATOM      5  N   UNL     1      -3.972  13.228  22.818  0.00  0.00    +0.000 N 
ATOM      6  C   UNL     1      -4.421  12.908  24.190  0.00  0.00    +0.000 C 
ATOM      7  C   UNL     1      -5.939  12.689  24.221  0.00  0.00    +0.000 C 
ATOM      8  O   UNL     1      -6.635  13.824  23.689  0.00  0.00    +0.000 OA
ATOM      9  C   UNL     1      -6.233  14.059  22.328  0.00  0.00    +0.000 C 
ATOM     10  C   UNL     1      -4.727  14.339  22.230  0.00  0.00    +0.000 C 
ATOM     11  N   UNL     1      -2.782  12.537  20.881  0.00  0.00    +0.000 NA
ATOM     12  C   UNL     1      -1.745  11.791  20.302  0.00  0.00    +0.000 A 
ATOM     13  C   UNL     1      -0.762  11.252  21.072  0.00  0.00    +0.000 A 
ATOM     14  H   UNL     1      -2.099  12.079  23.984  0.00  0.00    +0.000 HD
ENDROOT
BRANCH  13  15
ATOM     15  C   UNL     1       0.397  10.529  20.649  0.00  0.00    +0.000 A 
ATOM     16  N   UNL     1       1.007  10.523  19.476  0.00  0.00    +0.000 NA
ATOM     17  C   UNL     1       1.587   9.277  19.266  0.00  0.00    +0.000 A 
ATOM     18  C   UNL     1       2.107   8.808  18.046  0.00  0.00    +0.000 A 
ATOM     19  C   UNL     1       2.445   7.456  17.911  0.00  0.00    +0.000 A 
ATOM     20  C   UNL     1       2.308   6.580  18.983  0.00  0.00    +0.000 A 
ATOM     21  C   UNL     1       1.899   7.045  20.236  0.00  0.00    +0.000 A 
ATOM     22  C   UNL     1       1.561   8.404  20.353  0.00  0.00    +0.000 A 
ATOM     23  S   UNL     1       1.084   9.314  21.728  0.00  0.00    +0.000 S 
ENDBRANCH  13  15
BRANCH  12  24
ATOM     24  N   UNL     1      -1.837  11.604  18.889  0.00  0.00    +0.000 N 
ATOM     25  H   UNL     1      -2.273  12.453  18.539  0.00  0.00    +0.000 HD
BRANCH  24  26
ATOM     26  C   UNL     1      -2.607  10.404  18.371  0.00  0.00    +0.000 C 
ATOM     27  C   UNL     1      -4.047  10.787  17.961  0.00  0.00    +0.000 C 
ATOM     28  N   UNL     1      -4.121  11.773  16.851  0.00  0.00    +0.000 NA
ATOM     29  C   UNL     1      -2.961  11.713  15.934  0.00  0.00    +0.000 C 
ATOM     30  C   UNL     1      -2.434  10.287  15.772  0.00  0.00    +0.000 C 
ATOM     31  C   UNL     1      -2.010   9.678  17.129  0.00  0.00    +0.000 C 
ATOM     32  H   UNL     1      -4.070  12.692  17.311  0.00  0.00    +0.000 HD
BRANCH  30  33
ATOM     33  O   UNL     1      -3.473   9.492  15.172  0.00  0.00    +0.000 OA
ATOM     34  H   UNL     1      -3.101   8.592  15.068  0.00  0.00    +0.000 HD
ENDBRANCH  30  33
ENDBRANCH  24  26
ENDBRANCH  12  24
TORSDOF 4
ENDMDL
MODEL 5
REMARK VINA RESULT:      -7.0      4.466      9.906
REMARK  Name = 
REMARK  4 active torsions:
REMARK  status: ('A' for Active; 'I' for Inactive)
REMARK    1  A    between atoms: C_12  and  N_13
REMARK    2  A    between atoms: N_13  and  C_14
REMARK    3  A    between atoms: C_18  and  O_19
REMARK    4  A    between atoms: C_21  and  C_22
REMARK                            x       y       z     vdW  Elec       q    Type
REMARK                         _______ _______ _______ _____ _____    ______ ____
ROOT
ATOM      1  O   UNL     1       2.113   8.901  17.239  0.00  0.00    +0.000 OA
ATOM      2  C   UNL     1       2.791   8.103  17.887  0.00  0.00    +0.000 A 
ATOM      3  N   UNL     1       3.952   7.693  17.350  0.00  0.00    +0.000 N 
ATOM      4  C   UNL     1       4.620   6.598  17.805  0.00  0.00    +0.000 A 
ATOM      5  N   UNL     1       5.694   6.211  17.031  0.00  0.00    +0.000 N 
ATOM      6  C   UNL     1       5.856   6.531  15.597  0.00  0.00    +0.000 C 
ATOM      7  C   UNL     1       6.206   5.268  14.800  0.00  0.00    +0.000 C 
ATOM      8  O   UNL     1       7.374   4.630  15.332  0.00  0.00    +0.000 OA
ATOM      9  C   UNL     1       7.154   4.260  16.705  0.00  0.00    +0.000 C 
ATOM     10  C   UNL     1       6.849   5.488  17.574  0.00  0.00    +0.000 C 
ATOM     11  N   UNL     1       4.228   5.990  18.887  0.00  0.00    +0.000 NA
ATOM     12  C   UNL     1       3.055   6.375  19.554  0.00  0.00    +0.000 A 
ATOM     13  C   UNL     1       2.378   7.493  19.178  0.00  0.00    +0.000 A 
ATOM     14  H   UNL     1       4.227   8.153  16.515  0.00  0.00    +0.000 HD
ENDROOT
BRANCH  13  15
ATOM     15  C   UNL     1       1.215   8.068  19.782  0.00  0.00    +0.000 A 
ATOM     16  N   UNL     1       0.534   9.148  19.441  0.00  0.00    +0.000 NA
ATOM     17  C   UNL     1      -0.022   9.720  20.580  0.00  0.00    +0.000 A 
ATOM     18  C   UNL     1      -0.603  10.998  20.659  0.00  0.00    +0.000 A 
ATOM     19  C   UNL     1      -0.910  11.545  21.911  0.00  0.00    +0.000 A 
ATOM     20  C   UNL     1      -0.682  10.820  23.077  0.00  0.00    +0.000 A 
ATOM     21  C   UNL     1      -0.209   9.506  23.018  0.00  0.00    +0.000 A 
ATOM     22  C   UNL     1       0.097   8.975  21.753  0.00  0.00    +0.000 A 
ATOM     23  S   UNL     1       0.632   7.405  21.310  0.00  0.00    +0.000 S 
ENDBRANCH  13  15
BRANCH  12  24
ATOM     24  N   UNL     1       2.617   5.493  20.588  0.00  0.00    +0.000 N 
ATOM     25  H   UNL     1       2.938   5.921  21.453  0.00  0.00    +0.000 HD
BRANCH  24  26
ATOM     26  C   UNL     1       3.085   4.051  20.550  0.00  0.00    +0.000 C 
ATOM     27  C   UNL     1       2.181   3.138  21.409  0.00  0.00    +0.000 C 
ATOM     28  N   UNL     1       0.770   3.073  20.947  0.00  0.00    +0.000 NA
ATOM     29  C   UNL     1       0.616   3.301  19.493  0.00  0.00    +0.000 C 
ATOM     30  C   UNL     1       1.796   2.742  18.700  0.00  0.00    +0.000 C 
ATOM     31  C   UNL     1       3.136   3.373  19.149  0.00  0.00    +0.000 C 
ATOM     32  H   UNL     1       0.305   3.867  21.408  0.00  0.00    +0.000 HD
BRANCH  30  33
ATOM     33  O   UNL     1       1.828   1.316  18.890  0.00  0.00    +0.000 OA
ATOM     34  H   UNL     1       1.829   0.921  17.993  0.00  0.00    +0.000 HD
ENDBRANCH  30  33
ENDBRANCH  24  26
ENDBRANCH  12  24
TORSDOF 4
ENDMDL
MODEL 6
REMARK VINA RESULT:      -6.9      4.613      7.870
REMARK  Name = 
REMARK  4 active torsions:
REMARK  status: ('A' for Active; 'I' for Inactive)
REMARK    1  A    between atoms: C_12  and  N_13
REMARK    2  A    between atoms: N_13  and  C_14
REMARK    3  A    between atoms: C_18  and  O_19
REMARK    4  A    between atoms: C_21  and  C_22
REMARK                            x       y       z     vdW  Elec       q    Type
REMARK                         _______ _______ _______ _____ _____    ______ ____
ROOT
ATOM      1  O   UNL     1       2.925   9.736  17.276  0.00  0.00    +0.000 OA
ATOM      2  C   UNL     1       2.499   8.912  18.086  0.00  0.00    +0.000 A 
ATOM      3  N   UNL     1       1.482   9.288  18.880  0.00  0.00    +0.000 N 
ATOM      4  C   UNL     1       1.142   8.600  20.004  0.00  0.00    +0.000 A 
ATOM      5  N   UNL     1       0.198   9.219  20.798  0.00  0.00    +0.000 N 
ATOM      6  C   UNL     1      -0.070  10.673  20.808  0.00  0.00    +0.000 C 
ATOM      7  C   UNL     1      -0.082  11.206  22.247  0.00  0.00    +0.000 C 
ATOM      8  O   UNL     1      -1.024  10.491  23.055  0.00  0.00    +0.000 OA
ATOM      9  C   UNL     1      -0.689   9.093  23.087  0.00  0.00    +0.000 C 
ATOM     10  C   UNL     1      -0.710   8.479  21.681  0.00  0.00    +0.000 C 
ATOM     11  N   UNL     1       1.702   7.457  20.272  0.00  0.00    +0.000 NA
ATOM     12  C   UNL     1       2.740   6.950  19.475  0.00  0.00    +0.000 A 
ATOM     13  C   UNL     1       3.084   7.564  18.311  0.00  0.00    +0.000 A 
ATOM     14  H   UNL     1       1.078  10.170  18.674  0.00  0.00    +0.000 HD
ENDROOT
BRANCH  13  15
ATOM     15  C   UNL     1       4.060   7.152  17.349  0.00  0.00    +0.000 A 
ATOM     16  N   UNL     1       3.899   6.499  16.211  0.00  0.00    +0.000 NA
ATOM     17  C   UNL     1       5.030   5.731  15.958  0.00  0.00    +0.000 A 
ATOM     18  C   UNL     1       5.138   4.723  14.983  0.00  0.00    +0.000 A 
ATOM     19  C   UNL     1       6.247   3.868  14.990  0.00  0.00    +0.000 A 
ATOM     20  C   UNL     1       7.263   4.031  15.927  0.00  0.00    +0.000 A 
ATOM     21  C   UNL     1       7.232   5.094  16.834  0.00  0.00    +0.000 A 
ATOM     22  C   UNL     1       6.110   5.940  16.815  0.00  0.00    +0.000 A 
ATOM     23  S   UNL     1       5.771   7.352  17.731  0.00  0.00    +0.000 S 
ENDBRANCH  13  15
BRANCH  12  24
ATOM     24  N   UNL     1       3.418   5.809  20.000  0.00  0.00    +0.000 N 
ATOM     25  H   UNL     1       4.374   6.118  20.155  0.00  0.00    +0.000 HD
BRANCH  24  26
ATOM     26  C   UNL     1       3.439   4.539  19.170  0.00  0.00    +0.000 C 
ATOM     27  C   UNL     1       3.756   3.300  20.037  0.00  0.00    +0.000 C 
ATOM     28  N   UNL     1       2.749   3.024  21.095  0.00  0.00    +0.000 NA
ATOM     29  C   UNL     1       1.390   3.498  20.749  0.00  0.00    +0.000 C 
ATOM     30  C   UNL     1       1.107   3.378  19.252  0.00  0.00    +0.000 C 
ATOM     31  C   UNL     1       2.128   4.181  18.412  0.00  0.00    +0.000 C 
ATOM     32  H   UNL     1       3.049   3.591  21.900  0.00  0.00    +0.000 HD
BRANCH  30  33
ATOM     33  O   UNL     1       1.157   1.984  18.898  0.00  0.00    +0.000 OA
ATOM     34  H   UNL     1       0.705   1.906  18.032  0.00  0.00    +0.000 HD
ENDBRANCH  30  33
ENDBRANCH  24  26
ENDBRANCH  12  24
TORSDOF 4
ENDMDL
MODEL 7
REMARK VINA RESULT:      -6.8      0.969      1.523
REMARK  Name = 
REMARK  4 active torsions:
REMARK  status: ('A' for Active; 'I' for Inactive)
REMARK    1  A    between atoms: C_12  and  N_13
REMARK    2  A    between atoms: N_13  and  C_14
REMARK    3  A    between atoms: C_18  and  O_19
REMARK    4  A    between atoms: C_21  and  C_22
REMARK                            x       y       z     vdW  Elec       q    Type
REMARK                         _______ _______ _______ _____ _____    ______ ____
ROOT
ATOM      1  O   UNL     1      -1.687   9.670  17.220  0.00  0.00    +0.000 OA
ATOM      2  C   UNL     1      -2.059  10.381  18.155  0.00  0.00    +0.000 A 
ATOM      3  N   UNL     1      -3.333  10.806  18.144  0.00  0.00    +0.000 N 
ATOM      4  C   UNL     1      -3.767  11.831  18.927  0.00  0.00    +0.000 A 
ATOM      5  N   UNL     1      -5.052  12.258  18.663  0.00  0.00    +0.000 N 
ATOM      6  C   UNL     1      -5.752  12.073  17.374  0.00  0.00    +0.000 C 
ATOM      7  C   UNL     1      -6.369  13.396  16.903  0.00  0.00    +0.000 C 
ATOM      8  O   UNL     1      -7.239  13.944  17.901  0.00  0.00    +0.000 OA
ATOM      9  C   UNL     1      -6.509  14.186  19.116  0.00  0.00    +0.000 C 
ATOM     10  C   UNL     1      -5.906  12.890  19.675  0.00  0.00    +0.000 C 
ATOM     11  N   UNL     1      -2.986  12.343  19.834  0.00  0.00    +0.000 NA
ATOM     12  C   UNL     1      -1.651  11.931  19.962  0.00  0.00    +0.000 A 
ATOM     13  C   UNL     1      -1.178  10.876  19.246  0.00  0.00    +0.000 A 
ATOM     14  H   UNL     1      -3.910  10.421  17.435  0.00  0.00    +0.000 HD
ENDROOT
BRANCH  13  15
ATOM     15  C   UNL     1       0.121  10.281  19.301  0.00  0.00    +0.000 A 
ATOM     16  N   UNL     1       1.020  10.127  18.343  0.00  0.00    +0.000 NA
ATOM     17  C   UNL     1       1.763   8.978  18.590  0.00  0.00    +0.000 A 
ATOM     18  C   UNL     1       2.636   8.352  17.683  0.00  0.00    +0.000 A 
ATOM     19  C   UNL     1       3.138   7.077  17.970  0.00  0.00    +0.000 A 
ATOM     20  C   UNL     1       2.813   6.439  19.163  0.00  0.00    +0.000 A 
ATOM     21  C   UNL     1       2.037   7.086  20.129  0.00  0.00    +0.000 A 
ATOM     22  C   UNL     1       1.539   8.364  19.822  0.00  0.00    +0.000 A 
ATOM     23  S   UNL     1       0.619   9.454  20.777  0.00  0.00    +0.000 S 
ENDBRANCH  13  15
BRANCH  12  24
ATOM     24  N   UNL     1      -0.844  12.723  20.834  0.00  0.00    +0.000 N 
ATOM     25  H   UNL     1      -1.503  13.292  21.359  0.00  0.00    +0.000 HD
BRANCH  24  26
ATOM     26  C   UNL     1       0.208  13.626  20.220  0.00  0.00    +0.000 C 
ATOM     27  C   UNL     1      -0.384  14.499  19.091  0.00  0.00    +0.000 C 
ATOM     28  N   UNL     1      -1.447  15.436  19.539  0.00  0.00    +0.000 NA
ATOM     29  C   UNL     1      -1.306  15.851  20.953  0.00  0.00    +0.000 C 
ATOM     30  C   UNL     1       0.159  15.965  21.371  0.00  0.00    +0.000 C 
ATOM     31  C   UNL     1       0.913  14.627  21.182  0.00  0.00    +0.000 C 
ATOM     32  H   UNL     1      -2.318  14.888  19.491  0.00  0.00    +0.000 HD
BRANCH  30  33
ATOM     33  O   UNL     1       0.771  16.998  20.578  0.00  0.00    +0.000 OA
ATOM     34  H   UNL     1       1.737  16.843  20.627  0.00  0.00    +0.000 HD
ENDBRANCH  30  33
ENDBRANCH  24  26
ENDBRANCH  12  24
TORSDOF 4
ENDMDL
MODEL 8
REMARK VINA RESULT:      -6.8      4.637      7.975
REMARK  Name = 
REMARK  4 active torsions:
REMARK  status: ('A' for Active; 'I' for Inactive)
REMARK    1  A    between atoms: C_12  and  N_13
REMARK    2  A    between atoms: N_13  and  C_14
REMARK    3  A    between atoms: C_18  and  O_19
REMARK    4  A    between atoms: C_21  and  C_22
REMARK                            x       y       z     vdW  Elec       q    Type
REMARK                         _______ _______ _______ _____ _____    ______ ____
ROOT
ATOM      1  O   UNL     1       3.029   9.798  17.306  0.00  0.00    +0.000 OA
ATOM      2  C   UNL     1       2.577   8.956  18.082  0.00  0.00    +0.000 A 
ATOM      3  N   UNL     1       1.552   9.323  18.870  0.00  0.00    +0.000 N 
ATOM      4  C   UNL     1       1.183   8.606  19.966  0.00  0.00    +0.000 A 
ATOM      5  N   UNL     1       0.235   9.215  20.763  0.00  0.00    +0.000 N 
ATOM      6  C   UNL     1      -0.011  10.672  20.814  0.00  0.00    +0.000 C 
ATOM      7  C   UNL     1      -0.040  11.161  22.268  0.00  0.00    +0.000 C 
ATOM      8  O   UNL     1      -1.007  10.435  23.038  0.00  0.00    +0.000 OA
ATOM      9  C   UNL     1      -0.693   9.032  23.032  0.00  0.00    +0.000 C 
ATOM     10  C   UNL     1      -0.699   8.462  21.607  0.00  0.00    +0.000 C 
ATOM     11  N   UNL     1       1.721   7.446  20.208  0.00  0.00    +0.000 NA
ATOM     12  C   UNL     1       2.765   6.949  19.412  0.00  0.00    +0.000 A 
ATOM     13  C   UNL     1       3.138   7.593  18.274  0.00  0.00    +0.000 A 
ATOM     14  H   UNL     1       1.166  10.218  18.685  0.00  0.00    +0.000 HD
ENDROOT
BRANCH  13  15
ATOM     15  C   UNL     1       4.124   7.196  17.316  0.00  0.00    +0.000 A 
ATOM     16  N   UNL     1       3.969   6.629  16.132  0.00  0.00    +0.000 NA
ATOM     17  C   UNL     1       5.069   5.822  15.862  0.00  0.00    +0.000 A 
ATOM     18  C   UNL     1       5.159   4.876  14.825  0.00  0.00    +0.000 A 
ATOM     19  C   UNL     1       6.224   3.967  14.806  0.00  0.00    +0.000 A 
ATOM     20  C   UNL     1       7.214   4.015  15.783  0.00  0.00    +0.000 A 
ATOM     21  C   UNL     1       7.206   5.015  16.759  0.00  0.00    +0.000 A 
ATOM     22  C   UNL     1       6.128   5.917  16.764  0.00  0.00    +0.000 A 
ATOM     23  S   UNL     1       5.829   7.281  17.762  0.00  0.00    +0.000 S 
ENDBRANCH  13  15
BRANCH  12  24
ATOM     24  N   UNL     1       3.416   5.781  19.913  0.00  0.00    +0.000 N 
ATOM     25  H   UNL     1       4.158   5.586  19.245  0.00  0.00    +0.000 HD
BRANCH  24  26
ATOM     26  C   UNL     1       2.590   4.525  20.111  0.00  0.00    +0.000 C 
ATOM     27  C   UNL     1       1.706   4.227  18.880  0.00  0.00    +0.000 C 
ATOM     28  N   UNL     1       2.469   3.963  17.632  0.00  0.00    +0.000 NA
ATOM     29  C   UNL     1       3.813   3.392  17.876  0.00  0.00    +0.000 C 
ATOM     30  C   UNL     1       3.829   2.470  19.094  0.00  0.00    +0.000 C 
ATOM     31  C   UNL     1       3.378   3.208  20.376  0.00  0.00    +0.000 C 
ATOM     32  H   UNL     1       2.628   4.893  17.219  0.00  0.00    +0.000 HD
BRANCH  30  33
ATOM     33  O   UNL     1       2.955   1.359  18.824  0.00  0.00    +0.000 OA
ATOM     34  H   UNL     1       2.559   1.531  17.944  0.00  0.00    +0.000 HD
ENDBRANCH  30  33
ENDBRANCH  24  26
ENDBRANCH  12  24
TORSDOF 4
ENDMDL
MODEL 9
REMARK VINA RESULT:      -6.7      4.279      9.805
REMARK  Name = 
REMARK  4 active torsions:
REMARK  status: ('A' for Active; 'I' for Inactive)
REMARK    1  A    between atoms: C_12  and  N_13
REMARK    2  A    between atoms: N_13  and  C_14
REMARK    3  A    between atoms: C_18  and  O_19
REMARK    4  A    between atoms: C_21  and  C_22
REMARK                            x       y       z     vdW  Elec       q    Type
REMARK                         _______ _______ _______ _____ _____    ______ ____
ROOT
ATOM      1  O   UNL     1       2.167   9.167  17.236  0.00  0.00    +0.000 OA
ATOM      2  C   UNL     1       2.768   8.311  17.887  0.00  0.00    +0.000 A 
ATOM      3  N   UNL     1       3.923   7.845  17.385  0.00  0.00    +0.000 N 
ATOM      4  C   UNL     1       4.504   6.699  17.835  0.00  0.00    +0.000 A 
ATOM      5  N   UNL     1       5.584   6.267  17.094  0.00  0.00    +0.000 N 
ATOM      6  C   UNL     1       5.825   6.615  15.677  0.00  0.00    +0.000 C 
ATOM      7  C   UNL     1       6.131   5.354  14.859  0.00  0.00    +0.000 C 
ATOM      8  O   UNL     1       7.234   4.631  15.419  0.00  0.00    +0.000 OA
ATOM      9  C   UNL     1       6.936   4.239  16.770  0.00  0.00    +0.000 C 
ATOM     10  C   UNL     1       6.670   5.460  17.661  0.00  0.00    +0.000 C 
ATOM     11  N   UNL     1       4.031   6.088  18.883  0.00  0.00    +0.000 NA
ATOM     12  C   UNL     1       2.857   6.527  19.513  0.00  0.00    +0.000 A 
ATOM     13  C   UNL     1       2.265   7.694  19.143  0.00  0.00    +0.000 A 
ATOM     14  H   UNL     1       4.260   8.309  16.576  0.00  0.00    +0.000 HD
ENDROOT
BRANCH  13  15
ATOM     15  C   UNL     1       1.115   8.323  19.716  0.00  0.00    +0.000 A 
ATOM     16  N   UNL     1       0.227   9.128  19.158  0.00  0.00    +0.000 NA
ATOM     17  C   UNL     1      -0.258  10.013  20.115  0.00  0.00    +0.000 A 
ATOM     18  C   UNL     1      -1.024  11.163  19.858  0.00  0.00    +0.000 A 
ATOM     19  C   UNL     1      -1.246  12.091  20.883  0.00  0.00    +0.000 A 
ATOM     20  C   UNL     1      -0.750  11.867  22.163  0.00  0.00    +0.000 A 
ATOM     21  C   UNL     1      -0.081  10.679  22.471  0.00  0.00    +0.000 A 
ATOM     22  C   UNL     1       0.136   9.760  21.429  0.00  0.00    +0.000 A 
ATOM     23  S   UNL     1       0.856   8.202  21.457  0.00  0.00    +0.000 S 
ENDBRANCH  13  15
BRANCH  12  24
ATOM     24  N   UNL     1       2.324   5.646  20.502  0.00  0.00    +0.000 N 
ATOM     25  H   UNL     1       3.127   5.139  20.864  0.00  0.00    +0.000 HD
BRANCH  24  26
ATOM     26  C   UNL     1       1.261   4.650  20.082  0.00  0.00    +0.000 C 
ATOM     27  C   UNL     1       1.393   4.275  18.589  0.00  0.00    +0.000 C 
ATOM     28  N   UNL     1       2.673   3.605  18.241  0.00  0.00    +0.000 NA
ATOM     29  C   UNL     1       3.264   2.846  19.366  0.00  0.00    +0.000 C 
ATOM     30  C   UNL     1       2.192   2.221  20.258  0.00  0.00    +0.000 C 
ATOM     31  C   UNL     1       1.240   3.292  20.843  0.00  0.00    +0.000 C 
ATOM     32  H   UNL     1       3.328   4.375  18.045  0.00  0.00    +0.000 HD
BRANCH  30  33
ATOM     33  O   UNL     1       1.451   1.274  19.468  0.00  0.00    +0.000 OA
ATOM     34  H   UNL     1       0.519   1.341  19.765  0.00  0.00    +0.000 HD
ENDBRANCH  30  33
ENDBRANCH  24  26
ENDBRANCH  12  24
TORSDOF 4
ENDMDL
