MODEL 1
REMARK VINA RESULT:      -6.3      0.000      0.000
REMARK  Name = 
REMARK  3 active torsions:
REMARK  status: ('A' for Active; 'I' for Inactive)
REMARK    1  A    between atoms: N_1  and  C_2
REMARK    2  A    between atoms: C_2  and  C_3
REMARK    3  A    between atoms: C_3  and  N_4
REMARK                            x       y       z     vdW  Elec       q    Type
REMARK                         _______ _______ _______ _____ _____    ______ ____
ROOT
ATOM      1  N   UNL     1       0.933   8.296  21.402  0.00  0.00    +0.000 N 
ATOM      2  C   UNL     1       1.645   7.407  20.681  0.00  0.00    +0.000 A 
ATOM      3  N   UNL     1       2.372   7.570  19.607  0.00  0.00    +0.000 NA
ATOM      4  C   UNL     1       2.784   6.305  19.232  0.00  0.00    +0.000 A 
ATOM      5  C   UNL     1       3.595   5.882  18.159  0.00  0.00    +0.000 A 
ATOM      6 BR   UNL     1       4.354   7.225  17.043  0.00  0.00    +0.000 Br
ATOM      7  C   UNL     1       3.800   4.495  17.964  0.00  0.00    +0.000 A 
ATOM      8 BR   UNL     1       4.894   3.908  16.498  0.00  0.00    +0.000 Br
ATOM      9  C   UNL     1       3.204   3.551  18.833  0.00  0.00    +0.000 A 
ATOM     10 BR   UNL     1       3.428   1.667  18.539  0.00  0.00    +0.000 Br
ATOM     11  C   UNL     1       2.426   3.978  19.928  0.00  0.00    +0.000 A 
ATOM     12 BR   UNL     1       1.576   2.815  21.166  0.00  0.00    +0.000 Br
ATOM     13  C   UNL     1       2.257   5.354  20.096  0.00  0.00    +0.000 A 
ATOM     14  N   UNL     1       1.585   6.092  21.040  0.00  0.00    +0.000 N 
ATOM     15  H   UNL     1       1.329   8.551  22.311  0.00  0.00    +0.000 HD
ATOM     16  H   UNL     1       1.048   5.736  21.814  0.00  0.00    +0.000 HD
ENDROOT
BRANCH   1  17
ATOM     17  C   UNL     1       0.519   9.523  20.720  0.00  0.00    +0.000 C 
BRANCH  17  18
ATOM     18  C   UNL     1       0.162  10.591  21.774  0.00  0.00    +0.000 C 
BRANCH  18  19
ATOM     19  N   UNL     1       0.175  10.041  23.138  0.00  0.00    +0.000 NA
ATOM     20  H   UNL     1       0.090   9.025  23.082  0.00  0.00    +0.000 HD
ATOM     21  H   UNL     1      -0.659  10.361  23.631  0.00  0.00    +0.000 HD
ENDBRANCH  18  19
ENDBRANCH  17  18
ENDBRANCH   1  17
TORSDOF 3
ENDMDL
MODEL 2
REMARK VINA RESULT:      -6.0      3.813      6.836
REMARK  Name = 
REMARK  3 active torsions:
REMARK  status: ('A' for Active; 'I' for Inactive)
REMARK    1  A    between atoms: N_1  and  C_2
REMARK    2  A    between atoms: C_2  and  C_3
REMARK    3  A    between atoms: C_3  and  N_4
REMARK                            x       y       z     vdW  Elec       q    Type
REMARK                         _______ _______ _______ _____ _____    ______ ____
ROOT
ATOM      1  N   UNL     1       5.982   5.489  14.961  0.00  0.00    +0.000 N 
ATOM      2  C   UNL     1       5.318   5.381  16.129  0.00  0.00    +0.000 A 
ATOM      3  N   UNL     1       5.148   4.354  16.920  0.00  0.00    +0.000 NA
ATOM      4  C   UNL     1       4.293   4.781  17.919  0.00  0.00    +0.000 A 
ATOM      5  C   UNL     1       3.779   4.102  19.043  0.00  0.00    +0.000 A 
ATOM      6 BR   UNL     1       4.378   2.321  19.348  0.00  0.00    +0.000 Br
ATOM      7  C   UNL     1       2.850   4.769  19.877  0.00  0.00    +0.000 A 
ATOM      8 BR   UNL     1       2.134   3.848  21.403  0.00  0.00    +0.000 Br
ATOM      9  C   UNL     1       2.448   6.095  19.590  0.00  0.00    +0.000 A 
ATOM     10 BR   UNL     1       1.144   6.984  20.681  0.00  0.00    +0.000 Br
ATOM     11  C   UNL     1       2.994   6.786  18.489  0.00  0.00    +0.000 A 
ATOM     12 BR   UNL     1       2.541   8.564  17.998  0.00  0.00    +0.000 Br
ATOM     13  C   UNL     1       3.917   6.100  17.696  0.00  0.00    +0.000 A 
ATOM     14  N   UNL     1       4.631   6.469  16.582  0.00  0.00    +0.000 N 
ATOM     15  H   UNL     1       6.867   6.002  14.999  0.00  0.00    +0.000 HD
ATOM     16  H   UNL     1       4.589   7.357  16.106  0.00  0.00    +0.000 HD
ENDROOT
BRANCH   1  17
ATOM     17  C   UNL     1       6.196   4.255  14.203  0.00  0.00    +0.000 C 
BRANCH  17  18
ATOM     18  C   UNL     1       7.202   4.528  13.067  0.00  0.00    +0.000 C 
BRANCH  18  19
ATOM     19  N   UNL     1       8.098   5.650  13.386  0.00  0.00    +0.000 NA
ATOM     20  H   UNL     1       8.994   5.275  13.698  0.00  0.00    +0.000 HD
ATOM     21  H   UNL     1       7.718   6.159  14.186  0.00  0.00    +0.000 HD
ENDBRANCH  18  19
ENDBRANCH  17  18
ENDBRANCH   1  17
TORSDOF 3
ENDMDL
MODEL 3
REMARK VINA RESULT:      -6.0      4.029      6.526
REMARK  Name = 
REMARK  3 active torsions:
REMARK  status: ('A' for Active; 'I' for Inactive)
REMARK    1  A    between atoms: N_1  and  C_2
REMARK    2  A    between atoms: C_2  and  C_3
REMARK    3  A    between atoms: C_3  and  N_4
REMARK                            x       y       z     vdW  Elec       q    Type
REMARK                         _______ _______ _______ _____ _____    ______ ____
ROOT
ATOM      1  N   UNL     1       6.240   4.046  15.120  0.00  0.00    +0.000 N 
ATOM      2  C   UNL     1       5.320   4.295  16.071  0.00  0.00    +0.000 A 
ATOM      3  N   UNL     1       4.806   5.425  16.484  0.00  0.00    +0.000 NA
ATOM      4  C   UNL     1       3.991   5.102  17.554  0.00  0.00    +0.000 A 
ATOM      5  C   UNL     1       3.183   5.917  18.373  0.00  0.00    +0.000 A 
ATOM      6 BR   UNL     1       3.082   7.770  17.948  0.00  0.00    +0.000 Br
ATOM      7  C   UNL     1       2.497   5.325  19.460  0.00  0.00    +0.000 A 
ATOM      8 BR   UNL     1       1.403   6.429  20.589  0.00  0.00    +0.000 Br
ATOM      9  C   UNL     1       2.618   3.939  19.718  0.00  0.00    +0.000 A 
ATOM     10 BR   UNL     1       1.740   3.140  21.226  0.00  0.00    +0.000 Br
ATOM     11  C   UNL     1       3.395   3.119  18.873  0.00  0.00    +0.000 A 
ATOM     12 BR   UNL     1       3.637   1.250  19.109  0.00  0.00    +0.000 Br
ATOM     13  C   UNL     1       4.047   3.737  17.804  0.00  0.00    +0.000 A 
ATOM     14  N   UNL     1       4.854   3.245  16.807  0.00  0.00    +0.000 N 
ATOM     15  H   UNL     1       5.886   3.628  14.255  0.00  0.00    +0.000 HD
ATOM     16  H   UNL     1       5.148   2.288  16.686  0.00  0.00    +0.000 HD
ENDROOT
BRANCH   1  17
ATOM     17  C   UNL     1       7.141   5.144  14.764  0.00  0.00    +0.000 C 
BRANCH  17  18
ATOM     18  C   UNL     1       7.578   4.983  13.294  0.00  0.00    +0.000 C 
BRANCH  18  19
ATOM     19  N   UNL     1       8.672   5.902  12.944  0.00  0.00    +0.000 NA
ATOM     20  H   UNL     1       9.547   5.523  13.307  0.00  0.00    +0.000 HD
ATOM     21  H   UNL     1       8.530   6.787  13.435  0.00  0.00    +0.000 HD
ENDBRANCH  18  19
ENDBRANCH  17  18
ENDBRANCH   1  17
TORSDOF 3
ENDMDL
MODEL 4
REMARK VINA RESULT:      -6.0      3.939      7.008
REMARK  Name = 
REMARK  3 active torsions:
REMARK  status: ('A' for Active; 'I' for Inactive)
REMARK    1  A    between atoms: N_1  and  C_2
REMARK    2  A    between atoms: C_2  and  C_3
REMARK    3  A    between atoms: C_3  and  N_4
REMARK                            x       y       z     vdW  Elec       q    Type
REMARK                         _______ _______ _______ _____ _____    ______ ____
ROOT
ATOM      1  N   UNL     1       6.076   5.022  15.027  0.00  0.00    +0.000 N 
ATOM      2  C   UNL     1       5.403   4.996  16.193  0.00  0.00    +0.000 A 
ATOM      3  N   UNL     1       5.206   4.020  17.041  0.00  0.00    +0.000 NA
ATOM      4  C   UNL     1       4.354   4.523  18.007  0.00  0.00    +0.000 A 
ATOM      5  C   UNL     1       3.817   3.921  19.164  0.00  0.00    +0.000 A 
ATOM      6 BR   UNL     1       4.376   2.148  19.577  0.00  0.00    +0.000 Br
ATOM      7  C   UNL     1       2.897   4.654  19.951  0.00  0.00    +0.000 A 
ATOM      8 BR   UNL     1       2.152   3.839  21.522  0.00  0.00    +0.000 Br
ATOM      9  C   UNL     1       2.526   5.969  19.584  0.00  0.00    +0.000 A 
ATOM     10 BR   UNL     1       1.233   6.947  20.612  0.00  0.00    +0.000 Br
ATOM     11  C   UNL     1       3.094   6.583  18.449  0.00  0.00    +0.000 A 
ATOM     12 BR   UNL     1       2.681   8.339  17.853  0.00  0.00    +0.000 Br
ATOM     13  C   UNL     1       4.007   5.834  17.705  0.00  0.00    +0.000 A 
ATOM     14  N   UNL     1       4.736   6.123  16.577  0.00  0.00    +0.000 N 
ATOM     15  H   UNL     1       6.972   5.518  15.041  0.00  0.00    +0.000 HD
ATOM     16  H   UNL     1       4.716   6.982  16.050  0.00  0.00    +0.000 HD
ENDROOT
BRANCH   1  17
ATOM     17  C   UNL     1       6.270   3.742  14.343  0.00  0.00    +0.000 C 
BRANCH  17  18
ATOM     18  C   UNL     1       5.712   3.845  12.910  0.00  0.00    +0.000 C 
BRANCH  18  19
ATOM     19  N   UNL     1       6.088   2.684  12.090  0.00  0.00    +0.000 NA
ATOM     20  H   UNL     1       5.270   2.085  11.976  0.00  0.00    +0.000 HD
ATOM     21  H   UNL     1       6.770   2.124  12.604  0.00  0.00    +0.000 HD
ENDBRANCH  18  19
ENDBRANCH  17  18
ENDBRANCH   1  17
TORSDOF 3
ENDMDL
MODEL 5
REMARK VINA RESULT:      -5.9      0.832      3.023
REMARK  Name = 
REMARK  3 active torsions:
REMARK  status: ('A' for Active; 'I' for Inactive)
REMARK    1  A    between atoms: N_1  and  C_2
REMARK    2  A    between atoms: C_2  and  C_3
REMARK    3  A    between atoms: C_3  and  N_4
REMARK                            x       y       z     vdW  Elec       q    Type
REMARK                         _______ _______ _______ _____ _____    ______ ____
ROOT
ATOM      1  N   UNL     1       1.497   8.795  20.534  0.00  0.00    +0.000 N 
ATOM      2  C   UNL     1       1.865   7.610  20.009  0.00  0.00    +0.000 A 
ATOM      3  N   UNL     1       1.648   6.390  20.426  0.00  0.00    +0.000 NA
ATOM      4  C   UNL     1       2.344   5.564  19.563  0.00  0.00    +0.000 A 
ATOM      5  C   UNL     1       2.460   4.159  19.527  0.00  0.00    +0.000 A 
ATOM      6 BR   UNL     1       1.453   3.158  20.795  0.00  0.00    +0.000 Br
ATOM      7  C   UNL     1       3.311   3.569  18.562  0.00  0.00    +0.000 A 
ATOM      8 BR   UNL     1       3.484   1.657  18.512  0.00  0.00    +0.000 Br
ATOM      9  C   UNL     1       4.031   4.375  17.649  0.00  0.00    +0.000 A 
ATOM     10 BR   UNL     1       5.234   3.586  16.379  0.00  0.00    +0.000 Br
ATOM     11  C   UNL     1       3.883   5.778  17.662  0.00  0.00    +0.000 A 
ATOM     12 BR   UNL     1       4.789   6.968  16.492  0.00  0.00    +0.000 Br
ATOM     13  C   UNL     1       3.025   6.323  18.619  0.00  0.00    +0.000 A 
ATOM     14  N   UNL     1       2.653   7.616  18.895  0.00  0.00    +0.000 N 
ATOM     15  H   UNL     1       0.751   9.289  20.038  0.00  0.00    +0.000 HD
ATOM     16  H   UNL     1       2.977   8.449  18.429  0.00  0.00    +0.000 HD
ENDROOT
BRANCH   1  17
ATOM     17  C   UNL     1       1.194   8.822  21.966  0.00  0.00    +0.000 C 
BRANCH  17  18
ATOM     18  C   UNL     1      -0.318   9.051  22.158  0.00  0.00    +0.000 C 
BRANCH  18  19
ATOM     19  N   UNL     1      -0.626   9.580  23.496  0.00  0.00    +0.000 NA
ATOM     20  H   UNL     1      -0.695   8.798  24.148  0.00  0.00    +0.000 HD
ATOM     21  H   UNL     1      -1.554  10.006  23.476  0.00  0.00    +0.000 HD
ENDBRANCH  18  19
ENDBRANCH  17  18
ENDBRANCH   1  17
TORSDOF 3
ENDMDL
MODEL 6
REMARK VINA RESULT:      -5.8      1.253      1.544
REMARK  Name = 
REMARK  3 active torsions:
REMARK  status: ('A' for Active; 'I' for Inactive)
REMARK    1  A    between atoms: N_1  and  C_2
REMARK    2  A    between atoms: C_2  and  C_3
REMARK    3  A    between atoms: C_3  and  N_4
REMARK                            x       y       z     vdW  Elec       q    Type
REMARK                         _______ _______ _______ _____ _____    ______ ____
ROOT
ATOM      1  N   UNL     1       1.203   8.815  20.664  0.00  0.00    +0.000 N 
ATOM      2  C   UNL     1       1.877   7.812  20.070  0.00  0.00    +0.000 A 
ATOM      3  N   UNL     1       2.671   7.817  19.030  0.00  0.00    +0.000 NA
ATOM      4  C   UNL     1       2.997   6.494  18.795  0.00  0.00    +0.000 A 
ATOM      5  C   UNL     1       3.826   5.911  17.815  0.00  0.00    +0.000 A 
ATOM      6 BR   UNL     1       4.750   7.082  16.631  0.00  0.00    +0.000 Br
ATOM      7  C   UNL     1       3.928   4.501  17.758  0.00  0.00    +0.000 A 
ATOM      8 BR   UNL     1       5.046   3.697  16.418  0.00  0.00    +0.000 Br
ATOM      9  C   UNL     1       3.212   3.690  18.670  0.00  0.00    +0.000 A 
ATOM     10 BR   UNL     1       3.297   1.776  18.560  0.00  0.00    +0.000 Br
ATOM     11  C   UNL     1       2.415   4.277  19.675  0.00  0.00    +0.000 A 
ATOM     12 BR   UNL     1       1.408   3.303  20.958  0.00  0.00    +0.000 Br
ATOM     13  C   UNL     1       2.349   5.671  19.708  0.00  0.00    +0.000 A 
ATOM     14  N   UNL     1       1.692   6.544  20.540  0.00  0.00    +0.000 N 
ATOM     15  H   UNL     1       1.570   9.124  21.569  0.00  0.00    +0.000 HD
ATOM     16  H   UNL     1       1.087   6.304  21.310  0.00  0.00    +0.000 HD
ENDROOT
BRANCH   1  17
ATOM     17  C   UNL     1       0.927  10.002  19.852  0.00  0.00    +0.000 C 
BRANCH  17  18
ATOM     18  C   UNL     1      -0.520   9.928  19.325  0.00  0.00    +0.000 C 
BRANCH  18  19
ATOM     19  N   UNL     1      -0.587  10.146  17.872  0.00  0.00    +0.000 NA
ATOM     20  H   UNL     1       0.335  10.433  17.542  0.00  0.00    +0.000 HD
ATOM     21  H   UNL     1      -1.205  10.936  17.685  0.00  0.00    +0.000 HD
ENDBRANCH  18  19
ENDBRANCH  17  18
ENDBRANCH   1  17
TORSDOF 3
ENDMDL
MODEL 7
REMARK VINA RESULT:      -5.6      8.078     10.158
REMARK  Name = 
REMARK  3 active torsions:
REMARK  status: ('A' for Active; 'I' for Inactive)
REMARK    1  A    between atoms: N_1  and  C_2
REMARK    2  A    between atoms: C_2  and  C_3
REMARK    3  A    between atoms: C_3  and  N_4
REMARK                            x       y       z     vdW  Elec       q    Type
REMARK                         _______ _______ _______ _____ _____    ______ ____
ROOT
ATOM      1  N   UNL     1      -2.974  10.044  14.589  0.00  0.00    +0.000 N 
ATOM      2  C   UNL     1      -3.194  10.520  15.830  0.00  0.00    +0.000 A 
ATOM      3  N   UNL     1      -4.311  10.717  16.481  0.00  0.00    +0.000 NA
ATOM      4  C   UNL     1      -3.954  11.325  17.671  0.00  0.00    +0.000 A 
ATOM      5  C   UNL     1      -4.744  11.751  18.759  0.00  0.00    +0.000 A 
ATOM      6 BR   UNL     1      -6.612  11.391  18.688  0.00  0.00    +0.000 Br
ATOM      7  C   UNL     1      -4.116  12.420  19.836  0.00  0.00    +0.000 A 
ATOM      8 BR   UNL     1      -5.185  13.015  21.318  0.00  0.00    +0.000 Br
ATOM      9  C   UNL     1      -2.721  12.655  19.823  0.00  0.00    +0.000 A 
ATOM     10 BR   UNL     1      -1.873  13.615  21.251  0.00  0.00    +0.000 Br
ATOM     11  C   UNL     1      -1.928  12.192  18.752  0.00  0.00    +0.000 A 
ATOM     12 BR   UNL     1      -0.050  12.440  18.616  0.00  0.00    +0.000 Br
ATOM     13  C   UNL     1      -2.581  11.525  17.714  0.00  0.00    +0.000 A 
ATOM     14  N   UNL     1      -2.121  10.950  16.554  0.00  0.00    +0.000 N 
ATOM     15  H   UNL     1      -2.591   9.096  14.538  0.00  0.00    +0.000 HD
ATOM     16  H   UNL     1      -1.167  10.931  16.227  0.00  0.00    +0.000 HD
ENDROOT
BRANCH   1  17
ATOM     17  C   UNL     1      -4.079  10.145  13.634  0.00  0.00    +0.000 C 
BRANCH  17  18
ATOM     18  C   UNL     1      -3.585   9.707  12.241  0.00  0.00    +0.000 C 
BRANCH  18  19
ATOM     19  N   UNL     1      -2.127   9.511  12.213  0.00  0.00    +0.000 NA
ATOM     20  H   UNL     1      -1.854   8.969  13.033  0.00  0.00    +0.000 HD
ATOM     21  H   UNL     1      -1.670  10.419  12.318  0.00  0.00    +0.000 HD
ENDBRANCH  18  19
ENDBRANCH  17  18
ENDBRANCH   1  17
TORSDOF 3
ENDMDL
MODEL 8
REMARK VINA RESULT:      -5.6      6.539      8.683
REMARK  Name = 
REMARK  3 active torsions:
REMARK  status: ('A' for Active; 'I' for Inactive)
REMARK    1  A    between atoms: N_1  and  C_2
REMARK    2  A    between atoms: C_2  and  C_3
REMARK    3  A    between atoms: C_3  and  N_4
REMARK                            x       y       z     vdW  Elec       q    Type
REMARK                         _______ _______ _______ _____ _____    ______ ____
ROOT
ATOM      1  N   UNL     1      -3.364  11.141  15.288  0.00  0.00    +0.000 N 
ATOM      2  C   UNL     1      -2.684  11.165  16.450  0.00  0.00    +0.000 A 
ATOM      3  N   UNL     1      -1.592  10.542  16.811  0.00  0.00    +0.000 NA
ATOM      4  C   UNL     1      -1.404  10.848  18.146  0.00  0.00    +0.000 A 
ATOM      5  C   UNL     1      -0.385  10.465  19.043  0.00  0.00    +0.000 A 
ATOM      6 BR   UNL     1       1.049   9.419  18.355  0.00  0.00    +0.000 Br
ATOM      7  C   UNL     1      -0.479  10.870  20.396  0.00  0.00    +0.000 A 
ATOM      8 BR   UNL     1       0.897  10.344  21.628  0.00  0.00    +0.000 Br
ATOM      9  C   UNL     1      -1.575  11.648  20.839  0.00  0.00    +0.000 A 
ATOM     10 BR   UNL     1      -1.741  12.149  22.684  0.00  0.00    +0.000 Br
ATOM     11  C   UNL     1      -2.571  12.063  19.932  0.00  0.00    +0.000 A 
ATOM     12 BR   UNL     1      -4.088  13.107  20.399  0.00  0.00    +0.000 Br
ATOM     13  C   UNL     1      -2.438  11.655  18.603  0.00  0.00    +0.000 A 
ATOM     14  N   UNL     1      -3.204  11.885  17.486  0.00  0.00    +0.000 N 
ATOM     15  H   UNL     1      -3.287  11.982  14.710  0.00  0.00    +0.000 HD
ATOM     16  H   UNL     1      -4.063  12.410  17.442  0.00  0.00    +0.000 HD
ENDROOT
BRANCH   1  17
ATOM     17  C   UNL     1      -3.169   9.972  14.428  0.00  0.00    +0.000 C 
BRANCH  17  18
ATOM     18  C   UNL     1      -4.152  10.046  13.243  0.00  0.00    +0.000 C 
BRANCH  18  19
ATOM     19  N   UNL     1      -3.510   9.671  11.974  0.00  0.00    +0.000 NA
ATOM     20  H   UNL     1      -3.749  10.367  11.268  0.00  0.00    +0.000 HD
ATOM     21  H   UNL     1      -3.916   8.793  11.645  0.00  0.00    +0.000 HD
ENDBRANCH  18  19
ENDBRANCH  17  18
ENDBRANCH   1  17
TORSDOF 3
ENDMDL
MODEL 9
REMARK VINA RESULT:      -5.5      1.746      2.152
REMARK  Name = 
REMARK  3 active torsions:
REMARK  status: ('A' for Active; 'I' for Inactive)
REMARK    1  A    between atoms: N_1  and  C_2
REMARK    2  A    between atoms: C_2  and  C_3
REMARK    3  A    between atoms: C_3  and  N_4
REMARK                            x       y       z     vdW  Elec       q    Type
REMARK                         _______ _______ _______ _____ _____    ______ ____
ROOT
ATOM      1  N   UNL     1       1.198   9.262  19.672  0.00  0.00    +0.000 N 
ATOM      2  C   UNL     1       1.971   8.223  19.299  0.00  0.00    +0.000 A 
ATOM      3  N   UNL     1       2.721   8.057  18.241  0.00  0.00    +0.000 NA
ATOM      4  C   UNL     1       3.201   6.762  18.316  0.00  0.00    +0.000 A 
ATOM      5  C   UNL     1       4.062   6.049  17.456  0.00  0.00    +0.000 A 
ATOM      6 BR   UNL     1       4.792   6.982  15.965  0.00  0.00    +0.000 Br
ATOM      7  C   UNL     1       4.335   4.689  17.739  0.00  0.00    +0.000 A 
ATOM      8 BR   UNL     1       5.497   3.706  16.568  0.00  0.00    +0.000 Br
ATOM      9  C   UNL     1       3.757   4.059  18.866  0.00  0.00    +0.000 A 
ATOM     10 BR   UNL     1       4.075   2.200  19.221  0.00  0.00    +0.000 Br
ATOM     11  C   UNL     1       2.929   4.785  19.745  0.00  0.00    +0.000 A 
ATOM     12 BR   UNL     1       2.096   4.058  21.290  0.00  0.00    +0.000 Br
ATOM     13  C   UNL     1       2.692   6.127  19.441  0.00  0.00    +0.000 A 
ATOM     14  N   UNL     1       1.960   7.102  20.075  0.00  0.00    +0.000 N 
ATOM     15  H   UNL     1       1.555   9.826  20.448  0.00  0.00    +0.000 HD
ATOM     16  H   UNL     1       1.417   6.996  20.918  0.00  0.00    +0.000 HD
ENDROOT
BRANCH   1  17
ATOM     17  C   UNL     1       0.749  10.169  18.614  0.00  0.00    +0.000 C 
BRANCH  17  18
ATOM     18  C   UNL     1       1.649  11.421  18.605  0.00  0.00    +0.000 C 
BRANCH  18  19
ATOM     19  N   UNL     1       2.556  11.436  17.448  0.00  0.00    +0.000 NA
ATOM     20  H   UNL     1       2.174  10.824  16.725  0.00  0.00    +0.000 HD
ATOM     21  H   UNL     1       3.447  11.018  17.721  0.00  0.00    +0.000 HD
ENDBRANCH  18  19
ENDBRANCH  17  18
ENDBRANCH   1  17
TORSDOF 3
ENDMDL
