MODEL 1
REMARK VINA RESULT:      -8.3      0.000      0.000
REMARK  Name = 
REMARK  4 active torsions:
REMARK  status: ('A' for Active; 'I' for Inactive)
REMARK    1  A    between atoms: C_14  and  S_15
REMARK    2  A    between atoms: S_15  and  C_16
REMARK    3  A    between atoms: C_16  and  C_17
REMARK    4  A    between atoms: C_17  and  N_18
REMARK                            x       y       z     vdW  Elec       q    Type
REMARK                         _______ _______ _______ _____ _____    ______ ____
ROOT
ATOM      1  C   UNL     1       6.782   4.981  15.872  0.00  0.00    +0.000 A 
ATOM      2  C   UNL     1       6.836   6.140  16.642  0.00  0.00    +0.000 A 
ATOM      3  C   UNL     1       5.854   6.389  17.603  0.00  0.00    +0.000 A 
ATOM      4  C   UNL     1       4.776   5.499  17.788  0.00  0.00    +0.000 A 
ATOM      5  C   UNL     1       4.765   4.304  17.038  0.00  0.00    +0.000 A 
ATOM      6  C   UNL     1       5.760   4.057  16.082  0.00  0.00    +0.000 A 
ATOM      7  O   UNL     1       3.805   3.374  17.220  0.00  0.00    +0.000 OA
ATOM      8  C   UNL     1       2.821   3.480  18.139  0.00  0.00    +0.000 A 
ATOM      9  C   UNL     1       1.914   2.424  18.273  0.00  0.00    +0.000 A 
ATOM     10  C   UNL     1       0.871   2.508  19.197  0.00  0.00    +0.000 A 
ATOM     11  C   UNL     1       0.734   3.644  19.994  0.00  0.00    +0.000 A 
ATOM     12  C   UNL     1       1.638   4.703  19.868  0.00  0.00    +0.000 A 
ATOM     13  C   UNL     1       2.693   4.637  18.935  0.00  0.00    +0.000 A 
ATOM     14  C   UNL     1       3.647   5.814  18.777  0.00  0.00    +0.000 C 
ENDROOT
BRANCH  14  15
ATOM     15  S   UNL     1       2.568   7.215  18.199  0.00  0.00    +0.000 S 
BRANCH  15  16
ATOM     16  C   UNL     1       1.899   7.833  19.774  0.00  0.00    +0.000 C 
BRANCH  16  17
ATOM     17  C   UNL     1       1.179   9.173  19.603  0.00  0.00    +0.000 C 
BRANCH  17  18
ATOM     18  N   UNL     1       0.867   9.797  20.913  0.00  0.00    +0.000 NA
ATOM     19  C   UNL     1      -0.101  10.901  20.718  0.00  0.00    +0.000 C 
ATOM     20  C   UNL     1      -0.393  11.613  22.046  0.00  0.00    +0.000 C 
ATOM     21  C   UNL     1      -0.945  10.613  23.061  0.00  0.00    +0.000 C 
ATOM     22  C   UNL     1       0.064   9.482  23.242  0.00  0.00    +0.000 C 
ATOM     23  C   UNL     1       0.343   8.812  21.893  0.00  0.00    +0.000 C 
ENDBRANCH  17  18
ENDBRANCH  16  17
ENDBRANCH  15  16
ENDBRANCH  14  15
TORSDOF 4
ENDMDL
MODEL 2
REMARK VINA RESULT:      -8.3      3.017      5.469
REMARK  Name = 
REMARK  4 active torsions:
REMARK  status: ('A' for Active; 'I' for Inactive)
REMARK    1  A    between atoms: C_14  and  S_15
REMARK    2  A    between atoms: S_15  and  C_16
REMARK    3  A    between atoms: C_16  and  C_17
REMARK    4  A    between atoms: C_17  and  N_18
REMARK                            x       y       z     vdW  Elec       q    Type
REMARK                         _______ _______ _______ _____ _____    ______ ____
ROOT
ATOM      1  C   UNL     1       3.393   1.631  18.596  0.00  0.00    +0.000 A 
ATOM      2  C   UNL     1       2.670   2.193  17.547  0.00  0.00    +0.000 A 
ATOM      3  C   UNL     1       3.060   3.418  17.003  0.00  0.00    +0.000 A 
ATOM      4  C   UNL     1       4.164   4.125  17.525  0.00  0.00    +0.000 A 
ATOM      5  C   UNL     1       4.917   3.518  18.552  0.00  0.00    +0.000 A 
ATOM      6  C   UNL     1       4.524   2.283  19.085  0.00  0.00    +0.000 A 
ATOM      7  O   UNL     1       6.028   4.105  19.043  0.00  0.00    +0.000 OA
ATOM      8  C   UNL     1       6.529   5.271  18.583  0.00  0.00    +0.000 A 
ATOM      9  C   UNL     1       7.720   5.753  19.134  0.00  0.00    +0.000 A 
ATOM     10  C   UNL     1       8.255   6.966  18.697  0.00  0.00    +0.000 A 
ATOM     11  C   UNL     1       7.607   7.698  17.704  0.00  0.00    +0.000 A 
ATOM     12  C   UNL     1       6.417   7.221  17.145  0.00  0.00    +0.000 A 
ATOM     13  C   UNL     1       5.859   6.002  17.580  0.00  0.00    +0.000 A 
ATOM     14  C   UNL     1       4.541   5.513  16.994  0.00  0.00    +0.000 C 
ENDROOT
BRANCH  14  15
ATOM     15  S   UNL     1       3.304   6.818  17.475  0.00  0.00    +0.000 S 
BRANCH  15  16
ATOM     16  C   UNL     1       3.415   6.773  19.290  0.00  0.00    +0.000 C 
BRANCH  16  17
ATOM     17  C   UNL     1       2.088   6.360  19.934  0.00  0.00    +0.000 C 
BRANCH  17  18
ATOM     18  N   UNL     1       2.022   4.895  20.159  0.00  0.00    +0.000 NA
ATOM     19  C   UNL     1       2.588   4.572  21.489  0.00  0.00    +0.000 C 
ATOM     20  C   UNL     1       2.598   3.056  21.726  0.00  0.00    +0.000 C 
ATOM     21  C   UNL     1       1.177   2.504  21.617  0.00  0.00    +0.000 C 
ATOM     22  C   UNL     1       0.613   2.852  20.243  0.00  0.00    +0.000 C 
ATOM     23  C   UNL     1       0.639   4.370  20.038  0.00  0.00    +0.000 C 
ENDBRANCH  17  18
ENDBRANCH  16  17
ENDBRANCH  15  16
ENDBRANCH  14  15
TORSDOF 4
ENDMDL
MODEL 3
REMARK VINA RESULT:      -8.2      1.825      4.301
REMARK  Name = 
REMARK  4 active torsions:
REMARK  status: ('A' for Active; 'I' for Inactive)
REMARK    1  A    between atoms: C_14  and  S_15
REMARK    2  A    between atoms: S_15  and  C_16
REMARK    3  A    between atoms: C_16  and  C_17
REMARK    4  A    between atoms: C_17  and  N_18
REMARK                            x       y       z     vdW  Elec       q    Type
REMARK                         _______ _______ _______ _____ _____    ______ ____
ROOT
ATOM      1  C   UNL     1       1.972   1.887  19.167  0.00  0.00    +0.000 A 
ATOM      2  C   UNL     1       1.061   2.761  18.581  0.00  0.00    +0.000 A 
ATOM      3  C   UNL     1       1.493   3.990  18.077  0.00  0.00    +0.000 A 
ATOM      4  C   UNL     1       2.843   4.384  18.183  0.00  0.00    +0.000 A 
ATOM      5  C   UNL     1       3.763   3.464  18.730  0.00  0.00    +0.000 A 
ATOM      6  C   UNL     1       3.321   2.229  19.226  0.00  0.00    +0.000 A 
ATOM      7  O   UNL     1       5.080   3.746  18.791  0.00  0.00    +0.000 OA
ATOM      8  C   UNL     1       5.629   4.882  18.310  0.00  0.00    +0.000 A 
ATOM      9  C   UNL     1       7.017   5.038  18.380  0.00  0.00    +0.000 A 
ATOM     10  C   UNL     1       7.616   6.209  17.911  0.00  0.00    +0.000 A 
ATOM     11  C   UNL     1       6.832   7.225  17.366  0.00  0.00    +0.000 A 
ATOM     12  C   UNL     1       5.444   7.075  17.290  0.00  0.00    +0.000 A 
ATOM     13  C   UNL     1       4.822   5.902  17.765  0.00  0.00    +0.000 A 
ATOM     14  C   UNL     1       3.305   5.769  17.715  0.00  0.00    +0.000 C 
ENDROOT
BRANCH  14  15
ATOM     15  S   UNL     1       2.679   7.135  18.813  0.00  0.00    +0.000 S 
BRANCH  15  16
ATOM     16  C   UNL     1       1.967   8.283  17.595  0.00  0.00    +0.000 C 
BRANCH  16  17
ATOM     17  C   UNL     1       1.837   9.702  18.155  0.00  0.00    +0.000 C 
BRANCH  17  18
ATOM     18  N   UNL     1       0.509   9.924  18.779  0.00  0.00    +0.000 NA
ATOM     19  C   UNL     1       0.595  11.047  19.741  0.00  0.00    +0.000 C 
ATOM     20  C   UNL     1      -0.746  11.259  20.457  0.00  0.00    +0.000 C 
ATOM     21  C   UNL     1      -1.843  11.537  19.430  0.00  0.00    +0.000 C 
ATOM     22  C   UNL     1      -1.911  10.372  18.447  0.00  0.00    +0.000 C 
ATOM     23  C   UNL     1      -0.549  10.181  17.771  0.00  0.00    +0.000 C 
ENDBRANCH  17  18
ENDBRANCH  16  17
ENDBRANCH  15  16
ENDBRANCH  14  15
TORSDOF 4
ENDMDL
MODEL 4
REMARK VINA RESULT:      -8.0      1.455      4.200
REMARK  Name = 
REMARK  4 active torsions:
REMARK  status: ('A' for Active; 'I' for Inactive)
REMARK    1  A    between atoms: C_14  and  S_15
REMARK    2  A    between atoms: S_15  and  C_16
REMARK    3  A    between atoms: C_16  and  C_17
REMARK    4  A    between atoms: C_17  and  N_18
REMARK                            x       y       z     vdW  Elec       q    Type
REMARK                         _______ _______ _______ _____ _____    ______ ____
ROOT
ATOM      1  C   UNL     1       2.284   2.212  19.415  0.00  0.00    +0.000 A 
ATOM      2  C   UNL     1       1.584   2.810  18.371  0.00  0.00    +0.000 A 
ATOM      3  C   UNL     1       2.137   3.893  17.685  0.00  0.00    +0.000 A 
ATOM      4  C   UNL     1       3.390   4.424  18.056  0.00  0.00    +0.000 A 
ATOM      5  C   UNL     1       4.110   3.774  19.080  0.00  0.00    +0.000 A 
ATOM      6  C   UNL     1       3.551   2.681  19.758  0.00  0.00    +0.000 A 
ATOM      7  O   UNL     1       5.346   4.183  19.433  0.00  0.00    +0.000 OA
ATOM      8  C   UNL     1       6.005   5.194  18.827  0.00  0.00    +0.000 A 
ATOM      9  C   UNL     1       7.306   5.491  19.243  0.00  0.00    +0.000 A 
ATOM     10  C   UNL     1       8.008   6.543  18.654  0.00  0.00    +0.000 A 
ATOM     11  C   UNL     1       7.416   7.299  17.643  0.00  0.00    +0.000 A 
ATOM     12  C   UNL     1       6.116   7.007  17.219  0.00  0.00    +0.000 A 
ATOM     13  C   UNL     1       5.390   5.951  17.808  0.00  0.00    +0.000 A 
ATOM     14  C   UNL     1       3.960   5.669  17.367  0.00  0.00    +0.000 C 
ENDROOT
BRANCH  14  15
ATOM     15  S   UNL     1       3.022   7.215  17.806  0.00  0.00    +0.000 S 
BRANCH  15  16
ATOM     16  C   UNL     1       2.100   6.676  19.279  0.00  0.00    +0.000 C 
BRANCH  16  17
ATOM     17  C   UNL     1       2.274   7.648  20.450  0.00  0.00    +0.000 C 
BRANCH  17  18
ATOM     18  N   UNL     1       1.024   8.397  20.728  0.00  0.00    +0.000 NA
ATOM     19  C   UNL     1       1.042   8.888  22.126  0.00  0.00    +0.000 C 
ATOM     20  C   UNL     1      -0.268   9.610  22.469  0.00  0.00    +0.000 C 
ATOM     21  C   UNL     1      -0.483  10.780  21.510  0.00  0.00    +0.000 C 
ATOM     22  C   UNL     1      -0.492  10.253  20.078  0.00  0.00    +0.000 C 
ATOM     23  C   UNL     1       0.822   9.523  19.783  0.00  0.00    +0.000 C 
ENDBRANCH  17  18
ENDBRANCH  16  17
ENDBRANCH  15  16
ENDBRANCH  14  15
TORSDOF 4
ENDMDL
MODEL 5
REMARK VINA RESULT:      -8.0      1.428      4.057
REMARK  Name = 
REMARK  4 active torsions:
REMARK  status: ('A' for Active; 'I' for Inactive)
REMARK    1  A    between atoms: C_14  and  S_15
REMARK    2  A    between atoms: S_15  and  C_16
REMARK    3  A    between atoms: C_16  and  C_17
REMARK    4  A    between atoms: C_17  and  N_18
REMARK                            x       y       z     vdW  Elec       q    Type
REMARK                         _______ _______ _______ _____ _____    ______ ____
ROOT
ATOM      1  C   UNL     1       1.820   2.547  19.661  0.00  0.00    +0.000 A 
ATOM      2  C   UNL     1       1.104   3.198  18.660  0.00  0.00    +0.000 A 
ATOM      3  C   UNL     1       1.696   4.237  17.939  0.00  0.00    +0.000 A 
ATOM      4  C   UNL     1       3.006   4.670  18.231  0.00  0.00    +0.000 A 
ATOM      5  C   UNL     1       3.736   3.965  19.211  0.00  0.00    +0.000 A 
ATOM      6  C   UNL     1       3.137   2.917  19.924  0.00  0.00    +0.000 A 
ATOM      7  O   UNL     1       5.019   4.277  19.485  0.00  0.00    +0.000 OA
ATOM      8  C   UNL     1       5.714   5.237  18.838  0.00  0.00    +0.000 A 
ATOM      9  C   UNL     1       7.058   5.432  19.173  0.00  0.00    +0.000 A 
ATOM     10  C   UNL     1       7.801   6.429  18.539  0.00  0.00    +0.000 A 
ATOM     11  C   UNL     1       7.207   7.230  17.564  0.00  0.00    +0.000 A 
ATOM     12  C   UNL     1       5.865   7.039  17.221  0.00  0.00    +0.000 A 
ATOM     13  C   UNL     1       5.098   6.041  17.857  0.00  0.00    +0.000 A 
ATOM     14  C   UNL     1       3.626   5.870  17.505  0.00  0.00    +0.000 C 
ENDROOT
BRANCH  14  15
ATOM     15  S   UNL     1       2.838   7.482  17.997  0.00  0.00    +0.000 S 
BRANCH  15  16
ATOM     16  C   UNL     1       2.616   7.248  19.787  0.00  0.00    +0.000 C 
BRANCH  16  17
ATOM     17  C   UNL     1       1.162   7.468  20.216  0.00  0.00    +0.000 C 
BRANCH  17  18
ATOM     18  N   UNL     1       1.019   8.682  21.057  0.00  0.00    +0.000 NA
ATOM     19  C   UNL     1       0.763   9.857  20.192  0.00  0.00    +0.000 C 
ATOM     20  C   UNL     1       0.678  11.142  21.026  0.00  0.00    +0.000 C 
ATOM     21  C   UNL     1      -0.432  11.013  22.067  0.00  0.00    +0.000 C 
ATOM     22  C   UNL     1      -0.153   9.795  22.943  0.00  0.00    +0.000 C 
ATOM     23  C   UNL     1      -0.055   8.539  22.072  0.00  0.00    +0.000 C 
ENDBRANCH  17  18
ENDBRANCH  16  17
ENDBRANCH  15  16
ENDBRANCH  14  15
TORSDOF 4
ENDMDL
MODEL 6
REMARK VINA RESULT:      -8.0      0.414      1.107
REMARK  Name = 
REMARK  4 active torsions:
REMARK  status: ('A' for Active; 'I' for Inactive)
REMARK    1  A    between atoms: C_14  and  S_15
REMARK    2  A    between atoms: S_15  and  C_16
REMARK    3  A    between atoms: C_16  and  C_17
REMARK    4  A    between atoms: C_17  and  N_18
REMARK                            x       y       z     vdW  Elec       q    Type
REMARK                         _______ _______ _______ _____ _____    ______ ____
ROOT
ATOM      1  C   UNL     1       6.639   5.301  15.807  0.00  0.00    +0.000 A 
ATOM      2  C   UNL     1       6.561   6.447  16.593  0.00  0.00    +0.000 A 
ATOM      3  C   UNL     1       5.557   6.570  17.556  0.00  0.00    +0.000 A 
ATOM      4  C   UNL     1       4.588   5.560  17.728  0.00  0.00    +0.000 A 
ATOM      5  C   UNL     1       4.712   4.382  16.961  0.00  0.00    +0.000 A 
ATOM      6  C   UNL     1       5.728   4.264  16.002  0.00  0.00    +0.000 A 
ATOM      7  O   UNL     1       3.865   3.346  17.129  0.00  0.00    +0.000 OA
ATOM      8  C   UNL     1       2.875   3.326  18.047  0.00  0.00    +0.000 A 
ATOM      9  C   UNL     1       2.095   2.172  18.166  0.00  0.00    +0.000 A 
ATOM     10  C   UNL     1       1.050   2.124  19.090  0.00  0.00    +0.000 A 
ATOM     11  C   UNL     1       0.785   3.225  19.903  0.00  0.00    +0.000 A 
ATOM     12  C   UNL     1       1.562   4.381  19.793  0.00  0.00    +0.000 A 
ATOM     13  C   UNL     1       2.617   4.450  18.860  0.00  0.00    +0.000 A 
ATOM     14  C   UNL     1       3.431   5.730  18.719  0.00  0.00    +0.000 C 
ENDROOT
BRANCH  14  15
ATOM     15  S   UNL     1       2.199   7.007  18.161  0.00  0.00    +0.000 S 
BRANCH  15  16
ATOM     16  C   UNL     1       2.000   8.005  19.669  0.00  0.00    +0.000 C 
BRANCH  16  17
ATOM     17  C   UNL     1       1.321   9.347  19.381  0.00  0.00    +0.000 C 
BRANCH  17  18
ATOM     18  N   UNL     1       0.271   9.655  20.383  0.00  0.00    +0.000 NA
ATOM     19  C   UNL     1       0.604   8.997  21.668  0.00  0.00    +0.000 C 
ATOM     20  C   UNL     1      -0.498   9.238  22.708  0.00  0.00    +0.000 C 
ATOM     21  C   UNL     1      -0.688  10.739  22.926  0.00  0.00    +0.000 C 
ATOM     22  C   UNL     1      -1.024  11.396  21.590  0.00  0.00    +0.000 C 
ATOM     23  C   UNL     1       0.089  11.115  20.576  0.00  0.00    +0.000 C 
ENDBRANCH  17  18
ENDBRANCH  16  17
ENDBRANCH  15  16
ENDBRANCH  14  15
TORSDOF 4
ENDMDL
MODEL 7
REMARK VINA RESULT:      -7.9      1.569      4.071
REMARK  Name = 
REMARK  4 active torsions:
REMARK  status: ('A' for Active; 'I' for Inactive)
REMARK    1  A    between atoms: C_14  and  S_15
REMARK    2  A    between atoms: S_15  and  C_16
REMARK    3  A    between atoms: C_16  and  C_17
REMARK    4  A    between atoms: C_17  and  N_18
REMARK                            x       y       z     vdW  Elec       q    Type
REMARK                         _______ _______ _______ _____ _____    ______ ____
ROOT
ATOM      1  C   UNL     1       1.915   1.947  19.133  0.00  0.00    +0.000 A 
ATOM      2  C   UNL     1       1.029   2.850  18.553  0.00  0.00    +0.000 A 
ATOM      3  C   UNL     1       1.493   4.075  18.069  0.00  0.00    +0.000 A 
ATOM      4  C   UNL     1       2.851   4.436  18.191  0.00  0.00    +0.000 A 
ATOM      5  C   UNL     1       3.745   3.488  18.733  0.00  0.00    +0.000 A 
ATOM      6  C   UNL     1       3.272   2.257  19.207  0.00  0.00    +0.000 A 
ATOM      7  O   UNL     1       5.069   3.739  18.808  0.00  0.00    +0.000 OA
ATOM      8  C   UNL     1       5.647   4.868  18.347  0.00  0.00    +0.000 A 
ATOM      9  C   UNL     1       7.037   4.991  18.430  0.00  0.00    +0.000 A 
ATOM     10  C   UNL     1       7.667   6.154  17.982  0.00  0.00    +0.000 A 
ATOM     11  C   UNL     1       6.911   7.195  17.445  0.00  0.00    +0.000 A 
ATOM     12  C   UNL     1       5.521   7.079  17.356  0.00  0.00    +0.000 A 
ATOM     13  C   UNL     1       4.868   5.914  17.810  0.00  0.00    +0.000 A 
ATOM     14  C   UNL     1       3.350   5.816  17.746  0.00  0.00    +0.000 C 
ENDROOT
BRANCH  14  15
ATOM     15  S   UNL     1       2.746   7.181  18.858  0.00  0.00    +0.000 S 
BRANCH  15  16
ATOM     16  C   UNL     1       2.384   8.497  17.655  0.00  0.00    +0.000 C 
BRANCH  16  17
ATOM     17  C   UNL     1       1.065   9.210  17.968  0.00  0.00    +0.000 C 
BRANCH  17  18
ATOM     18  N   UNL     1       1.185  10.083  19.162  0.00  0.00    +0.000 NA
ATOM     19  C   UNL     1       0.673  11.435  18.840  0.00  0.00    +0.000 C 
ATOM     20  C   UNL     1       0.846  12.384  20.034  0.00  0.00    +0.000 C 
ATOM     21  C   UNL     1       0.113  11.826  21.252  0.00  0.00    +0.000 C 
ATOM     22  C   UNL     1       0.652  10.432  21.562  0.00  0.00    +0.000 C 
ATOM     23  C   UNL     1       0.479   9.524  20.341  0.00  0.00    +0.000 C 
ENDBRANCH  17  18
ENDBRANCH  16  17
ENDBRANCH  15  16
ENDBRANCH  14  15
TORSDOF 4
ENDMDL
MODEL 8
REMARK VINA RESULT:      -7.9      3.042      7.529
REMARK  Name = 
REMARK  4 active torsions:
REMARK  status: ('A' for Active; 'I' for Inactive)
REMARK    1  A    between atoms: C_14  and  S_15
REMARK    2  A    between atoms: S_15  and  C_16
REMARK    3  A    between atoms: C_16  and  C_17
REMARK    4  A    between atoms: C_17  and  N_18
REMARK                            x       y       z     vdW  Elec       q    Type
REMARK                         _______ _______ _______ _____ _____    ______ ____
ROOT
ATOM      1  C   UNL     1       1.381   9.381  19.278  0.00  0.00    +0.000 A 
ATOM      2  C   UNL     1       2.026   9.260  18.049  0.00  0.00    +0.000 A 
ATOM      3  C   UNL     1       2.656   8.063  17.703  0.00  0.00    +0.000 A 
ATOM      4  C   UNL     1       2.686   6.973  18.597  0.00  0.00    +0.000 A 
ATOM      5  C   UNL     1       1.983   7.092  19.815  0.00  0.00    +0.000 A 
ATOM      6  C   UNL     1       1.345   8.295  20.151  0.00  0.00    +0.000 A 
ATOM      7  O   UNL     1       1.906   6.062  20.682  0.00  0.00    +0.000 OA
ATOM      8  C   UNL     1       2.443   4.844  20.451  0.00  0.00    +0.000 A 
ATOM      9  C   UNL     1       2.250   3.836  21.401  0.00  0.00    +0.000 A 
ATOM     10  C   UNL     1       2.809   2.572  21.205  0.00  0.00    +0.000 A 
ATOM     11  C   UNL     1       3.557   2.309  20.059  0.00  0.00    +0.000 A 
ATOM     12  C   UNL     1       3.752   3.310  19.103  0.00  0.00    +0.000 A 
ATOM     13  C   UNL     1       3.200   4.595  19.288  0.00  0.00    +0.000 A 
ATOM     14  C   UNL     1       3.455   5.690  18.260  0.00  0.00    +0.000 C 
ENDROOT
BRANCH  14  15
ATOM     15  S   UNL     1       5.299   5.939  18.289  0.00  0.00    +0.000 S 
BRANCH  15  16
ATOM     16  C   UNL     1       5.688   5.987  16.513  0.00  0.00    +0.000 C 
BRANCH  16  17
ATOM     17  C   UNL     1       5.250   4.706  15.797  0.00  0.00    +0.000 C 
BRANCH  17  18
ATOM     18  N   UNL     1       5.640   4.719  14.365  0.00  0.00    +0.000 NA
ATOM     19  C   UNL     1       7.101   4.933  14.251  0.00  0.00    +0.000 C 
ATOM     20  C   UNL     1       7.528   5.021  12.780  0.00  0.00    +0.000 C 
ATOM     21  C   UNL     1       7.131   3.741  12.046  0.00  0.00    +0.000 C 
ATOM     22  C   UNL     1       5.624   3.538  12.181  0.00  0.00    +0.000 C 
ATOM     23  C   UNL     1       5.238   3.476  13.662  0.00  0.00    +0.000 C 
ENDBRANCH  17  18
ENDBRANCH  16  17
ENDBRANCH  15  16
ENDBRANCH  14  15
TORSDOF 4
ENDMDL
MODEL 9
REMARK VINA RESULT:      -7.8      0.916      1.394
REMARK  Name = 
REMARK  4 active torsions:
REMARK  status: ('A' for Active; 'I' for Inactive)
REMARK    1  A    between atoms: C_14  and  S_15
REMARK    2  A    between atoms: S_15  and  C_16
REMARK    3  A    between atoms: C_16  and  C_17
REMARK    4  A    between atoms: C_17  and  N_18
REMARK                            x       y       z     vdW  Elec       q    Type
REMARK                         _______ _______ _______ _____ _____    ______ ____
ROOT
ATOM      1  C   UNL     1       5.712   5.329  15.450  0.00  0.00    +0.000 A 
ATOM      2  C   UNL     1       5.669   6.578  16.062  0.00  0.00    +0.000 A 
ATOM      3  C   UNL     1       4.919   6.764  17.225  0.00  0.00    +0.000 A 
ATOM      4  C   UNL     1       4.166   5.709  17.779  0.00  0.00    +0.000 A 
ATOM      5  C   UNL     1       4.262   4.436  17.178  0.00  0.00    +0.000 A 
ATOM      6  C   UNL     1       5.025   4.256  16.016  0.00  0.00    +0.000 A 
ATOM      7  O   UNL     1       3.628   3.366  17.702  0.00  0.00    +0.000 OA
ATOM      8  C   UNL     1       2.901   3.406  18.838  0.00  0.00    +0.000 A 
ATOM      9  C   UNL     1       2.336   2.218  19.314  0.00  0.00    +0.000 A 
ATOM     10  C   UNL     1       1.560   2.226  20.474  0.00  0.00    +0.000 A 
ATOM     11  C   UNL     1       1.350   3.418  21.166  0.00  0.00    +0.000 A 
ATOM     12  C   UNL     1       1.914   4.609  20.699  0.00  0.00    +0.000 A 
ATOM     13  C   UNL     1       2.695   4.620  19.525  0.00  0.00    +0.000 A 
ATOM     14  C   UNL     1       3.269   5.931  19.003  0.00  0.00    +0.000 C 
ENDROOT
BRANCH  14  15
ATOM     15  S   UNL     1       1.776   6.971  18.609  0.00  0.00    +0.000 S 
BRANCH  15  16
ATOM     16  C   UNL     1       1.902   8.279  19.867  0.00  0.00    +0.000 C 
BRANCH  16  17
ATOM     17  C   UNL     1       1.039   7.975  21.096  0.00  0.00    +0.000 C 
BRANCH  17  18
ATOM     18  N   UNL     1       0.055   9.056  21.352  0.00  0.00    +0.000 NA
ATOM     19  C   UNL     1       0.112   9.450  22.779  0.00  0.00    +0.000 C 
ATOM     20  C   UNL     1      -0.942  10.519  23.095  0.00  0.00    +0.000 C 
ATOM     21  C   UNL     1      -0.721  11.744  22.208  0.00  0.00    +0.000 C 
ATOM     22  C   UNL     1      -0.778  11.315  20.744  0.00  0.00    +0.000 C 
ATOM     23  C   UNL     1       0.274  10.234  20.477  0.00  0.00    +0.000 C 
ENDBRANCH  17  18
ENDBRANCH  16  17
ENDBRANCH  15  16
ENDBRANCH  14  15
TORSDOF 4
ENDMDL
