MODEL 1
REMARK VINA RESULT:      -6.5      0.000      0.000
REMARK  Name = 
REMARK  6 active torsions:
REMARK  status: ('A' for Active; 'I' for Inactive)
REMARK    1  A    between atoms: C_1  and  C_2
REMARK    2  A    between atoms: C_2  and  O_3
REMARK    3  A    between atoms: C_2  and  C_4
REMARK    4  A    between atoms: C_2  and  C_6
REMARK    5  A    between atoms: N_8  and  C_9
REMARK    6  A    between atoms: C_12  and  N_13
REMARK                            x       y       z     vdW  Elec       q    Type
REMARK                         _______ _______ _______ _____ _____    ______ ____
ROOT
ATOM      1  C   UNL     1       3.670   4.034  19.506  0.00  0.00    +0.000 C 
ATOM      2  O   UNL     1       4.748   3.573  19.889  0.00  0.00    +0.000 OA
ATOM      3  N   UNL     1       3.435   4.620  18.275  0.00  0.00    +0.000 N 
ATOM      4  H   UNL     1       2.573   5.144  18.167  0.00  0.00    +0.000 HD
ENDROOT
BRANCH   3   5
ATOM      5  C   UNL     1       4.364   4.731  17.220  0.00  0.00    +0.000 A 
ATOM      6  C   UNL     1       4.791   5.960  16.709  0.00  0.00    +0.000 A 
ATOM      7  C   UNL     1       5.671   6.019  15.625  0.00  0.00    +0.000 A 
ATOM      8  C   UNL     1       6.137   4.833  15.052  0.00  0.00    +0.000 A 
ATOM      9  C   UNL     1       5.749   3.593  15.574  0.00  0.00    +0.000 A 
ATOM     10  C   UNL     1       4.870   3.548  16.665  0.00  0.00    +0.000 A 
BRANCH   8  11
ATOM     11  N   UNL     1       7.036   4.894  13.893  0.00  0.00    +0.000 N 
ATOM     12  O   UNL     1       8.019   5.645  13.965  0.00  0.00    +0.000 OA
ATOM     13  O   UNL     1       6.759   4.196  12.912  0.00  0.00    +0.000 OA
ENDBRANCH   8  11
ENDBRANCH   3   5
BRANCH   1  15
ATOM     14  C   UNL     1       2.601   2.944  21.564  0.00  0.00    +0.000 C 
ATOM     15  C   UNL     1       2.481   4.028  20.496  0.00  0.00    +0.000 C 
BRANCH  15  16
ATOM     16  O   UNL     1       2.550   5.284  21.215  0.00  0.00    +0.000 OA
ATOM     17  H   UNL     1       3.295   5.785  20.816  0.00  0.00    +0.000 HD
ENDBRANCH  15  16
BRANCH  15  18
ATOM     18  C   UNL     1       1.147   4.035  19.753  0.00  0.00    +0.000 C 
ATOM     19 BR   UNL     1       0.724   2.369  18.842  0.00  0.00    +0.000 Br
ENDBRANCH  15  18
ENDBRANCH   1  15
TORSDOF 5
ENDMDL
MODEL 2
REMARK VINA RESULT:      -6.3      1.559      2.156
REMARK  Name = 
REMARK  6 active torsions:
REMARK  status: ('A' for Active; 'I' for Inactive)
REMARK    1  A    between atoms: C_1  and  C_2
REMARK    2  A    between atoms: C_2  and  O_3
REMARK    3  A    between atoms: C_2  and  C_4
REMARK    4  A    between atoms: C_2  and  C_6
REMARK    5  A    between atoms: N_8  and  C_9
REMARK    6  A    between atoms: C_12  and  N_13
REMARK                            x       y       z     vdW  Elec       q    Type
REMARK                         _______ _______ _______ _____ _____    ______ ____
ROOT
ATOM      1  C   UNL     1       2.303   4.816  18.835  0.00  0.00    +0.000 C 
ATOM      2  O   UNL     1       1.548   4.418  17.945  0.00  0.00    +0.000 OA
ATOM      3  N   UNL     1       3.661   5.043  18.700  0.00  0.00    +0.000 N 
ATOM      4  H   UNL     1       4.199   5.163  19.551  0.00  0.00    +0.000 HD
ENDROOT
BRANCH   3   5
ATOM      5  C   UNL     1       4.404   4.927  17.508  0.00  0.00    +0.000 A 
ATOM      6  C   UNL     1       4.819   3.698  16.986  0.00  0.00    +0.000 A 
ATOM      7  C   UNL     1       5.602   3.636  15.831  0.00  0.00    +0.000 A 
ATOM      8  C   UNL     1       5.967   4.820  15.184  0.00  0.00    +0.000 A 
ATOM      9  C   UNL     1       5.531   6.057  15.670  0.00  0.00    +0.000 A 
ATOM     10  C   UNL     1       4.741   6.105  16.828  0.00  0.00    +0.000 A 
BRANCH   8  11
ATOM     11  N   UNL     1       6.817   4.757  13.988  0.00  0.00    +0.000 N 
ATOM     12  O   UNL     1       7.756   5.562  13.905  0.00  0.00    +0.000 OA
ATOM     13  O   UNL     1       6.544   3.909  13.132  0.00  0.00    +0.000 OA
ENDBRANCH   8  11
ENDBRANCH   3   5
BRANCH   1  15
ATOM     14  C   UNL     1       1.431   6.486  20.573  0.00  0.00    +0.000 C 
ATOM     15  C   UNL     1       1.716   5.020  20.252  0.00  0.00    +0.000 C 
BRANCH  15  16
ATOM     16  O   UNL     1       0.422   4.370  20.250  0.00  0.00    +0.000 OA
ATOM     17  H   UNL     1       0.499   3.614  19.628  0.00  0.00    +0.000 HD
ENDBRANCH  15  16
BRANCH  15  18
ATOM     18  C   UNL     1       2.555   4.297  21.304  0.00  0.00    +0.000 C 
ATOM     19 BR   UNL     1       1.997   2.467  21.659  0.00  0.00    +0.000 Br
ENDBRANCH  15  18
ENDBRANCH   1  15
TORSDOF 5
ENDMDL
MODEL 3
REMARK VINA RESULT:      -6.2      2.041      2.570
REMARK  Name = 
REMARK  6 active torsions:
REMARK  status: ('A' for Active; 'I' for Inactive)
REMARK    1  A    between atoms: C_1  and  C_2
REMARK    2  A    between atoms: C_2  and  O_3
REMARK    3  A    between atoms: C_2  and  C_4
REMARK    4  A    between atoms: C_2  and  C_6
REMARK    5  A    between atoms: N_8  and  C_9
REMARK    6  A    between atoms: C_12  and  N_13
REMARK                            x       y       z     vdW  Elec       q    Type
REMARK                         _______ _______ _______ _____ _____    ______ ____
ROOT
ATOM      1  C   UNL     1       3.672   3.466  17.631  0.00  0.00    +0.000 C 
ATOM      2  O   UNL     1       2.941   4.313  17.111  0.00  0.00    +0.000 OA
ATOM      3  N   UNL     1       4.935   3.112  17.192  0.00  0.00    +0.000 N 
ATOM      4  H   UNL     1       5.338   2.263  17.574  0.00  0.00    +0.000 HD
ENDROOT
BRANCH   3   5
ATOM      5  C   UNL     1       5.635   3.703  16.121  0.00  0.00    +0.000 A 
ATOM      6  C   UNL     1       5.291   3.497  14.781  0.00  0.00    +0.000 A 
ATOM      7  C   UNL     1       6.050   4.059  13.752  0.00  0.00    +0.000 A 
ATOM      8  C   UNL     1       7.161   4.847  14.067  0.00  0.00    +0.000 A 
ATOM      9  C   UNL     1       7.498   5.094  15.402  0.00  0.00    +0.000 A 
ATOM     10  C   UNL     1       6.726   4.527  16.427  0.00  0.00    +0.000 A 
BRANCH   8  11
ATOM     11  N   UNL     1       7.976   5.412  12.985  0.00  0.00    +0.000 N 
ATOM     12  O   UNL     1       8.984   6.060  13.301  0.00  0.00    +0.000 OA
ATOM     13  O   UNL     1       7.609   5.211  11.822  0.00  0.00    +0.000 OA
ENDBRANCH   8  11
ENDBRANCH   3   5
BRANCH   1  15
ATOM     14  C   UNL     1       1.688   2.186  18.628  0.00  0.00    +0.000 C 
ATOM     15  C   UNL     1       3.121   2.670  18.837  0.00  0.00    +0.000 C 
BRANCH  15  16
ATOM     16  O   UNL     1       3.922   1.467  18.927  0.00  0.00    +0.000 OA
ATOM     17  H   UNL     1       3.879   1.181  19.865  0.00  0.00    +0.000 HD
ENDBRANCH  15  16
BRANCH  15  18
ATOM     18  C   UNL     1       3.344   3.429  20.144  0.00  0.00    +0.000 C 
ATOM     19 BR   UNL     1       2.043   3.035  21.536  0.00  0.00    +0.000 Br
ENDBRANCH  15  18
ENDBRANCH   1  15
TORSDOF 5
ENDMDL
MODEL 4
REMARK VINA RESULT:      -6.1      1.767      2.159
REMARK  Name = 
REMARK  6 active torsions:
REMARK  status: ('A' for Active; 'I' for Inactive)
REMARK    1  A    between atoms: C_1  and  C_2
REMARK    2  A    between atoms: C_2  and  O_3
REMARK    3  A    between atoms: C_2  and  C_4
REMARK    4  A    between atoms: C_2  and  C_6
REMARK    5  A    between atoms: N_8  and  C_9
REMARK    6  A    between atoms: C_12  and  N_13
REMARK                            x       y       z     vdW  Elec       q    Type
REMARK                         _______ _______ _______ _____ _____    ______ ____
ROOT
ATOM      1  C   UNL     1       3.393   5.071  18.184  0.00  0.00    +0.000 C 
ATOM      2  O   UNL     1       3.190   6.196  17.720  0.00  0.00    +0.000 OA
ATOM      3  N   UNL     1       4.306   4.152  17.700  0.00  0.00    +0.000 N 
ATOM      4  H   UNL     1       4.227   3.198  18.034  0.00  0.00    +0.000 HD
ENDROOT
BRANCH   3   5
ATOM      5  C   UNL     1       5.210   4.363  16.639  0.00  0.00    +0.000 A 
ATOM      6  C   UNL     1       6.513   4.834  16.832  0.00  0.00    +0.000 A 
ATOM      7  C   UNL     1       7.355   5.081  15.745  0.00  0.00    +0.000 A 
ATOM      8  C   UNL     1       6.891   4.844  14.448  0.00  0.00    +0.000 A 
ATOM      9  C   UNL     1       5.603   4.338  14.237  0.00  0.00    +0.000 A 
ATOM     10  C   UNL     1       4.770   4.089  15.338  0.00  0.00    +0.000 A 
BRANCH   8  11
ATOM     11  N   UNL     1       7.764   5.133  13.304  0.00  0.00    +0.000 N 
ATOM     12  O   UNL     1       7.481   4.610  12.216  0.00  0.00    +0.000 OA
ATOM     13  O   UNL     1       8.731   5.879  13.492  0.00  0.00    +0.000 OA
ENDBRANCH   8  11
ENDBRANCH   3   5
BRANCH   1  15
ATOM     14  C   UNL     1       2.069   5.749  20.271  0.00  0.00    +0.000 C 
ATOM     15  C   UNL     1       2.515   4.601  19.368  0.00  0.00    +0.000 C 
BRANCH  15  16
ATOM     16  O   UNL     1       1.297   4.079  18.783  0.00  0.00    +0.000 OA
ATOM     17  H   UNL     1       0.886   3.513  19.473  0.00  0.00    +0.000 HD
ENDBRANCH  15  16
BRANCH  15  18
ATOM     18  C   UNL     1       3.168   3.435  20.107  0.00  0.00    +0.000 C 
ATOM     19 BR   UNL     1       2.078   2.672  21.527  0.00  0.00    +0.000 Br
ENDBRANCH  15  18
ENDBRANCH   1  15
TORSDOF 5
ENDMDL
MODEL 5
REMARK VINA RESULT:      -6.1      1.358      1.504
REMARK  Name = 
REMARK  6 active torsions:
REMARK  status: ('A' for Active; 'I' for Inactive)
REMARK    1  A    between atoms: C_1  and  C_2
REMARK    2  A    between atoms: C_2  and  O_3
REMARK    3  A    between atoms: C_2  and  C_4
REMARK    4  A    between atoms: C_2  and  C_6
REMARK    5  A    between atoms: N_8  and  C_9
REMARK    6  A    between atoms: C_12  and  N_13
REMARK                            x       y       z     vdW  Elec       q    Type
REMARK                         _______ _______ _______ _____ _____    ______ ____
ROOT
ATOM      1  C   UNL     1       3.580   4.625  18.347  0.00  0.00    +0.000 C 
ATOM      2  O   UNL     1       2.976   5.439  17.644  0.00  0.00    +0.000 OA
ATOM      3  N   UNL     1       4.769   4.000  18.017  0.00  0.00    +0.000 N 
ATOM      4  H   UNL     1       5.047   3.204  18.580  0.00  0.00    +0.000 HD
ENDROOT
BRANCH   3   5
ATOM      5  C   UNL     1       5.533   4.234  16.856  0.00  0.00    +0.000 A 
ATOM      6  C   UNL     1       6.839   4.733  16.891  0.00  0.00    +0.000 A 
ATOM      7  C   UNL     1       7.536   5.002  15.711  0.00  0.00    +0.000 A 
ATOM      8  C   UNL     1       6.923   4.759  14.479  0.00  0.00    +0.000 A 
ATOM      9  C   UNL     1       5.631   4.226  14.423  0.00  0.00    +0.000 A 
ATOM     10  C   UNL     1       4.943   3.956  15.615  0.00  0.00    +0.000 A 
BRANCH   8  11
ATOM     11  N   UNL     1       7.644   5.072  13.239  0.00  0.00    +0.000 N 
ATOM     12  O   UNL     1       8.586   5.875  13.306  0.00  0.00    +0.000 OA
ATOM     13  O   UNL     1       7.267   4.519  12.200  0.00  0.00    +0.000 OA
ENDBRANCH   8  11
ENDBRANCH   3   5
BRANCH   1  15
ATOM     14  C   UNL     1       3.636   3.007  20.333  0.00  0.00    +0.000 C 
ATOM     15  C   UNL     1       2.936   4.200  19.688  0.00  0.00    +0.000 C 
BRANCH  15  16
ATOM     16  O   UNL     1       3.141   5.305  20.602  0.00  0.00    +0.000 OA
ATOM     17  H   UNL     1       2.379   5.289  21.222  0.00  0.00    +0.000 HD
ENDBRANCH  15  16
BRANCH  15  18
ATOM     18  C   UNL     1       1.423   4.040  19.544  0.00  0.00    +0.000 C 
ATOM     19 BR   UNL     1       0.866   2.382  18.695  0.00  0.00    +0.000 Br
ENDBRANCH  15  18
ENDBRANCH   1  15
TORSDOF 5
ENDMDL
MODEL 6
REMARK VINA RESULT:      -6.1      1.113      1.381
REMARK  Name = 
REMARK  6 active torsions:
REMARK  status: ('A' for Active; 'I' for Inactive)
REMARK    1  A    between atoms: C_1  and  C_2
REMARK    2  A    between atoms: C_2  and  O_3
REMARK    3  A    between atoms: C_2  and  C_4
REMARK    4  A    between atoms: C_2  and  C_6
REMARK    5  A    between atoms: N_8  and  C_9
REMARK    6  A    between atoms: C_12  and  N_13
REMARK                            x       y       z     vdW  Elec       q    Type
REMARK                         _______ _______ _______ _____ _____    ______ ____
ROOT
ATOM      1  C   UNL     1       3.292   4.665  19.314  0.00  0.00    +0.000 C 
ATOM      2  O   UNL     1       3.178   5.855  19.010  0.00  0.00    +0.000 OA
ATOM      3  N   UNL     1       4.062   3.732  18.644  0.00  0.00    +0.000 N 
ATOM      4  H   UNL     1       3.905   2.755  18.865  0.00  0.00    +0.000 HD
ENDROOT
BRANCH   3   5
ATOM      5  C   UNL     1       4.902   3.990  17.542  0.00  0.00    +0.000 A 
ATOM      6  C   UNL     1       6.206   4.479  17.676  0.00  0.00    +0.000 A 
ATOM      7  C   UNL     1       6.982   4.772  16.552  0.00  0.00    +0.000 A 
ATOM      8  C   UNL     1       6.450   4.564  15.277  0.00  0.00    +0.000 A 
ATOM      9  C   UNL     1       5.162   4.041  15.122  0.00  0.00    +0.000 A 
ATOM     10  C   UNL     1       4.395   3.746  16.259  0.00  0.00    +0.000 A 
BRANCH   8  11
ATOM     11  N   UNL     1       7.253   4.902  14.095  0.00  0.00    +0.000 N 
ATOM     12  O   UNL     1       6.947   4.371  13.018  0.00  0.00    +0.000 OA
ATOM     13  O   UNL     1       8.191   5.694  14.244  0.00  0.00    +0.000 OA
ENDBRANCH   8  11
ENDBRANCH   3   5
BRANCH   1  15
ATOM     14  C   UNL     1       3.100   2.930  21.190  0.00  0.00    +0.000 C 
ATOM     15  C   UNL     1       2.459   4.133  20.504  0.00  0.00    +0.000 C 
BRANCH  15  16
ATOM     16  O   UNL     1       2.459   5.186  21.499  0.00  0.00    +0.000 OA
ATOM     17  H   UNL     1       1.522   5.459  21.605  0.00  0.00    +0.000 HD
ENDBRANCH  15  16
BRANCH  15  18
ATOM     18  C   UNL     1       0.999   3.926  20.103  0.00  0.00    +0.000 C 
ATOM     19 BR   UNL     1       0.706   2.453  18.867  0.00  0.00    +0.000 Br
ENDBRANCH  15  18
ENDBRANCH   1  15
TORSDOF 5
ENDMDL
MODEL 7
REMARK VINA RESULT:      -6.1      1.516      1.719
REMARK  Name = 
REMARK  6 active torsions:
REMARK  status: ('A' for Active; 'I' for Inactive)
REMARK    1  A    between atoms: C_1  and  C_2
REMARK    2  A    between atoms: C_2  and  O_3
REMARK    3  A    between atoms: C_2  and  C_4
REMARK    4  A    between atoms: C_2  and  C_6
REMARK    5  A    between atoms: N_8  and  C_9
REMARK    6  A    between atoms: C_12  and  N_13
REMARK                            x       y       z     vdW  Elec       q    Type
REMARK                         _______ _______ _______ _____ _____    ______ ____
ROOT
ATOM      1  C   UNL     1       2.564   4.624  18.976  0.00  0.00    +0.000 C 
ATOM      2  O   UNL     1       2.143   3.707  18.267  0.00  0.00    +0.000 OA
ATOM      3  N   UNL     1       3.685   5.392  18.721  0.00  0.00    +0.000 N 
ATOM      4  H   UNL     1       4.039   5.964  19.480  0.00  0.00    +0.000 HD
ENDROOT
BRANCH   3   5
ATOM      5  C   UNL     1       4.502   5.309  17.575  0.00  0.00    +0.000 A 
ATOM      6  C   UNL     1       4.631   6.354  16.655  0.00  0.00    +0.000 A 
ATOM      7  C   UNL     1       5.409   6.205  15.504  0.00  0.00    +0.000 A 
ATOM      8  C   UNL     1       6.075   4.998  15.276  0.00  0.00    +0.000 A 
ATOM      9  C   UNL     1       5.988   3.954  16.204  0.00  0.00    +0.000 A 
ATOM     10  C   UNL     1       5.208   4.118  17.358  0.00  0.00    +0.000 A 
BRANCH   8  11
ATOM     11  N   UNL     1       6.867   4.829  14.052  0.00  0.00    +0.000 N 
ATOM     12  O   UNL     1       7.870   5.543  13.911  0.00  0.00    +0.000 OA
ATOM     13  O   UNL     1       6.485   3.987  13.231  0.00  0.00    +0.000 OA
ENDBRANCH   8  11
ENDBRANCH   3   5
BRANCH   1  15
ATOM     14  C   UNL     1       1.653   6.406  20.578  0.00  0.00    +0.000 C 
ATOM     15  C   UNL     1       1.828   4.913  20.306  0.00  0.00    +0.000 C 
BRANCH  15  16
ATOM     16  O   UNL     1       0.485   4.394  20.145  0.00  0.00    +0.000 OA
ATOM     17  H   UNL     1       0.010   5.041  19.580  0.00  0.00    +0.000 HD
ENDBRANCH  15  16
BRANCH  15  18
ATOM     18  C   UNL     1       2.452   4.132  21.461  0.00  0.00    +0.000 C 
ATOM     19 BR   UNL     1       1.641   2.394  21.787  0.00  0.00    +0.000 Br
ENDBRANCH  15  18
ENDBRANCH   1  15
TORSDOF 5
ENDMDL
MODEL 8
REMARK VINA RESULT:      -6.0      1.311      1.770
REMARK  Name = 
REMARK  6 active torsions:
REMARK  status: ('A' for Active; 'I' for Inactive)
REMARK    1  A    between atoms: C_1  and  C_2
REMARK    2  A    between atoms: C_2  and  O_3
REMARK    3  A    between atoms: C_2  and  C_4
REMARK    4  A    between atoms: C_2  and  C_6
REMARK    5  A    between atoms: N_8  and  C_9
REMARK    6  A    between atoms: C_12  and  N_13
REMARK                            x       y       z     vdW  Elec       q    Type
REMARK                         _______ _______ _______ _____ _____    ______ ____
ROOT
ATOM      1  C   UNL     1       3.674   4.835  18.453  0.00  0.00    +0.000 C 
ATOM      2  O   UNL     1       3.473   6.019  18.170  0.00  0.00    +0.000 OA
ATOM      3  N   UNL     1       4.460   3.956  17.730  0.00  0.00    +0.000 N 
ATOM      4  H   UNL     1       4.373   2.969  17.947  0.00  0.00    +0.000 HD
ENDROOT
BRANCH   3   5
ATOM      5  C   UNL     1       5.222   4.275  16.588  0.00  0.00    +0.000 A 
ATOM      6  C   UNL     1       4.774   4.041  15.284  0.00  0.00    +0.000 A 
ATOM      7  C   UNL     1       5.588   4.321  14.184  0.00  0.00    +0.000 A 
ATOM      8  C   UNL     1       6.864   4.852  14.391  0.00  0.00    +0.000 A 
ATOM      9  C   UNL     1       7.317   5.127  15.686  0.00  0.00    +0.000 A 
ATOM     10  C   UNL     1       6.487   4.846  16.782  0.00  0.00    +0.000 A 
BRANCH   8  11
ATOM     11  N   UNL     1       7.732   5.117  13.237  0.00  0.00    +0.000 N 
ATOM     12  O   UNL     1       7.466   4.544  12.171  0.00  0.00    +0.000 OA
ATOM     13  O   UNL     1       8.680   5.894  13.397  0.00  0.00    +0.000 OA
ENDBRANCH   8  11
ENDBRANCH   3   5
BRANCH   1  15
ATOM     14  C   UNL     1       3.606   2.981  20.220  0.00  0.00    +0.000 C 
ATOM     15  C   UNL     1       2.939   4.244  19.679  0.00  0.00    +0.000 C 
BRANCH  15  16
ATOM     16  O   UNL     1       3.064   5.226  20.736  0.00  0.00    +0.000 OA
ATOM     17  H   UNL     1       2.346   5.879  20.585  0.00  0.00    +0.000 HD
ENDBRANCH  15  16
BRANCH  15  18
ATOM     18  C   UNL     1       1.443   4.099  19.406  0.00  0.00    +0.000 C 
ATOM     19 BR   UNL     1       0.903   2.329  18.805  0.00  0.00    +0.000 Br
ENDBRANCH  15  18
ENDBRANCH   1  15
TORSDOF 5
ENDMDL
MODEL 9
REMARK VINA RESULT:      -6.0      4.015      6.024
REMARK  Name = 
REMARK  6 active torsions:
REMARK  status: ('A' for Active; 'I' for Inactive)
REMARK    1  A    between atoms: C_1  and  C_2
REMARK    2  A    between atoms: C_2  and  O_3
REMARK    3  A    between atoms: C_2  and  C_4
REMARK    4  A    between atoms: C_2  and  C_6
REMARK    5  A    between atoms: N_8  and  C_9
REMARK    6  A    between atoms: C_12  and  N_13
REMARK                            x       y       z     vdW  Elec       q    Type
REMARK                         _______ _______ _______ _____ _____    ______ ____
ROOT
ATOM      1  C   UNL     1       2.508   4.437  18.657  0.00  0.00    +0.000 C 
ATOM      2  O   UNL     1       1.521   4.421  17.916  0.00  0.00    +0.000 OA
ATOM      3  N   UNL     1       3.034   5.556  19.275  0.00  0.00    +0.000 N 
ATOM      4  H   UNL     1       3.960   5.470  19.680  0.00  0.00    +0.000 HD
ENDROOT
BRANCH   3   5
ATOM      5  C   UNL     1       2.499   6.859  19.224  0.00  0.00    +0.000 A 
ATOM      6  C   UNL     1       1.838   7.452  20.304  0.00  0.00    +0.000 A 
ATOM      7  C   UNL     1       1.274   8.725  20.188  0.00  0.00    +0.000 A 
ATOM      8  C   UNL     1       1.382   9.418  18.979  0.00  0.00    +0.000 A 
ATOM      9  C   UNL     1       2.072   8.856  17.899  0.00  0.00    +0.000 A 
ATOM     10  C   UNL     1       2.637   7.579  18.030  0.00  0.00    +0.000 A 
BRANCH   8  11
ATOM     11  N   UNL     1       0.762  10.742  18.847  0.00  0.00    +0.000 N 
ATOM     12  O   UNL     1      -0.465  10.823  19.002  0.00  0.00    +0.000 OA
ATOM     13  O   UNL     1       1.500  11.699  18.584  0.00  0.00    +0.000 OA
ENDBRANCH   8  11
ENDBRANCH   3   5
BRANCH   1  15
ATOM     14  C   UNL     1       2.788   1.984  17.968  0.00  0.00    +0.000 C 
ATOM     15  C   UNL     1       3.278   3.113  18.872  0.00  0.00    +0.000 C 
BRANCH  15  16
ATOM     16  O   UNL     1       4.643   3.369  18.460  0.00  0.00    +0.000 OA
ATOM     17  H   UNL     1       5.007   4.008  19.111  0.00  0.00    +0.000 HD
ENDBRANCH  15  16
BRANCH  15  18
ATOM     18  C   UNL     1       3.341   2.749  20.355  0.00  0.00    +0.000 C 
ATOM     19 BR   UNL     1       1.614   2.714  21.249  0.00  0.00    +0.000 Br
ENDBRANCH  15  18
ENDBRANCH   1  15
TORSDOF 5
ENDMDL
