MODEL 1
REMARK VINA RESULT:      -7.5      0.000      0.000
REMARK  Name = 
REMARK  5 active torsions:
REMARK  status: ('A' for Active; 'I' for Inactive)
REMARK    1  A    between atoms: C_1  and  O_2
REMARK    2  A    between atoms: O_2  and  C_3
REMARK    3  A    between atoms: C_6  and  N_7
REMARK    4  A    between atoms: N_8  and  C_9
REMARK    5  A    between atoms: C_12  and  O_13
REMARK                            x       y       z     vdW  Elec       q    Type
REMARK                         _______ _______ _______ _____ _____    ______ ____
ROOT
ATOM      1  C   UNL     1       2.535   6.470  19.359  0.00  0.00    +0.000 A 
ATOM      2  C   UNL     1       3.431   6.904  18.367  0.00  0.00    +0.000 A 
ATOM      3  C   UNL     1       3.992   6.010  17.464  0.00  0.00    +0.000 A 
ATOM      4  C   UNL     1       3.582   4.681  17.495  0.00  0.00    +0.000 A 
ATOM      5  C   UNL     1       2.657   4.197  18.416  0.00  0.00    +0.000 A 
ATOM      6  N   UNL     1       2.225   2.913  18.350  0.00  0.00    +0.000 NA
ATOM      7  C   UNL     1       1.383   2.458  19.297  0.00  0.00    +0.000 A 
ATOM      8  C   UNL     1       0.997   3.201  20.393  0.00  0.00    +0.000 A 
ATOM      9  C   UNL     1       1.408   4.528  20.446  0.00  0.00    +0.000 A 
ATOM     10  C   UNL     1       2.199   5.086  19.416  0.00  0.00    +0.000 A 
ENDROOT
BRANCH   1  12
ATOM     11  N   UNL     1       1.534   8.436  19.718  0.00  0.00    +0.000 NA
ATOM     12  N   UNL     1       1.900   7.373  20.261  0.00  0.00    +0.000 NA
BRANCH  11  16
ATOM     13  C   UNL     1      -0.529  10.926  22.441  0.00  0.00    +0.000 A 
ATOM     14  C   UNL     1      -0.099   9.652  22.812  0.00  0.00    +0.000 A 
ATOM     15  C   UNL     1       0.572   8.836  21.894  0.00  0.00    +0.000 A 
ATOM     16  C   UNL     1       0.797   9.267  20.583  0.00  0.00    +0.000 A 
ATOM     17  C   UNL     1       0.354  10.546  20.218  0.00  0.00    +0.000 A 
ATOM     18  C   UNL     1      -0.313  11.369  21.136  0.00  0.00    +0.000 A 
BRANCH  13  20
ATOM     19  C   UNL     1      -2.501  12.041  23.109  0.00  0.00    +0.000 C 
ATOM     20  O   UNL     1      -1.173  11.632  23.418  0.00  0.00    +0.000 OA
ENDBRANCH  13  20
ENDBRANCH  11  16
ENDBRANCH   1  12
BRANCH   4  21
ATOM     21  O   UNL     1       4.137   3.809  16.578  0.00  0.00    +0.000 OA
ATOM     22  H   UNL     1       4.882   3.343  16.986  0.00  0.00    +0.000 HD
ENDBRANCH   4  21
TORSDOF 4
ENDMDL
MODEL 2
REMARK VINA RESULT:      -7.4      0.307      1.080
REMARK  Name = 
REMARK  5 active torsions:
REMARK  status: ('A' for Active; 'I' for Inactive)
REMARK    1  A    between atoms: C_1  and  O_2
REMARK    2  A    between atoms: O_2  and  C_3
REMARK    3  A    between atoms: C_6  and  N_7
REMARK    4  A    between atoms: N_8  and  C_9
REMARK    5  A    between atoms: C_12  and  O_13
REMARK                            x       y       z     vdW  Elec       q    Type
REMARK                         _______ _______ _______ _____ _____    ______ ____
ROOT
ATOM      1  C   UNL     1       2.450   6.408  19.523  0.00  0.00    +0.000 A 
ATOM      2  C   UNL     1       3.326   6.887  18.532  0.00  0.00    +0.000 A 
ATOM      3  C   UNL     1       3.880   6.031  17.589  0.00  0.00    +0.000 A 
ATOM      4  C   UNL     1       3.484   4.697  17.580  0.00  0.00    +0.000 A 
ATOM      5  C   UNL     1       2.578   4.171  18.497  0.00  0.00    +0.000 A 
ATOM      6  N   UNL     1       2.157   2.887  18.391  0.00  0.00    +0.000 NA
ATOM      7  C   UNL     1       1.334   2.390  19.335  0.00  0.00    +0.000 A 
ATOM      8  C   UNL     1       0.959   3.089  20.462  0.00  0.00    +0.000 A 
ATOM      9  C   UNL     1       1.359   4.418  20.557  0.00  0.00    +0.000 A 
ATOM     10  C   UNL     1       2.128   5.020  19.535  0.00  0.00    +0.000 A 
ENDROOT
BRANCH   1  12
ATOM     11  N   UNL     1       1.523   8.389  19.990  0.00  0.00    +0.000 NA
ATOM     12  N   UNL     1       1.821   7.272  20.466  0.00  0.00    +0.000 NA
BRANCH  11  16
ATOM     13  C   UNL     1      -0.837  10.753  22.579  0.00  0.00    +0.000 A 
ATOM     14  C   UNL     1      -0.736  11.052  21.220  0.00  0.00    +0.000 A 
ATOM     15  C   UNL     1       0.060  10.266  20.380  0.00  0.00    +0.000 A 
ATOM     16  C   UNL     1       0.791   9.188  20.888  0.00  0.00    +0.000 A 
ATOM     17  C   UNL     1       0.689   8.901  22.256  0.00  0.00    +0.000 A 
ATOM     18  C   UNL     1      -0.112   9.682  23.100  0.00  0.00    +0.000 A 
BRANCH  13  20
ATOM     19  C   UNL     1      -2.583  12.345  22.546  0.00  0.00    +0.000 C 
ATOM     20  O   UNL     1      -1.642  11.590  23.302  0.00  0.00    +0.000 OA
ENDBRANCH  13  20
ENDBRANCH  11  16
ENDBRANCH   1  12
BRANCH   4  21
ATOM     21  O   UNL     1       4.032   3.864  16.623  0.00  0.00    +0.000 OA
ATOM     22  H   UNL     1       4.303   4.390  15.856  0.00  0.00    +0.000 HD
ENDBRANCH   4  21
TORSDOF 4
ENDMDL
MODEL 3
REMARK VINA RESULT:      -7.1      1.223      1.521
REMARK  Name = 
REMARK  5 active torsions:
REMARK  status: ('A' for Active; 'I' for Inactive)
REMARK    1  A    between atoms: C_1  and  O_2
REMARK    2  A    between atoms: O_2  and  C_3
REMARK    3  A    between atoms: C_6  and  N_7
REMARK    4  A    between atoms: N_8  and  C_9
REMARK    5  A    between atoms: C_12  and  O_13
REMARK                            x       y       z     vdW  Elec       q    Type
REMARK                         _______ _______ _______ _____ _____    ______ ____
ROOT
ATOM      1  C   UNL     1       3.132   6.223  18.018  0.00  0.00    +0.000 A 
ATOM      2  C   UNL     1       4.331   6.677  17.438  0.00  0.00    +0.000 A 
ATOM      3  C   UNL     1       5.272   5.783  16.942  0.00  0.00    +0.000 A 
ATOM      4  C   UNL     1       4.972   4.425  16.945  0.00  0.00    +0.000 A 
ATOM      5  C   UNL     1       3.781   3.914  17.453  0.00  0.00    +0.000 A 
ATOM      6  N   UNL     1       3.499   2.592  17.352  0.00  0.00    +0.000 NA
ATOM      7  C   UNL     1       2.370   2.120  17.916  0.00  0.00    +0.000 A 
ATOM      8  C   UNL     1       1.517   2.894  18.673  0.00  0.00    +0.000 A 
ATOM      9  C   UNL     1       1.783   4.258  18.748  0.00  0.00    +0.000 A 
ATOM     10  C   UNL     1       2.893   4.819  18.078  0.00  0.00    +0.000 A 
ENDROOT
BRANCH   1  12
ATOM     11  N   UNL     1       2.325   7.531  19.642  0.00  0.00    +0.000 NA
ATOM     12  N   UNL     1       2.123   7.117  18.480  0.00  0.00    +0.000 NA
BRANCH  11  16
ATOM     13  C   UNL     1      -0.356  10.499  21.008  0.00  0.00    +0.000 A 
ATOM     14  C   UNL     1      -0.061   9.379  21.786  0.00  0.00    +0.000 A 
ATOM     15  C   UNL     1       0.819   8.400  21.313  0.00  0.00    +0.000 A 
ATOM     16  C   UNL     1       1.395   8.508  20.044  0.00  0.00    +0.000 A 
ATOM     17  C   UNL     1       1.087   9.633  19.267  0.00  0.00    +0.000 A 
ATOM     18  C   UNL     1       0.211  10.619  19.739  0.00  0.00    +0.000 A 
BRANCH  13  20
ATOM     19  C   UNL     1      -1.284  11.379  22.994  0.00  0.00    +0.000 C 
ATOM     20  O   UNL     1      -1.229  11.388  21.571  0.00  0.00    +0.000 OA
ENDBRANCH  13  20
ENDBRANCH  11  16
ENDBRANCH   1  12
BRANCH   4  21
ATOM     21  O   UNL     1       5.913   3.552  16.432  0.00  0.00    +0.000 OA
ATOM     22  H   UNL     1       5.472   2.896  15.872  0.00  0.00    +0.000 HD
ENDBRANCH   4  21
TORSDOF 4
ENDMDL
MODEL 4
REMARK VINA RESULT:      -7.1      0.960      1.080
REMARK  Name = 
REMARK  5 active torsions:
REMARK  status: ('A' for Active; 'I' for Inactive)
REMARK    1  A    between atoms: C_1  and  O_2
REMARK    2  A    between atoms: O_2  and  C_3
REMARK    3  A    between atoms: C_6  and  N_7
REMARK    4  A    between atoms: N_8  and  C_9
REMARK    5  A    between atoms: C_12  and  O_13
REMARK                            x       y       z     vdW  Elec       q    Type
REMARK                         _______ _______ _______ _____ _____    ______ ____
ROOT
ATOM      1  C   UNL     1       2.913   6.219  19.135  0.00  0.00    +0.000 A 
ATOM      2  C   UNL     1       3.843   6.384  18.093  0.00  0.00    +0.000 A 
ATOM      3  C   UNL     1       4.422   5.287  17.467  0.00  0.00    +0.000 A 
ATOM      4  C   UNL     1       4.000   4.011  17.825  0.00  0.00    +0.000 A 
ATOM      5  C   UNL     1       3.042   3.780  18.809  0.00  0.00    +0.000 A 
ATOM      6  N   UNL     1       2.601   2.523  19.060  0.00  0.00    +0.000 NA
ATOM      7  C   UNL     1       1.726   2.327  20.066  0.00  0.00    +0.000 A 
ATOM      8  C   UNL     1       1.315   3.326  20.922  0.00  0.00    +0.000 A 
ATOM      9  C   UNL     1       1.737   4.623  20.646  0.00  0.00    +0.000 A 
ATOM     10  C   UNL     1       2.563   4.896  19.533  0.00  0.00    +0.000 A 
ENDROOT
BRANCH   1  12
ATOM     11  N   UNL     1       1.940   8.223  18.948  0.00  0.00    +0.000 NA
ATOM     12  N   UNL     1       2.260   7.324  19.754  0.00  0.00    +0.000 NA
BRANCH  11  16
ATOM     13  C   UNL     1      -0.191  11.319  20.882  0.00  0.00    +0.000 A 
ATOM     14  C   UNL     1       0.111  10.129  21.544  0.00  0.00    +0.000 A 
ATOM     15  C   UNL     1       0.806   9.110  20.885  0.00  0.00    +0.000 A 
ATOM     16  C   UNL     1       1.184   9.250  19.546  0.00  0.00    +0.000 A 
ATOM     17  C   UNL     1       0.868  10.446  18.887  0.00  0.00    +0.000 A 
ATOM     18  C   UNL     1       0.177  11.472  19.546  0.00  0.00    +0.000 A 
BRANCH  13  20
ATOM     19  C   UNL     1      -1.288  11.810  22.915  0.00  0.00    +0.000 C 
ATOM     20  O   UNL     1      -0.874  12.243  21.624  0.00  0.00    +0.000 OA
ENDBRANCH  13  20
ENDBRANCH  11  16
ENDBRANCH   1  12
BRANCH   4  21
ATOM     21  O   UNL     1       4.574   2.932  17.179  0.00  0.00    +0.000 OA
ATOM     22  H   UNL     1       3.914   2.230  17.077  0.00  0.00    +0.000 HD
ENDBRANCH   4  21
TORSDOF 4
ENDMDL
MODEL 5
REMARK VINA RESULT:      -7.1      2.338      3.715
REMARK  Name = 
REMARK  5 active torsions:
REMARK  status: ('A' for Active; 'I' for Inactive)
REMARK    1  A    between atoms: C_1  and  O_2
REMARK    2  A    between atoms: O_2  and  C_3
REMARK    3  A    between atoms: C_6  and  N_7
REMARK    4  A    between atoms: N_8  and  C_9
REMARK    5  A    between atoms: C_12  and  O_13
REMARK                            x       y       z     vdW  Elec       q    Type
REMARK                         _______ _______ _______ _____ _____    ______ ____
ROOT
ATOM      1  C   UNL     1       2.968   5.416  19.162  0.00  0.00    +0.000 A 
ATOM      2  C   UNL     1       2.452   4.330  19.892  0.00  0.00    +0.000 A 
ATOM      3  C   UNL     1       3.204   3.181  20.100  0.00  0.00    +0.000 A 
ATOM      4  C   UNL     1       4.520   3.152  19.651  0.00  0.00    +0.000 A 
ATOM      5  C   UNL     1       5.111   4.214  18.970  0.00  0.00    +0.000 A 
ATOM      6  N   UNL     1       6.422   4.170  18.630  0.00  0.00    +0.000 NA
ATOM      7  C   UNL     1       6.945   5.183  17.912  0.00  0.00    +0.000 A 
ATOM      8  C   UNL     1       6.197   6.232  17.420  0.00  0.00    +0.000 A 
ATOM      9  C   UNL     1       4.859   6.299  17.796  0.00  0.00    +0.000 A 
ATOM     10  C   UNL     1       4.293   5.321  18.644  0.00  0.00    +0.000 A 
ENDROOT
BRANCH   1  12
ATOM     11  N   UNL     1       2.107   7.283  20.039  0.00  0.00    +0.000 NA
ATOM     12  N   UNL     1       2.242   6.629  18.983  0.00  0.00    +0.000 NA
BRANCH  11  16
ATOM     13  C   UNL     1       0.190  10.970  19.268  0.00  0.00    +0.000 A 
ATOM     14  C   UNL     1       0.980  10.351  18.299  0.00  0.00    +0.000 A 
ATOM     15  C   UNL     1       1.617   9.137  18.576  0.00  0.00    +0.000 A 
ATOM     16  C   UNL     1       1.501   8.536  19.833  0.00  0.00    +0.000 A 
ATOM     17  C   UNL     1       0.712   9.171  20.802  0.00  0.00    +0.000 A 
ATOM     18  C   UNL     1       0.067  10.384  20.527  0.00  0.00    +0.000 A 
BRANCH  13  20
ATOM     19  C   UNL     1      -1.560  12.039  18.096  0.00  0.00    +0.000 C 
ATOM     20  O   UNL     1      -0.381  12.152  18.887  0.00  0.00    +0.000 OA
ENDBRANCH  13  20
ENDBRANCH  11  16
ENDBRANCH   1  12
BRANCH   4  21
ATOM     21  O   UNL     1       5.259   2.007  19.882  0.00  0.00    +0.000 OA
ATOM     22  H   UNL     1       5.778   1.794  19.091  0.00  0.00    +0.000 HD
ENDBRANCH   4  21
TORSDOF 4
ENDMDL
MODEL 6
REMARK VINA RESULT:      -7.1      1.668      2.205
REMARK  Name = 
REMARK  5 active torsions:
REMARK  status: ('A' for Active; 'I' for Inactive)
REMARK    1  A    between atoms: C_1  and  O_2
REMARK    2  A    between atoms: O_2  and  C_3
REMARK    3  A    between atoms: C_6  and  N_7
REMARK    4  A    between atoms: N_8  and  C_9
REMARK    5  A    between atoms: C_12  and  O_13
REMARK                            x       y       z     vdW  Elec       q    Type
REMARK                         _______ _______ _______ _____ _____    ______ ____
ROOT
ATOM      1  C   UNL     1       3.257   6.039  18.283  0.00  0.00    +0.000 A 
ATOM      2  C   UNL     1       4.270   6.442  17.395  0.00  0.00    +0.000 A 
ATOM      3  C   UNL     1       5.076   5.511  16.753  0.00  0.00    +0.000 A 
ATOM      4  C   UNL     1       4.809   4.158  16.931  0.00  0.00    +0.000 A 
ATOM      5  C   UNL     1       3.786   3.691  17.752  0.00  0.00    +0.000 A 
ATOM      6  N   UNL     1       3.510   2.366  17.823  0.00  0.00    +0.000 NA
ATOM      7  C   UNL     1       2.560   1.942  18.680  0.00  0.00    +0.000 A 
ATOM      8  C   UNL     1       1.905   2.774  19.562  0.00  0.00    +0.000 A 
ATOM      9  C   UNL     1       2.159   4.139  19.468  0.00  0.00    +0.000 A 
ATOM     10  C   UNL     1       3.062   4.644  18.506  0.00  0.00    +0.000 A 
ENDROOT
BRANCH   1  12
ATOM     11  N   UNL     1       2.425   8.110  18.404  0.00  0.00    +0.000 NA
ATOM     12  N   UNL     1       2.377   6.968  18.909  0.00  0.00    +0.000 NA
BRANCH  11  16
ATOM     13  C   UNL     1      -0.592  10.661  19.904  0.00  0.00    +0.000 A 
ATOM     14  C   UNL     1      -0.273  10.643  18.547  0.00  0.00    +0.000 A 
ATOM     15  C   UNL     1       0.738   9.801  18.069  0.00  0.00    +0.000 A 
ATOM     16  C   UNL     1       1.465   8.987  18.943  0.00  0.00    +0.000 A 
ATOM     17  C   UNL     1       1.141   9.019  20.306  0.00  0.00    +0.000 A 
ATOM     18  C   UNL     1       0.126   9.856  20.788  0.00  0.00    +0.000 A 
BRANCH  13  20
ATOM     19  C   UNL     1      -2.454  11.932  19.198  0.00  0.00    +0.000 C 
ATOM     20  O   UNL     1      -1.594  11.523  20.256  0.00  0.00    +0.000 OA
ENDBRANCH  13  20
ENDBRANCH  11  16
ENDBRANCH   1  12
BRANCH   4  21
ATOM     21  O   UNL     1       5.610   3.245  16.270  0.00  0.00    +0.000 OA
ATOM     22  H   UNL     1       5.094   2.806  15.578  0.00  0.00    +0.000 HD
ENDBRANCH   4  21
TORSDOF 4
ENDMDL
MODEL 7
REMARK VINA RESULT:      -7.0      1.104      1.684
REMARK  Name = 
REMARK  5 active torsions:
REMARK  status: ('A' for Active; 'I' for Inactive)
REMARK    1  A    between atoms: C_1  and  O_2
REMARK    2  A    between atoms: O_2  and  C_3
REMARK    3  A    between atoms: C_6  and  N_7
REMARK    4  A    between atoms: N_8  and  C_9
REMARK    5  A    between atoms: C_12  and  O_13
REMARK                            x       y       z     vdW  Elec       q    Type
REMARK                         _______ _______ _______ _____ _____    ______ ____
ROOT
ATOM      1  C   UNL     1       3.122   6.379  18.109  0.00  0.00    +0.000 A 
ATOM      2  C   UNL     1       4.302   6.760  17.446  0.00  0.00    +0.000 A 
ATOM      3  C   UNL     1       5.149   5.813  16.884  0.00  0.00    +0.000 A 
ATOM      4  C   UNL     1       4.766   4.476  16.906  0.00  0.00    +0.000 A 
ATOM      5  C   UNL     1       3.584   4.037  17.496  0.00  0.00    +0.000 A 
ATOM      6  N   UNL     1       3.214   2.735  17.414  0.00  0.00    +0.000 NA
ATOM      7  C   UNL     1       2.100   2.331  18.055  0.00  0.00    +0.000 A 
ATOM      8  C   UNL     1       1.352   3.152  18.872  0.00  0.00    +0.000 A 
ATOM      9  C   UNL     1       1.707   4.496  18.930  0.00  0.00    +0.000 A 
ATOM     10  C   UNL     1       2.800   4.992  18.184  0.00  0.00    +0.000 A 
ENDROOT
BRANCH   1  12
ATOM     11  N   UNL     1       2.290   7.455  19.883  0.00  0.00    +0.000 NA
ATOM     12  N   UNL     1       2.205   7.331  18.642  0.00  0.00    +0.000 NA
BRANCH  11  16
ATOM     13  C   UNL     1      -0.307  10.483  21.279  0.00  0.00    +0.000 A 
ATOM     14  C   UNL     1       0.019  10.379  19.926  0.00  0.00    +0.000 A 
ATOM     15  C   UNL     1       0.890   9.379  19.484  0.00  0.00    +0.000 A 
ATOM     16  C   UNL     1       1.473   8.484  20.387  0.00  0.00    +0.000 A 
ATOM     17  C   UNL     1       1.145   8.602  21.744  0.00  0.00    +0.000 A 
ATOM     18  C   UNL     1       0.267   9.599  22.191  0.00  0.00    +0.000 A 
BRANCH  13  20
ATOM     19  C   UNL     1      -1.628  11.517  22.942  0.00  0.00    +0.000 C 
ATOM     20  O   UNL     1      -1.166  11.499  21.595  0.00  0.00    +0.000 OA
ENDBRANCH  13  20
ENDBRANCH  11  16
ENDBRANCH   1  12
BRANCH   4  21
ATOM     21  O   UNL     1       5.612   3.549  16.326  0.00  0.00    +0.000 OA
ATOM     22  H   UNL     1       6.405   3.449  16.875  0.00  0.00    +0.000 HD
ENDBRANCH   4  21
TORSDOF 4
ENDMDL
MODEL 8
REMARK VINA RESULT:      -7.0      2.462      2.659
REMARK  Name = 
REMARK  5 active torsions:
REMARK  status: ('A' for Active; 'I' for Inactive)
REMARK    1  A    between atoms: C_1  and  O_2
REMARK    2  A    between atoms: O_2  and  C_3
REMARK    3  A    between atoms: C_6  and  N_7
REMARK    4  A    between atoms: N_8  and  C_9
REMARK    5  A    between atoms: C_12  and  O_13
REMARK                            x       y       z     vdW  Elec       q    Type
REMARK                         _______ _______ _______ _____ _____    ______ ____
ROOT
ATOM      1  C   UNL     1       3.445   6.590  17.793  0.00  0.00    +0.000 A 
ATOM      2  C   UNL     1       4.653   6.811  17.108  0.00  0.00    +0.000 A 
ATOM      3  C   UNL     1       5.406   5.751  16.620  0.00  0.00    +0.000 A 
ATOM      4  C   UNL     1       4.902   4.460  16.739  0.00  0.00    +0.000 A 
ATOM      5  C   UNL     1       3.687   4.176  17.357  0.00  0.00    +0.000 A 
ATOM      6  N   UNL     1       3.199   2.912  17.370  0.00  0.00    +0.000 NA
ATOM      7  C   UNL     1       2.055   2.661  18.037  0.00  0.00    +0.000 A 
ATOM      8  C   UNL     1       1.389   3.606  18.788  0.00  0.00    +0.000 A 
ATOM      9  C   UNL     1       1.866   4.912  18.748  0.00  0.00    +0.000 A 
ATOM     10  C   UNL     1       2.997   5.248  17.970  0.00  0.00    +0.000 A 
ENDROOT
BRANCH   1  12
ATOM     11  N   UNL     1       2.622   8.646  17.486  0.00  0.00    +0.000 NA
ATOM     12  N   UNL     1       2.622   7.659  18.253  0.00  0.00    +0.000 NA
BRANCH  11  16
ATOM     13  C   UNL     1      -0.174  11.525  18.811  0.00  0.00    +0.000 A 
ATOM     14  C   UNL     1      -0.585  10.261  18.388  0.00  0.00    +0.000 A 
ATOM     15  C   UNL     1       0.353   9.325  17.941  0.00  0.00    +0.000 A 
ATOM     16  C   UNL     1       1.712   9.645  17.880  0.00  0.00    +0.000 A 
ATOM     17  C   UNL     1       2.114  10.920  18.299  0.00  0.00    +0.000 A 
ATOM     18  C   UNL     1       1.179  11.859  18.754  0.00  0.00    +0.000 A 
BRANCH  13  20
ATOM     19  C   UNL     1      -2.500  11.902  18.965  0.00  0.00    +0.000 C 
ATOM     20  O   UNL     1      -1.177  12.357  19.225  0.00  0.00    +0.000 OA
ENDBRANCH  13  20
ENDBRANCH  11  16
ENDBRANCH   1  12
BRANCH   4  21
ATOM     21  O   UNL     1       5.657   3.419  16.232  0.00  0.00    +0.000 OA
ATOM     22  H   UNL     1       5.623   2.668  16.844  0.00  0.00    +0.000 HD
ENDBRANCH   4  21
TORSDOF 4
ENDMDL
MODEL 9
REMARK VINA RESULT:      -7.0      1.293      1.790
REMARK  Name = 
REMARK  5 active torsions:
REMARK  status: ('A' for Active; 'I' for Inactive)
REMARK    1  A    between atoms: C_1  and  O_2
REMARK    2  A    between atoms: O_2  and  C_3
REMARK    3  A    between atoms: C_6  and  N_7
REMARK    4  A    between atoms: N_8  and  C_9
REMARK    5  A    between atoms: C_12  and  O_13
REMARK                            x       y       z     vdW  Elec       q    Type
REMARK                         _______ _______ _______ _____ _____    ______ ____
ROOT
ATOM      1  C   UNL     1       2.890   6.306  19.033  0.00  0.00    +0.000 A 
ATOM      2  C   UNL     1       3.851   6.443  18.015  0.00  0.00    +0.000 A 
ATOM      3  C   UNL     1       4.449   5.331  17.437  0.00  0.00    +0.000 A 
ATOM      4  C   UNL     1       4.016   4.065  17.817  0.00  0.00    +0.000 A 
ATOM      5  C   UNL     1       3.030   3.859  18.778  0.00  0.00    +0.000 A 
ATOM      6  N   UNL     1       2.582   2.609  19.050  0.00  0.00    +0.000 NA
ATOM      7  C   UNL     1       1.677   2.439  20.033  0.00  0.00    +0.000 A 
ATOM      8  C   UNL     1       1.239   3.461  20.849  0.00  0.00    +0.000 A 
ATOM      9  C   UNL     1       1.669   4.750  20.551  0.00  0.00    +0.000 A 
ATOM     10  C   UNL     1       2.528   4.994  19.457  0.00  0.00    +0.000 A 
ENDROOT
BRANCH   1  12
ATOM     11  N   UNL     1       1.952   8.318  18.769  0.00  0.00    +0.000 NA
ATOM     12  N   UNL     1       2.217   7.426  19.602  0.00  0.00    +0.000 NA
BRANCH  11  16
ATOM     13  C   UNL     1      -0.489  11.439  20.241  0.00  0.00    +0.000 A 
ATOM     14  C   UNL     1       0.148  11.544  19.005  0.00  0.00    +0.000 A 
ATOM     15  C   UNL     1       0.963  10.506  18.538  0.00  0.00    +0.000 A 
ATOM     16  C   UNL     1       1.178   9.362  19.311  0.00  0.00    +0.000 A 
ATOM     17  C   UNL     1       0.540   9.270  20.556  0.00  0.00    +0.000 A 
ATOM     18  C   UNL     1      -0.282  10.304  21.024  0.00  0.00    +0.000 A 
BRANCH  13  20
ATOM     19  C   UNL     1      -2.606  12.481  20.139  0.00  0.00    +0.000 C 
ATOM     20  O   UNL     1      -1.258  12.513  20.594  0.00  0.00    +0.000 OA
ENDBRANCH  13  20
ENDBRANCH  11  16
ENDBRANCH   1  12
BRANCH   4  21
ATOM     21  O   UNL     1       4.610   2.969  17.218  0.00  0.00    +0.000 OA
ATOM     22  H   UNL     1       4.196   2.809  16.357  0.00  0.00    +0.000 HD
ENDBRANCH   4  21
TORSDOF 4
ENDMDL
