MODEL 1
REMARK VINA RESULT:      -8.9      0.000      0.000
REMARK  Name = 
REMARK  7 active torsions:
REMARK  status: ('A' for Active; 'I' for Inactive)
REMARK    1  A    between atoms: C_2  and  C_15
REMARK    2  A    between atoms: N_3  and  N_4
REMARK    3  A    between atoms: N_4  and  C_5
REMARK    4  A    between atoms: C_5  and  N_7
REMARK    5  A    between atoms: N_7  and  C_8
REMARK    6  A    between atoms: C_18  and  C_19
REMARK    7  A    between atoms: C_22  and  C_23
REMARK                            x       y       z     vdW  Elec       q    Type
REMARK                         _______ _______ _______ _____ _____    ______ ____
ROOT
ATOM      1  C   UNL     1       2.103   7.514  18.932  0.00  0.00    +0.000 A 
ATOM      2  C   UNL     1       1.899   8.715  18.254  0.00  0.00    +0.000 A 
ATOM      3  C   UNL     1       1.357   9.808  18.938  0.00  0.00    +0.000 A 
ATOM      4  C   UNL     1       1.035   9.727  20.304  0.00  0.00    +0.000 A 
ATOM      5  C   UNL     1       1.305   8.528  20.984  0.00  0.00    +0.000 A 
ATOM      6  C   UNL     1       1.835   7.429  20.304  0.00  0.00    +0.000 A 
ENDROOT
BRANCH   4   7
ATOM      7  C   UNL     1       0.431  10.873  20.966  0.00  0.00    +0.000 A 
ATOM      8  N   UNL     1       0.994  11.986  21.390  0.00  0.00    +0.000 NA
ATOM      9  N   UNL     1      -0.009  12.749  21.940  0.00  0.00    +0.000 NA
ATOM     10  C   UNL     1      -1.118  12.041  21.845  0.00  0.00    +0.000 A 
ATOM     11  O   UNL     1      -0.923  10.847  21.199  0.00  0.00    +0.000 OA
BRANCH  10  12
ATOM     12  C   UNL     1      -2.460  12.391  22.296  0.00  0.00    +0.000 A 
ATOM     13  C   UNL     1      -2.691  12.411  23.687  0.00  0.00    +0.000 A 
ATOM     14  C   UNL     1      -3.963  12.649  24.213  0.00  0.00    +0.000 A 
ATOM     15  C   UNL     1      -5.035  12.870  23.356  0.00  0.00    +0.000 A 
ATOM     16  C   UNL     1      -4.828  12.868  21.977  0.00  0.00    +0.000 A 
ATOM     17  C   UNL     1      -3.551  12.633  21.444  0.00  0.00    +0.000 A 
ATOM     18 CL   UNL     1      -3.435  12.602  19.717  0.00  0.00    +0.000 Cl
ENDBRANCH  10  12
ENDBRANCH   4   7
BRANCH   1  20
ATOM     19  O   UNL     1       1.856   5.466  17.777  0.00  0.00    +0.000 OA
ATOM     20  C   UNL     1       2.613   6.336  18.187  0.00  0.00    +0.000 C 
ATOM     21  N   UNL     1       3.984   6.320  18.011  0.00  0.00    +0.000 N 
ATOM     22  H   UNL     1       4.610   7.028  18.381  0.00  0.00    +0.000 HD
BRANCH  21  23
ATOM     23  N   UNL     1       4.524   5.397  17.128  0.00  0.00    +0.000 N 
ATOM     24  H   UNL     1       4.252   5.495  16.149  0.00  0.00    +0.000 HD
BRANCH  23  25
ATOM     25  C   UNL     1       5.460   4.467  17.520  0.00  0.00    +0.000 C 
ATOM     26  S   UNL     1       7.080   4.794  17.766  0.00  0.00    +0.000 S 
BRANCH  25  27
ATOM     27  N   UNL     1       4.967   3.207  17.760  0.00  0.00    +0.000 N 
ATOM     28  H   UNL     1       5.422   2.449  17.263  0.00  0.00    +0.000 HD
BRANCH  27  29
ATOM     29  C   UNL     1       3.808   2.901  18.504  0.00  0.00    +0.000 A 
ATOM     30  C   UNL     1       2.704   2.262  17.918  0.00  0.00    +0.000 A 
ATOM     31  C   UNL     1       1.543   2.029  18.653  0.00  0.00    +0.000 A 
ATOM     32  C   UNL     1       1.482   2.425  19.983  0.00  0.00    +0.000 A 
ATOM     33  C   UNL     1       2.602   3.001  20.575  0.00  0.00    +0.000 A 
ATOM     34  F   UNL     1       2.542   3.376  21.859  0.00  0.00    +0.000 F 
ATOM     35  C   UNL     1       3.776   3.221  19.857  0.00  0.00    +0.000 A 
ENDBRANCH  27  29
ENDBRANCH  25  27
ENDBRANCH  23  25
ENDBRANCH  21  23
ENDBRANCH   1  20
TORSDOF 7
ENDMDL
MODEL 2
REMARK VINA RESULT:      -8.9      0.803      1.174
REMARK  Name = 
REMARK  7 active torsions:
REMARK  status: ('A' for Active; 'I' for Inactive)
REMARK    1  A    between atoms: C_2  and  C_15
REMARK    2  A    between atoms: N_3  and  N_4
REMARK    3  A    between atoms: N_4  and  C_5
REMARK    4  A    between atoms: C_5  and  N_7
REMARK    5  A    between atoms: N_7  and  C_8
REMARK    6  A    between atoms: C_18  and  C_19
REMARK    7  A    between atoms: C_22  and  C_23
REMARK                            x       y       z     vdW  Elec       q    Type
REMARK                         _______ _______ _______ _____ _____    ______ ____
ROOT
ATOM      1  C   UNL     1       2.134   7.515  18.903  0.00  0.00    +0.000 A 
ATOM      2  C   UNL     1       1.836   7.504  20.265  0.00  0.00    +0.000 A 
ATOM      3  C   UNL     1       1.344   8.663  20.871  0.00  0.00    +0.000 A 
ATOM      4  C   UNL     1       1.121   9.837  20.129  0.00  0.00    +0.000 A 
ATOM      5  C   UNL     1       1.370   9.811  18.747  0.00  0.00    +0.000 A 
ATOM      6  C   UNL     1       1.873   8.658  18.137  0.00  0.00    +0.000 A 
ENDROOT
BRANCH   4   7
ATOM      7  C   UNL     1       0.651  11.035  20.808  0.00  0.00    +0.000 A 
ATOM      8  N   UNL     1       1.314  12.125  21.134  0.00  0.00    +0.000 NA
ATOM      9  N   UNL     1       0.416  12.961  21.755  0.00  0.00    +0.000 NA
ATOM     10  C   UNL     1      -0.734  12.315  21.797  0.00  0.00    +0.000 A 
ATOM     11  O   UNL     1      -0.672  11.094  21.176  0.00  0.00    +0.000 OA
BRANCH  10  12
ATOM     12  C   UNL     1      -2.002  12.755  22.367  0.00  0.00    +0.000 A 
ATOM     13  C   UNL     1      -2.549  11.974  23.407  0.00  0.00    +0.000 A 
ATOM     14  C   UNL     1      -3.800  12.264  23.957  0.00  0.00    +0.000 A 
ATOM     15  C   UNL     1      -4.533  13.342  23.476  0.00  0.00    +0.000 A 
ATOM     16  C   UNL     1      -4.007  14.136  22.458  0.00  0.00    +0.000 A 
ATOM     17  C   UNL     1      -2.749  13.851  21.905  0.00  0.00    +0.000 A 
ATOM     18 CL   UNL     1      -2.231  14.876  20.610  0.00  0.00    +0.000 Cl
ENDBRANCH  10  12
ENDBRANCH   4   7
BRANCH   1  20
ATOM     19  O   UNL     1       2.014   5.439  17.778  0.00  0.00    +0.000 OA
ATOM     20  C   UNL     1       2.722   6.304  18.277  0.00  0.00    +0.000 C 
ATOM     21  N   UNL     1       4.102   6.253  18.316  0.00  0.00    +0.000 N 
ATOM     22  H   UNL     1       4.682   6.959  18.759  0.00  0.00    +0.000 HD
BRANCH  21  23
ATOM     23  N   UNL     1       4.748   5.293  17.552  0.00  0.00    +0.000 N 
ATOM     24  H   UNL     1       4.467   5.230  16.573  0.00  0.00    +0.000 HD
BRANCH  23  25
ATOM     25  C   UNL     1       5.788   4.539  18.047  0.00  0.00    +0.000 C 
ATOM     26  S   UNL     1       7.406   4.900  17.842  0.00  0.00    +0.000 S 
BRANCH  25  27
ATOM     27  N   UNL     1       5.414   3.449  18.796  0.00  0.00    +0.000 N 
ATOM     28  H   UNL     1       6.170   2.881  19.161  0.00  0.00    +0.000 HD
BRANCH  27  29
ATOM     29  C   UNL     1       4.096   2.979  18.970  0.00  0.00    +0.000 A 
ATOM     30  C   UNL     1       3.427   2.272  17.958  0.00  0.00    +0.000 A 
ATOM     31  C   UNL     1       2.101   1.874  18.123  0.00  0.00    +0.000 A 
ATOM     32  C   UNL     1       1.439   2.173  19.307  0.00  0.00    +0.000 A 
ATOM     33  C   UNL     1       2.126   2.819  20.329  0.00  0.00    +0.000 A 
ATOM     34  F   UNL     1       1.485   3.101  21.471  0.00  0.00    +0.000 F 
ATOM     35  C   UNL     1       3.458   3.204  20.185  0.00  0.00    +0.000 A 
ENDBRANCH  27  29
ENDBRANCH  25  27
ENDBRANCH  23  25
ENDBRANCH  21  23
ENDBRANCH   1  20
TORSDOF 7
ENDMDL
MODEL 3
REMARK VINA RESULT:      -8.8      2.274      2.757
REMARK  Name = 
REMARK  7 active torsions:
REMARK  status: ('A' for Active; 'I' for Inactive)
REMARK    1  A    between atoms: C_2  and  C_15
REMARK    2  A    between atoms: N_3  and  N_4
REMARK    3  A    between atoms: N_4  and  C_5
REMARK    4  A    between atoms: C_5  and  N_7
REMARK    5  A    between atoms: N_7  and  C_8
REMARK    6  A    between atoms: C_18  and  C_19
REMARK    7  A    between atoms: C_22  and  C_23
REMARK                            x       y       z     vdW  Elec       q    Type
REMARK                         _______ _______ _______ _____ _____    ______ ____
ROOT
ATOM      1  C   UNL     1       2.696   7.391  18.952  0.00  0.00    +0.000 A 
ATOM      2  C   UNL     1       1.917   7.750  20.051  0.00  0.00    +0.000 A 
ATOM      3  C   UNL     1       1.025   8.821  19.941  0.00  0.00    +0.000 A 
ATOM      4  C   UNL     1       0.881   9.532  18.736  0.00  0.00    +0.000 A 
ATOM      5  C   UNL     1       1.631   9.116  17.623  0.00  0.00    +0.000 A 
ATOM      6  C   UNL     1       2.532   8.054  17.729  0.00  0.00    +0.000 A 
ENDROOT
BRANCH   4   7
ATOM      7  C   UNL     1      -0.024  10.669  18.679  0.00  0.00    +0.000 A 
ATOM      8  N   UNL     1       0.246  11.956  18.732  0.00  0.00    +0.000 NA
ATOM      9  N   UNL     1      -0.956  12.615  18.633  0.00  0.00    +0.000 NA
ATOM     10  C   UNL     1      -1.891  11.687  18.554  0.00  0.00    +0.000 A 
ATOM     11  O   UNL     1      -1.369  10.419  18.538  0.00  0.00    +0.000 OA
BRANCH  10  12
ATOM     12  C   UNL     1      -3.335  11.859  18.450  0.00  0.00    +0.000 A 
ATOM     13  C   UNL     1      -4.020  12.289  19.606  0.00  0.00    +0.000 A 
ATOM     14  C   UNL     1      -5.413  12.399  19.631  0.00  0.00    +0.000 A 
ATOM     15  C   UNL     1      -6.151  12.078  18.498  0.00  0.00    +0.000 A 
ATOM     16  C   UNL     1      -5.495  11.663  17.340  0.00  0.00    +0.000 A 
ATOM     17  C   UNL     1      -4.096  11.555  17.309  0.00  0.00    +0.000 A 
ATOM     18 CL   UNL     1      -3.404  10.978  15.831  0.00  0.00    +0.000 Cl
ENDBRANCH  10  12
ENDBRANCH   4   7
BRANCH   1  20
ATOM     19  O   UNL     1       3.781   5.649  20.125  0.00  0.00    +0.000 OA
ATOM     20  C   UNL     1       3.692   6.299  19.092  0.00  0.00    +0.000 C 
ATOM     21  N   UNL     1       4.482   6.100  17.976  0.00  0.00    +0.000 N 
ATOM     22  H   UNL     1       4.424   6.663  17.134  0.00  0.00    +0.000 HD
BRANCH  21  23
ATOM     23  N   UNL     1       5.267   4.957  17.921  0.00  0.00    +0.000 N 
ATOM     24  H   UNL     1       5.940   4.834  18.678  0.00  0.00    +0.000 HD
BRANCH  23  25
ATOM     25  C   UNL     1       5.080   3.984  16.965  0.00  0.00    +0.000 C 
ATOM     26  S   UNL     1       5.642   4.073  15.394  0.00  0.00    +0.000 S 
BRANCH  25  27
ATOM     27  N   UNL     1       4.419   2.860  17.399  0.00  0.00    +0.000 N 
ATOM     28  H   UNL     1       4.678   1.990  16.948  0.00  0.00    +0.000 HD
BRANCH  27  29
ATOM     29  C   UNL     1       3.327   2.836  18.292  0.00  0.00    +0.000 A 
ATOM     30  C   UNL     1       2.028   3.168  17.875  0.00  0.00    +0.000 A 
ATOM     31  C   UNL     1       0.974   3.204  18.788  0.00  0.00    +0.000 A 
ATOM     32  C   UNL     1       1.212   2.899  20.122  0.00  0.00    +0.000 A 
ATOM     33  C   UNL     1       2.489   2.511  20.516  0.00  0.00    +0.000 A 
ATOM     34  F   UNL     1       2.713   2.213  21.802  0.00  0.00    +0.000 F 
ATOM     35  C   UNL     1       3.546   2.451  19.610  0.00  0.00    +0.000 A 
ENDBRANCH  27  29
ENDBRANCH  25  27
ENDBRANCH  23  25
ENDBRANCH  21  23
ENDBRANCH   1  20
TORSDOF 7
ENDMDL
MODEL 4
REMARK VINA RESULT:      -8.7      0.790      1.160
REMARK  Name = 
REMARK  7 active torsions:
REMARK  status: ('A' for Active; 'I' for Inactive)
REMARK    1  A    between atoms: C_2  and  C_15
REMARK    2  A    between atoms: N_3  and  N_4
REMARK    3  A    between atoms: N_4  and  C_5
REMARK    4  A    between atoms: C_5  and  N_7
REMARK    5  A    between atoms: N_7  and  C_8
REMARK    6  A    between atoms: C_18  and  C_19
REMARK    7  A    between atoms: C_22  and  C_23
REMARK                            x       y       z     vdW  Elec       q    Type
REMARK                         _______ _______ _______ _____ _____    ______ ____
ROOT
ATOM      1  C   UNL     1       2.072   7.583  18.919  0.00  0.00    +0.000 A 
ATOM      2  C   UNL     1       1.830   8.781  18.248  0.00  0.00    +0.000 A 
ATOM      3  C   UNL     1       1.289   9.864  18.947  0.00  0.00    +0.000 A 
ATOM      4  C   UNL     1       1.004   9.778  20.321  0.00  0.00    +0.000 A 
ATOM      5  C   UNL     1       1.312   8.583  20.993  0.00  0.00    +0.000 A 
ATOM      6  C   UNL     1       1.842   7.493  20.298  0.00  0.00    +0.000 A 
ENDROOT
BRANCH   4   7
ATOM      7  C   UNL     1       0.399  10.914  21.000  0.00  0.00    +0.000 A 
ATOM      8  N   UNL     1       0.961  12.021  21.439  0.00  0.00    +0.000 NA
ATOM      9  N   UNL     1      -0.043  12.775  22.001  0.00  0.00    +0.000 NA
ATOM     10  C   UNL     1      -1.151  12.066  21.897  0.00  0.00    +0.000 A 
ATOM     11  O   UNL     1      -0.955  10.882  21.234  0.00  0.00    +0.000 OA
BRANCH  10  12
ATOM     12  C   UNL     1      -2.493  12.408  22.353  0.00  0.00    +0.000 A 
ATOM     13  C   UNL     1      -2.723  12.406  23.745  0.00  0.00    +0.000 A 
ATOM     14  C   UNL     1      -3.995  12.635  24.275  0.00  0.00    +0.000 A 
ATOM     15  C   UNL     1      -5.067  12.868  23.422  0.00  0.00    +0.000 A 
ATOM     16  C   UNL     1      -4.861  12.888  22.043  0.00  0.00    +0.000 A 
ATOM     17  C   UNL     1      -3.584  12.663  21.507  0.00  0.00    +0.000 A 
ATOM     18 CL   UNL     1      -3.469  12.659  19.779  0.00  0.00    +0.000 Cl
ENDBRANCH  10  12
ENDBRANCH   4   7
BRANCH   1  20
ATOM     19  O   UNL     1       1.819   5.573  17.701  0.00  0.00    +0.000 OA
ATOM     20  C   UNL     1       2.581   6.414  18.160  0.00  0.00    +0.000 C 
ATOM     21  N   UNL     1       3.956   6.371  18.031  0.00  0.00    +0.000 N 
ATOM     22  H   UNL     1       4.585   7.055  18.441  0.00  0.00    +0.000 HD
BRANCH  21  23
ATOM     23  N   UNL     1       4.506   5.459  17.141  0.00  0.00    +0.000 N 
ATOM     24  H   UNL     1       4.284   5.599  16.156  0.00  0.00    +0.000 HD
BRANCH  23  25
ATOM     25  C   UNL     1       5.392   4.486  17.544  0.00  0.00    +0.000 C 
ATOM     26  S   UNL     1       7.033   4.721  17.757  0.00  0.00    +0.000 S 
BRANCH  25  27
ATOM     27  N   UNL     1       4.829   3.264  17.823  0.00  0.00    +0.000 N 
ATOM     28  H   UNL     1       5.179   2.479  17.284  0.00  0.00    +0.000 HD
BRANCH  27  29
ATOM     29  C   UNL     1       3.725   3.037  18.670  0.00  0.00    +0.000 A 
ATOM     30  C   UNL     1       3.777   3.327  20.043  0.00  0.00    +0.000 A 
ATOM     31  C   UNL     1       2.699   3.033  20.876  0.00  0.00    +0.000 A 
ATOM     32  C   UNL     1       1.556   2.455  20.338  0.00  0.00    +0.000 A 
ATOM     33  C   UNL     1       1.487   2.227  18.967  0.00  0.00    +0.000 A 
ATOM     34  F   UNL     1       0.381   1.674  18.452  0.00  0.00    +0.000 F 
ATOM     35  C   UNL     1       2.550   2.535  18.121  0.00  0.00    +0.000 A 
ENDBRANCH  27  29
ENDBRANCH  25  27
ENDBRANCH  23  25
ENDBRANCH  21  23
ENDBRANCH   1  20
TORSDOF 7
ENDMDL
MODEL 5
REMARK VINA RESULT:      -8.7      2.173      2.799
REMARK  Name = 
REMARK  7 active torsions:
REMARK  status: ('A' for Active; 'I' for Inactive)
REMARK    1  A    between atoms: C_2  and  C_15
REMARK    2  A    between atoms: N_3  and  N_4
REMARK    3  A    between atoms: N_4  and  C_5
REMARK    4  A    between atoms: C_5  and  N_7
REMARK    5  A    between atoms: N_7  and  C_8
REMARK    6  A    between atoms: C_18  and  C_19
REMARK    7  A    between atoms: C_22  and  C_23
REMARK                            x       y       z     vdW  Elec       q    Type
REMARK                         _______ _______ _______ _____ _____    ______ ____
ROOT
ATOM      1  C   UNL     1       2.808   7.369  18.909  0.00  0.00    +0.000 A 
ATOM      2  C   UNL     1       1.998   7.670  20.004  0.00  0.00    +0.000 A 
ATOM      3  C   UNL     1       1.100   8.738  19.923  0.00  0.00    +0.000 A 
ATOM      4  C   UNL     1       0.980   9.504  18.749  0.00  0.00    +0.000 A 
ATOM      5  C   UNL     1       1.760   9.147  17.636  0.00  0.00    +0.000 A 
ATOM      6  C   UNL     1       2.668   8.087  17.715  0.00  0.00    +0.000 A 
ENDROOT
BRANCH   4   7
ATOM      7  C   UNL     1       0.066  10.635  18.722  0.00  0.00    +0.000 A 
ATOM      8  N   UNL     1       0.331  11.924  18.767  0.00  0.00    +0.000 NA
ATOM      9  N   UNL     1      -0.878  12.576  18.708  0.00  0.00    +0.000 NA
ATOM     10  C   UNL     1      -1.809  11.643  18.661  0.00  0.00    +0.000 A 
ATOM     11  O   UNL     1      -1.281  10.377  18.627  0.00  0.00    +0.000 OA
BRANCH  10  12
ATOM     12  C   UNL     1      -3.257  11.806  18.606  0.00  0.00    +0.000 A 
ATOM     13  C   UNL     1      -3.898  11.489  17.389  0.00  0.00    +0.000 A 
ATOM     14  C   UNL     1      -5.268  11.695  17.211  0.00  0.00    +0.000 A 
ATOM     15  C   UNL     1      -6.028  12.226  18.247  0.00  0.00    +0.000 A 
ATOM     16  C   UNL     1      -5.418  12.535  19.462  0.00  0.00    +0.000 A 
ATOM     17  C   UNL     1      -4.043  12.326  19.647  0.00  0.00    +0.000 A 
ATOM     18 CL   UNL     1      -3.396  12.800  21.182  0.00  0.00    +0.000 Cl
ENDBRANCH  10  12
ENDBRANCH   4   7
BRANCH   1  20
ATOM     19  O   UNL     1       3.866   5.569  20.018  0.00  0.00    +0.000 OA
ATOM     20  C   UNL     1       3.808   6.279  19.023  0.00  0.00    +0.000 C 
ATOM     21  N   UNL     1       4.643   6.153  17.929  0.00  0.00    +0.000 N 
ATOM     22  H   UNL     1       4.611   6.765  17.119  0.00  0.00    +0.000 HD
BRANCH  21  23
ATOM     23  N   UNL     1       5.442   5.023  17.836  0.00  0.00    +0.000 N 
ATOM     24  H   UNL     1       6.164   4.919  18.550  0.00  0.00    +0.000 HD
BRANCH  23  25
ATOM     25  C   UNL     1       5.210   4.035  16.905  0.00  0.00    +0.000 C 
ATOM     26  S   UNL     1       5.726   4.084  15.317  0.00  0.00    +0.000 S 
BRANCH  25  27
ATOM     27  N   UNL     1       4.544   2.931  17.380  0.00  0.00    +0.000 N 
ATOM     28  H   UNL     1       4.906   2.031  17.082  0.00  0.00    +0.000 HD
BRANCH  27  29
ATOM     29  C   UNL     1       3.336   2.943  18.107  0.00  0.00    +0.000 A 
ATOM     30  C   UNL     1       2.151   3.456  17.557  0.00  0.00    +0.000 A 
ATOM     31  C   UNL     1       0.983   3.522  18.315  0.00  0.00    +0.000 A 
ATOM     32  C   UNL     1       0.991   3.066  19.627  0.00  0.00    +0.000 A 
ATOM     33  C   UNL     1       2.152   2.502  20.146  0.00  0.00    +0.000 A 
ATOM     34  F   UNL     1       2.154   2.058  21.410  0.00  0.00    +0.000 F 
ATOM     35  C   UNL     1       3.320   2.411  19.392  0.00  0.00    +0.000 A 
ENDBRANCH  27  29
ENDBRANCH  25  27
ENDBRANCH  23  25
ENDBRANCH  21  23
ENDBRANCH   1  20
TORSDOF 7
ENDMDL
MODEL 6
REMARK VINA RESULT:      -8.5      3.568      4.646
REMARK  Name = 
REMARK  7 active torsions:
REMARK  status: ('A' for Active; 'I' for Inactive)
REMARK    1  A    between atoms: C_2  and  C_15
REMARK    2  A    between atoms: N_3  and  N_4
REMARK    3  A    between atoms: N_4  and  C_5
REMARK    4  A    between atoms: C_5  and  N_7
REMARK    5  A    between atoms: N_7  and  C_8
REMARK    6  A    between atoms: C_18  and  C_19
REMARK    7  A    between atoms: C_22  and  C_23
REMARK                            x       y       z     vdW  Elec       q    Type
REMARK                         _______ _______ _______ _____ _____    ______ ____
ROOT
ATOM      1  C   UNL     1       2.650   7.298  18.887  0.00  0.00    +0.000 A 
ATOM      2  C   UNL     1       2.487   8.136  17.785  0.00  0.00    +0.000 A 
ATOM      3  C   UNL     1       1.615   9.225  17.872  0.00  0.00    +0.000 A 
ATOM      4  C   UNL     1       0.913   9.507  19.059  0.00  0.00    +0.000 A 
ATOM      5  C   UNL     1       1.137   8.686  20.177  0.00  0.00    +0.000 A 
ATOM      6  C   UNL     1       1.999   7.589  20.093  0.00  0.00    +0.000 A 
ENDROOT
BRANCH   4   7
ATOM      7  C   UNL     1      -0.019  10.623  19.092  0.00  0.00    +0.000 A 
ATOM      8  N   UNL     1       0.172  11.859  19.505  0.00  0.00    +0.000 NA
ATOM      9  N   UNL     1      -1.019  12.522  19.323  0.00  0.00    +0.000 NA
ATOM     10  C   UNL     1      -1.872  11.640  18.838  0.00  0.00    +0.000 A 
ATOM     11  O   UNL     1      -1.295  10.414  18.627  0.00  0.00    +0.000 OA
BRANCH  10  12
ATOM     12  C   UNL     1      -3.275  11.832  18.488  0.00  0.00    +0.000 A 
ATOM     13  C   UNL     1      -4.147  12.251  19.515  0.00  0.00    +0.000 A 
ATOM     14  C   UNL     1      -5.521  12.378  19.299  0.00  0.00    +0.000 A 
ATOM     15  C   UNL     1      -6.054  12.085  18.049  0.00  0.00    +0.000 A 
ATOM     16  C   UNL     1      -5.210  11.681  17.016  0.00  0.00    +0.000 A 
ATOM     17  C   UNL     1      -3.828  11.556  17.227  0.00  0.00    +0.000 A 
ATOM     18 CL   UNL     1      -2.895  10.994  15.881  0.00  0.00    +0.000 Cl
ENDBRANCH  10  12
ENDBRANCH   4   7
BRANCH   1  20
ATOM     19  O   UNL     1       3.910   5.498  19.761  0.00  0.00    +0.000 OA
ATOM     20  C   UNL     1       3.523   6.103  18.770  0.00  0.00    +0.000 C 
ATOM     21  N   UNL     1       3.846   5.757  17.471  0.00  0.00    +0.000 N 
ATOM     22  H   UNL     1       3.547   6.282  16.655  0.00  0.00    +0.000 HD
BRANCH  21  23
ATOM     23  N   UNL     1       4.449   4.528  17.248  0.00  0.00    +0.000 N 
ATOM     24  H   UNL     1       3.835   3.714  17.263  0.00  0.00    +0.000 HD
BRANCH  23  25
ATOM     25  C   UNL     1       5.779   4.414  16.913  0.00  0.00    +0.000 C 
ATOM     26  S   UNL     1       7.029   5.196  17.700  0.00  0.00    +0.000 S 
BRANCH  25  27
ATOM     27  N   UNL     1       6.049   3.547  15.882  0.00  0.00    +0.000 N 
ATOM     28  H   UNL     1       6.102   2.565  16.129  0.00  0.00    +0.000 HD
BRANCH  27  29
ATOM     29  C   UNL     1       6.402   3.912  14.566  0.00  0.00    +0.000 A 
ATOM     30  C   UNL     1       5.753   3.361  13.450  0.00  0.00    +0.000 A 
ATOM     31  C   UNL     1       6.162   3.683  12.156  0.00  0.00    +0.000 A 
ATOM     32  C   UNL     1       7.217   4.567  11.971  0.00  0.00    +0.000 A 
ATOM     33  C   UNL     1       7.815   5.157  13.080  0.00  0.00    +0.000 A 
ATOM     34  F   UNL     1       8.829   6.013  12.897  0.00  0.00    +0.000 F 
ATOM     35  C   UNL     1       7.403   4.859  14.377  0.00  0.00    +0.000 A 
ENDBRANCH  27  29
ENDBRANCH  25  27
ENDBRANCH  23  25
ENDBRANCH  21  23
ENDBRANCH   1  20
TORSDOF 7
ENDMDL
MODEL 7
REMARK VINA RESULT:      -8.4      3.305      4.253
REMARK  Name = 
REMARK  7 active torsions:
REMARK  status: ('A' for Active; 'I' for Inactive)
REMARK    1  A    between atoms: C_2  and  C_15
REMARK    2  A    between atoms: N_3  and  N_4
REMARK    3  A    between atoms: N_4  and  C_5
REMARK    4  A    between atoms: C_5  and  N_7
REMARK    5  A    between atoms: N_7  and  C_8
REMARK    6  A    between atoms: C_18  and  C_19
REMARK    7  A    between atoms: C_22  and  C_23
REMARK                            x       y       z     vdW  Elec       q    Type
REMARK                         _______ _______ _______ _____ _____    ______ ____
ROOT
ATOM      1  C   UNL     1       2.775   7.033  18.787  0.00  0.00    +0.000 A 
ATOM      2  C   UNL     1       2.559   7.915  17.729  0.00  0.00    +0.000 A 
ATOM      3  C   UNL     1       1.696   9.001  17.905  0.00  0.00    +0.000 A 
ATOM      4  C   UNL     1       1.057   9.235  19.136  0.00  0.00    +0.000 A 
ATOM      5  C   UNL     1       1.335   8.370  20.207  0.00  0.00    +0.000 A 
ATOM      6  C   UNL     1       2.187   7.276  20.035  0.00  0.00    +0.000 A 
ENDROOT
BRANCH   4   7
ATOM      7  C   UNL     1       0.131  10.350  19.262  0.00  0.00    +0.000 A 
ATOM      8  N   UNL     1       0.284  11.496  19.893  0.00  0.00    +0.000 NA
ATOM      9  N   UNL     1      -0.879  12.206  19.706  0.00  0.00    +0.000 NA
ATOM     10  C   UNL     1      -1.682  11.436  18.997  0.00  0.00    +0.000 A 
ATOM     11  O   UNL     1      -1.091  10.250  18.642  0.00  0.00    +0.000 OA
BRANCH  10  12
ATOM     12  C   UNL     1      -3.040  11.714  18.544  0.00  0.00    +0.000 A 
ATOM     13  C   UNL     1      -3.948  12.223  19.496  0.00  0.00    +0.000 A 
ATOM     14  C   UNL     1      -5.292  12.438  19.181  0.00  0.00    +0.000 A 
ATOM     15  C   UNL     1      -5.757  12.146  17.905  0.00  0.00    +0.000 A 
ATOM     16  C   UNL     1      -4.875  11.654  16.943  0.00  0.00    +0.000 A 
ATOM     17  C   UNL     1      -3.524  11.440  17.254  0.00  0.00    +0.000 A 
ATOM     18 CL   UNL     1      -2.543  10.775  15.992  0.00  0.00    +0.000 Cl
ENDBRANCH  10  12
ENDBRANCH   4   7
BRANCH   1  20
ATOM     19  O   UNL     1       3.414   5.049  17.672  0.00  0.00    +0.000 OA
ATOM     20  C   UNL     1       3.636   5.843  18.576  0.00  0.00    +0.000 C 
ATOM     21  N   UNL     1       4.677   5.724  19.477  0.00  0.00    +0.000 N 
ATOM     22  H   UNL     1       4.838   6.369  20.245  0.00  0.00    +0.000 HD
BRANCH  21  23
ATOM     23  N   UNL     1       5.670   4.790  19.218  0.00  0.00    +0.000 N 
ATOM     24  H   UNL     1       5.498   3.843  19.556  0.00  0.00    +0.000 HD
BRANCH  23  25
ATOM     25  C   UNL     1       6.774   5.087  18.453  0.00  0.00    +0.000 C 
ATOM     26  S   UNL     1       7.748   6.428  18.667  0.00  0.00    +0.000 S 
BRANCH  25  27
ATOM     27  N   UNL     1       7.083   4.158  17.488  0.00  0.00    +0.000 N 
ATOM     28  H   UNL     1       7.682   3.395  17.781  0.00  0.00    +0.000 HD
BRANCH  27  29
ATOM     29  C   UNL     1       6.767   4.255  16.117  0.00  0.00    +0.000 A 
ATOM     30  C   UNL     1       5.597   3.688  15.588  0.00  0.00    +0.000 A 
ATOM     31  C   UNL     1       5.337   3.736  14.219  0.00  0.00    +0.000 A 
ATOM     32  C   UNL     1       6.242   4.361  13.371  0.00  0.00    +0.000 A 
ATOM     33  C   UNL     1       7.369   4.975  13.909  0.00  0.00    +0.000 A 
ATOM     34  F   UNL     1       8.237   5.581  13.088  0.00  0.00    +0.000 F 
ATOM     35  C   UNL     1       7.630   4.952  15.277  0.00  0.00    +0.000 A 
ENDBRANCH  27  29
ENDBRANCH  25  27
ENDBRANCH  23  25
ENDBRANCH  21  23
ENDBRANCH   1  20
TORSDOF 7
ENDMDL
MODEL 8
REMARK VINA RESULT:      -8.3      1.393      1.804
REMARK  Name = 
REMARK  7 active torsions:
REMARK  status: ('A' for Active; 'I' for Inactive)
REMARK    1  A    between atoms: C_2  and  C_15
REMARK    2  A    between atoms: N_3  and  N_4
REMARK    3  A    between atoms: N_4  and  C_5
REMARK    4  A    between atoms: C_5  and  N_7
REMARK    5  A    between atoms: N_7  and  C_8
REMARK    6  A    between atoms: C_18  and  C_19
REMARK    7  A    between atoms: C_22  and  C_23
REMARK                            x       y       z     vdW  Elec       q    Type
REMARK                         _______ _______ _______ _____ _____    ______ ____
ROOT
ATOM      1  C   UNL     1       2.161   7.824  18.691  0.00  0.00    +0.000 A 
ATOM      2  C   UNL     1       1.695   7.921  20.002  0.00  0.00    +0.000 A 
ATOM      3  C   UNL     1       1.088   9.105  20.431  0.00  0.00    +0.000 A 
ATOM      4  C   UNL     1       0.917  10.196  19.559  0.00  0.00    +0.000 A 
ATOM      5  C   UNL     1       1.338  10.057  18.226  0.00  0.00    +0.000 A 
ATOM      6  C   UNL     1       1.956   8.880  17.794  0.00  0.00    +0.000 A 
ENDROOT
BRANCH   4   7
ATOM      7  C   UNL     1       0.321  11.425  20.059  0.00  0.00    +0.000 A 
ATOM      8  N   UNL     1       0.392  12.646  19.570  0.00  0.00    +0.000 NA
ATOM      9  N   UNL     1      -0.346  13.448  20.409  0.00  0.00    +0.000 NA
ATOM     10  C   UNL     1      -0.798  12.671  21.374  0.00  0.00    +0.000 A 
ATOM     11  O   UNL     1      -0.445  11.357  21.197  0.00  0.00    +0.000 OA
BRANCH  10  12
ATOM     12  C   UNL     1      -1.618  13.034  22.524  0.00  0.00    +0.000 A 
ATOM     13  C   UNL     1      -2.711  12.195  22.830  0.00  0.00    +0.000 A 
ATOM     14  C   UNL     1      -3.605  12.507  23.857  0.00  0.00    +0.000 A 
ATOM     15  C   UNL     1      -3.427  13.668  24.600  0.00  0.00    +0.000 A 
ATOM     16  C   UNL     1      -2.347  14.506  24.324  0.00  0.00    +0.000 A 
ATOM     17  C   UNL     1      -1.444  14.195  23.296  0.00  0.00    +0.000 A 
ATOM     18 CL   UNL     1      -0.177  15.341  23.015  0.00  0.00    +0.000 Cl
ENDBRANCH  10  12
ENDBRANCH   4   7
BRANCH   1  20
ATOM     19  O   UNL     1       2.250   5.598  17.902  0.00  0.00    +0.000 OA
ATOM     20  C   UNL     1       2.867   6.592  18.260  0.00  0.00    +0.000 C 
ATOM     21  N   UNL     1       4.245   6.678  18.304  0.00  0.00    +0.000 N 
ATOM     22  H   UNL     1       4.751   7.495  18.632  0.00  0.00    +0.000 HD
BRANCH  21  23
ATOM     23  N   UNL     1       4.988   5.676  17.697  0.00  0.00    +0.000 N 
ATOM     24  H   UNL     1       4.880   5.582  16.687  0.00  0.00    +0.000 HD
BRANCH  23  25
ATOM     25  C   UNL     1       5.905   4.919  18.391  0.00  0.00    +0.000 C 
ATOM     26  S   UNL     1       7.311   5.515  19.069  0.00  0.00    +0.000 S 
BRANCH  25  27
ATOM     27  N   UNL     1       5.568   3.597  18.551  0.00  0.00    +0.000 N 
ATOM     28  H   UNL     1       6.285   2.923  18.304  0.00  0.00    +0.000 HD
BRANCH  27  29
ATOM     29  C   UNL     1       4.288   3.103  18.879  0.00  0.00    +0.000 A 
ATOM     30  C   UNL     1       3.517   2.385  17.952  0.00  0.00    +0.000 A 
ATOM     31  C   UNL     1       2.227   1.964  18.272  0.00  0.00    +0.000 A 
ATOM     32  C   UNL     1       1.704   2.251  19.526  0.00  0.00    +0.000 A 
ATOM     33  C   UNL     1       2.497   2.909  20.462  0.00  0.00    +0.000 A 
ATOM     34  F   UNL     1       1.991   3.179  21.672  0.00  0.00    +0.000 F 
ATOM     35  C   UNL     1       3.795   3.316  20.161  0.00  0.00    +0.000 A 
ENDBRANCH  27  29
ENDBRANCH  25  27
ENDBRANCH  23  25
ENDBRANCH  21  23
ENDBRANCH   1  20
TORSDOF 7
ENDMDL
MODEL 9
REMARK VINA RESULT:      -8.3      1.362      1.825
REMARK  Name = 
REMARK  7 active torsions:
REMARK  status: ('A' for Active; 'I' for Inactive)
REMARK    1  A    between atoms: C_2  and  C_15
REMARK    2  A    between atoms: N_3  and  N_4
REMARK    3  A    between atoms: N_4  and  C_5
REMARK    4  A    between atoms: C_5  and  N_7
REMARK    5  A    between atoms: N_7  and  C_8
REMARK    6  A    between atoms: C_18  and  C_19
REMARK    7  A    between atoms: C_22  and  C_23
REMARK                            x       y       z     vdW  Elec       q    Type
REMARK                         _______ _______ _______ _____ _____    ______ ____
ROOT
ATOM      1  C   UNL     1       2.609   7.673  18.553  0.00  0.00    +0.000 A 
ATOM      2  C   UNL     1       2.344   7.102  19.797  0.00  0.00    +0.000 A 
ATOM      3  C   UNL     1       1.591   7.815  20.734  0.00  0.00    +0.000 A 
ATOM      4  C   UNL     1       1.074   9.089  20.440  0.00  0.00    +0.000 A 
ATOM      5  C   UNL     1       1.300   9.621  19.159  0.00  0.00    +0.000 A 
ATOM      6  C   UNL     1       2.062   8.919  18.222  0.00  0.00    +0.000 A 
ENDROOT
BRANCH   4   7
ATOM      7  C   UNL     1       0.334   9.816  21.460  0.00  0.00    +0.000 A 
ATOM      8  N   UNL     1       0.485   9.805  22.768  0.00  0.00    +0.000 NA
ATOM      9  N   UNL     1      -0.458  10.665  23.279  0.00  0.00    +0.000 NA
ATOM     10  C   UNL     1      -1.147  11.125  22.252  0.00  0.00    +0.000 A 
ATOM     11  O   UNL     1      -0.674  10.657  21.053  0.00  0.00    +0.000 OA
BRANCH  10  12
ATOM     12  C   UNL     1      -2.271  12.055  22.255  0.00  0.00    +0.000 A 
ATOM     13  C   UNL     1      -2.952  12.242  23.477  0.00  0.00    +0.000 A 
ATOM     14  C   UNL     1      -4.092  13.045  23.560  0.00  0.00    +0.000 A 
ATOM     15  C   UNL     1      -4.578  13.676  22.421  0.00  0.00    +0.000 A 
ATOM     16  C   UNL     1      -3.914  13.515  21.206  0.00  0.00    +0.000 A 
ATOM     17  C   UNL     1      -2.765  12.713  21.118  0.00  0.00    +0.000 A 
ATOM     18 CL   UNL     1      -2.064  12.550  19.543  0.00  0.00    +0.000 Cl
ENDBRANCH  10  12
ENDBRANCH   4   7
BRANCH   1  20
ATOM     19  O   UNL     1       4.289   7.531  16.896  0.00  0.00    +0.000 OA
ATOM     20  C   UNL     1       3.467   6.943  17.586  0.00  0.00    +0.000 C 
ATOM     21  N   UNL     1       3.249   5.580  17.544  0.00  0.00    +0.000 N 
ATOM     22  H   UNL     1       2.544   5.102  18.096  0.00  0.00    +0.000 HD
BRANCH  21  23
ATOM     23  N   UNL     1       4.158   4.788  16.857  0.00  0.00    +0.000 N 
ATOM     24  H   UNL     1       4.080   4.788  15.840  0.00  0.00    +0.000 HD
BRANCH  23  25
ATOM     25  C   UNL     1       5.182   4.125  17.495  0.00  0.00    +0.000 C 
ATOM     26  S   UNL     1       6.794   4.557  17.412  0.00  0.00    +0.000 S 
BRANCH  25  27
ATOM     27  N   UNL     1       4.791   3.068  18.283  0.00  0.00    +0.000 N 
ATOM     28  H   UNL     1       5.374   2.240  18.238  0.00  0.00    +0.000 HD
BRANCH  27  29
ATOM     29  C   UNL     1       3.589   2.985  19.017  0.00  0.00    +0.000 A 
ATOM     30  C   UNL     1       3.497   3.459  20.335  0.00  0.00    +0.000 A 
ATOM     31  C   UNL     1       2.321   3.306  21.067  0.00  0.00    +0.000 A 
ATOM     32  C   UNL     1       1.225   2.686  20.481  0.00  0.00    +0.000 A 
ATOM     33  C   UNL     1       1.303   2.274  19.154  0.00  0.00    +0.000 A 
ATOM     34  F   UNL     1       0.242   1.680  18.591  0.00  0.00    +0.000 F 
ATOM     35  C   UNL     1       2.466   2.439  18.405  0.00  0.00    +0.000 A 
ENDBRANCH  27  29
ENDBRANCH  25  27
ENDBRANCH  23  25
ENDBRANCH  21  23
ENDBRANCH   1  20
TORSDOF 7
ENDMDL
