MODEL 1
REMARK VINA RESULT:      -7.8      0.000      0.000
REMARK  Name = 
REMARK  7 active torsions:
REMARK  status: ('A' for Active; 'I' for Inactive)
REMARK    1  A    between atoms: C_1  and  C_2
REMARK    2  A    between atoms: C_2  and  C_3
REMARK    3  A    between atoms: C_2  and  C_4
REMARK    4  A    between atoms: C_2  and  C_5
REMARK    5  A    between atoms: C_5  and  O_7
REMARK    6  A    between atoms: O_7  and  N_8
REMARK    7  A    between atoms: N_12  and  C_13
REMARK                            x       y       z     vdW  Elec       q    Type
REMARK                         _______ _______ _______ _____ _____    ______ ____
ROOT
ATOM      1  N   UNL     1       3.870   7.298  16.847  0.00  0.00    +0.000 NA
ATOM      2  C   UNL     1       3.168   7.238  17.933  0.00  0.00    +0.000 C 
ATOM      3  C   UNL     1       2.408   8.467  18.471  0.00  0.00    +0.000 C 
ATOM      4  O   UNL     1       2.360   9.546  17.917  0.00  0.00    +0.000 OA
ATOM      5  N   UNL     1       1.858   8.043  19.672  0.00  0.00    +0.000 N 
ATOM      6  C   UNL     1       2.088   6.676  19.888  0.00  0.00    +0.000 A 
ATOM      7  C   UNL     1       1.557   5.857  20.873  0.00  0.00    +0.000 A 
ATOM      8  C   UNL     1       1.860   4.493  20.835  0.00  0.00    +0.000 A 
ATOM      9  C   UNL     1       2.697   3.972  19.835  0.00  0.00    +0.000 A 
ATOM     10  C   UNL     1       3.224   4.800  18.842  0.00  0.00    +0.000 A 
ATOM     11  C   UNL     1       2.889   6.145  18.873  0.00  0.00    +0.000 A 
ENDROOT
BRANCH   5  12
ATOM     12  C   UNL     1       1.068   8.830  20.526  0.00  0.00    +0.000 A 
ATOM     13  C   UNL     1       0.124   9.713  19.994  0.00  0.00    +0.000 A 
ATOM     14  C   UNL     1      -0.667  10.490  20.845  0.00  0.00    +0.000 A 
ATOM     15  C   UNL     1      -0.483  10.423  22.226  0.00  0.00    +0.000 A 
ATOM     16  C   UNL     1       0.478   9.566  22.761  0.00  0.00    +0.000 A 
ATOM     17  C   UNL     1       1.241   8.758  21.916  0.00  0.00    +0.000 A 
ENDBRANCH   5  12
BRANCH   1  18
ATOM     18  O   UNL     1       4.488   6.077  16.525  0.00  0.00    +0.000 OA
BRANCH  18  19
ATOM     19  C   UNL     1       5.860   6.216  16.511  0.00  0.00    +0.000 C 
ATOM     20  O   UNL     1       6.483   7.255  16.703  0.00  0.00    +0.000 OA
BRANCH  19  22
ATOM     21  C   UNL     1       5.457   3.754  16.237  0.00  0.00    +0.000 C 
ATOM     22  C   UNL     1       6.528   4.859  16.235  0.00  0.00    +0.000 C 
ATOM     23  C   UNL     1       7.564   4.535  17.321  0.00  0.00    +0.000 C 
ATOM     24  C   UNL     1       7.202   4.895  14.857  0.00  0.00    +0.000 C 
ENDBRANCH  19  22
ENDBRANCH  18  19
ENDBRANCH   1  18
TORSDOF 4
ENDMDL
MODEL 2
REMARK VINA RESULT:      -7.8      0.040      1.327
REMARK  Name = 
REMARK  7 active torsions:
REMARK  status: ('A' for Active; 'I' for Inactive)
REMARK    1  A    between atoms: C_1  and  C_2
REMARK    2  A    between atoms: C_2  and  C_3
REMARK    3  A    between atoms: C_2  and  C_4
REMARK    4  A    between atoms: C_2  and  C_5
REMARK    5  A    between atoms: C_5  and  O_7
REMARK    6  A    between atoms: O_7  and  N_8
REMARK    7  A    between atoms: N_12  and  C_13
REMARK                            x       y       z     vdW  Elec       q    Type
REMARK                         _______ _______ _______ _____ _____    ______ ____
ROOT
ATOM      1  N   UNL     1       3.868   7.318  16.858  0.00  0.00    +0.000 NA
ATOM      2  C   UNL     1       3.163   7.254  17.943  0.00  0.00    +0.000 C 
ATOM      3  C   UNL     1       2.418   8.487  18.493  0.00  0.00    +0.000 C 
ATOM      4  O   UNL     1       2.384   9.573  17.952  0.00  0.00    +0.000 OA
ATOM      5  N   UNL     1       1.860   8.056  19.689  0.00  0.00    +0.000 N 
ATOM      6  C   UNL     1       2.073   6.684  19.889  0.00  0.00    +0.000 A 
ATOM      7  C   UNL     1       1.529   5.860  20.864  0.00  0.00    +0.000 A 
ATOM      8  C   UNL     1       1.816   4.493  20.811  0.00  0.00    +0.000 A 
ATOM      9  C   UNL     1       2.648   3.973  19.807  0.00  0.00    +0.000 A 
ATOM     10  C   UNL     1       3.187   4.805  18.824  0.00  0.00    +0.000 A 
ATOM     11  C   UNL     1       2.869   6.154  18.870  0.00  0.00    +0.000 A 
ENDROOT
BRANCH   5  12
ATOM     12  C   UNL     1       1.079   8.843  20.550  0.00  0.00    +0.000 A 
ATOM     13  C   UNL     1       1.253   8.755  21.934  0.00  0.00    +0.000 A 
ATOM     14  C   UNL     1       0.481   9.546  22.789  0.00  0.00    +0.000 A 
ATOM     15  C   UNL     1      -0.501  10.388  22.268  0.00  0.00    +0.000 A 
ATOM     16  C   UNL     1      -0.701  10.458  20.890  0.00  0.00    +0.000 A 
ATOM     17  C   UNL     1       0.098   9.700  20.030  0.00  0.00    +0.000 A 
ENDBRANCH   5  12
BRANCH   1  18
ATOM     18  O   UNL     1       4.471   6.093  16.524  0.00  0.00    +0.000 OA
BRANCH  18  19
ATOM     19  C   UNL     1       5.845   6.212  16.526  0.00  0.00    +0.000 C 
ATOM     20  O   UNL     1       6.482   7.233  16.761  0.00  0.00    +0.000 OA
BRANCH  19  22
ATOM     21  C   UNL     1       7.554   4.531  17.271  0.00  0.00    +0.000 C 
ATOM     22  C   UNL     1       6.496   4.857  16.202  0.00  0.00    +0.000 C 
ATOM     23  C   UNL     1       7.186   4.900  14.833  0.00  0.00    +0.000 C 
ATOM     24  C   UNL     1       5.421   3.760  16.218  0.00  0.00    +0.000 C 
ENDBRANCH  19  22
ENDBRANCH  18  19
ENDBRANCH   1  18
TORSDOF 4
ENDMDL
MODEL 3
REMARK VINA RESULT:      -7.4      1.574      7.010
REMARK  Name = 
REMARK  7 active torsions:
REMARK  status: ('A' for Active; 'I' for Inactive)
REMARK    1  A    between atoms: C_1  and  C_2
REMARK    2  A    between atoms: C_2  and  C_3
REMARK    3  A    between atoms: C_2  and  C_4
REMARK    4  A    between atoms: C_2  and  C_5
REMARK    5  A    between atoms: C_5  and  O_7
REMARK    6  A    between atoms: O_7  and  N_8
REMARK    7  A    between atoms: N_12  and  C_13
REMARK                            x       y       z     vdW  Elec       q    Type
REMARK                         _______ _______ _______ _____ _____    ______ ____
ROOT
ATOM      1  N   UNL     1       1.841   8.256  19.407  0.00  0.00    +0.000 NA
ATOM      2  C   UNL     1       2.476   7.150  19.183  0.00  0.00    +0.000 C 
ATOM      3  C   UNL     1       3.601   7.065  18.132  0.00  0.00    +0.000 C 
ATOM      4  O   UNL     1       4.012   8.004  17.482  0.00  0.00    +0.000 OA
ATOM      5  N   UNL     1       3.971   5.727  18.119  0.00  0.00    +0.000 N 
ATOM      6  C   UNL     1       3.294   4.998  19.108  0.00  0.00    +0.000 A 
ATOM      7  C   UNL     1       3.514   3.692  19.520  0.00  0.00    +0.000 A 
ATOM      8  C   UNL     1       2.770   3.203  20.598  0.00  0.00    +0.000 A 
ATOM      9  C   UNL     1       1.813   4.009  21.233  0.00  0.00    +0.000 A 
ATOM     10  C   UNL     1       1.600   5.325  20.820  0.00  0.00    +0.000 A 
ATOM     11  C   UNL     1       2.367   5.808  19.770  0.00  0.00    +0.000 A 
ENDROOT
BRANCH   5  12
ATOM     12  C   UNL     1       4.974   5.170  17.310  0.00  0.00    +0.000 A 
ATOM     13  C   UNL     1       6.307   5.189  17.730  0.00  0.00    +0.000 A 
ATOM     14  C   UNL     1       7.303   4.627  16.928  0.00  0.00    +0.000 A 
ATOM     15  C   UNL     1       6.978   4.089  15.682  0.00  0.00    +0.000 A 
ATOM     16  C   UNL     1       5.654   4.095  15.244  0.00  0.00    +0.000 A 
ATOM     17  C   UNL     1       4.651   4.618  16.062  0.00  0.00    +0.000 A 
ENDBRANCH   5  12
BRANCH   1  18
ATOM     18  O   UNL     1       0.851   8.129  20.396  0.00  0.00    +0.000 OA
BRANCH  18  19
ATOM     19  C   UNL     1       1.031   9.071  21.388  0.00  0.00    +0.000 C 
ATOM     20  O   UNL     1       1.785   8.972  22.350  0.00  0.00    +0.000 OA
BRANCH  19  22
ATOM     21  C   UNL     1      -0.674  10.630  22.369  0.00  0.00    +0.000 C 
ATOM     22  C   UNL     1       0.155  10.304  21.114  0.00  0.00    +0.000 C 
ATOM     23  C   UNL     1      -0.810  10.035  19.951  0.00  0.00    +0.000 C 
ATOM     24  C   UNL     1       1.054  11.505  20.787  0.00  0.00    +0.000 C 
ENDBRANCH  19  22
ENDBRANCH  18  19
ENDBRANCH   1  18
TORSDOF 4
ENDMDL
MODEL 4
REMARK VINA RESULT:      -7.4      2.954      5.676
REMARK  Name = 
REMARK  7 active torsions:
REMARK  status: ('A' for Active; 'I' for Inactive)
REMARK    1  A    between atoms: C_1  and  C_2
REMARK    2  A    between atoms: C_2  and  C_3
REMARK    3  A    between atoms: C_2  and  C_4
REMARK    4  A    between atoms: C_2  and  C_5
REMARK    5  A    between atoms: C_5  and  O_7
REMARK    6  A    between atoms: O_7  and  N_8
REMARK    7  A    between atoms: N_12  and  C_13
REMARK                            x       y       z     vdW  Elec       q    Type
REMARK                         _______ _______ _______ _____ _____    ______ ____
ROOT
ATOM      1  N   UNL     1       1.229   8.488  21.237  0.00  0.00    +0.000 NA
ATOM      2  C   UNL     1       0.438   9.512  21.176  0.00  0.00    +0.000 C 
ATOM      3  C   UNL     1      -0.016  10.256  22.448  0.00  0.00    +0.000 C 
ATOM      4  O   UNL     1       0.353   9.991  23.573  0.00  0.00    +0.000 OA
ATOM      5  N   UNL     1      -0.907  11.219  21.992  0.00  0.00    +0.000 N 
ATOM      6  C   UNL     1      -0.972  11.236  20.592  0.00  0.00    +0.000 A 
ATOM      7  C   UNL     1      -1.604  12.156  19.769  0.00  0.00    +0.000 A 
ATOM      8  C   UNL     1      -1.455  12.020  18.385  0.00  0.00    +0.000 A 
ATOM      9  C   UNL     1      -0.699  10.967  17.845  0.00  0.00    +0.000 A 
ATOM     10  C   UNL     1      -0.059  10.048  18.678  0.00  0.00    +0.000 A 
ATOM     11  C   UNL     1      -0.189  10.213  20.048  0.00  0.00    +0.000 A 
ENDROOT
BRANCH   5  12
ATOM     12  C   UNL     1      -1.581  12.148  22.801  0.00  0.00    +0.000 A 
ATOM     13  C   UNL     1      -2.866  11.865  23.274  0.00  0.00    +0.000 A 
ATOM     14  C   UNL     1      -3.532  12.787  24.086  0.00  0.00    +0.000 A 
ATOM     15  C   UNL     1      -2.938  14.012  24.387  0.00  0.00    +0.000 A 
ATOM     16  C   UNL     1      -1.669  14.313  23.893  0.00  0.00    +0.000 A 
ATOM     17  C   UNL     1      -0.984  13.377  23.116  0.00  0.00    +0.000 A 
ENDBRANCH   5  12
BRANCH   1  18
ATOM     18  O   UNL     1       1.524   7.947  19.974  0.00  0.00    +0.000 OA
BRANCH  18  19
ATOM     19  C   UNL     1       1.910   6.628  20.089  0.00  0.00    +0.000 C 
ATOM     20  O   UNL     1       1.616   5.866  21.003  0.00  0.00    +0.000 OA
BRANCH  19  22
ATOM     21  C   UNL     1       4.115   5.665  19.372  0.00  0.00    +0.000 C 
ATOM     22  C   UNL     1       2.766   6.218  18.879  0.00  0.00    +0.000 C 
ATOM     23  C   UNL     1       3.038   7.427  17.974  0.00  0.00    +0.000 C 
ATOM     24  C   UNL     1       2.039   5.121  18.089  0.00  0.00    +0.000 C 
ENDBRANCH  19  22
ENDBRANCH  18  19
ENDBRANCH   1  18
TORSDOF 4
ENDMDL
MODEL 5
REMARK VINA RESULT:      -7.4      0.642      1.119
REMARK  Name = 
REMARK  7 active torsions:
REMARK  status: ('A' for Active; 'I' for Inactive)
REMARK    1  A    between atoms: C_1  and  C_2
REMARK    2  A    between atoms: C_2  and  C_3
REMARK    3  A    between atoms: C_2  and  C_4
REMARK    4  A    between atoms: C_2  and  C_5
REMARK    5  A    between atoms: C_5  and  O_7
REMARK    6  A    between atoms: O_7  and  N_8
REMARK    7  A    between atoms: N_12  and  C_13
REMARK                            x       y       z     vdW  Elec       q    Type
REMARK                         _______ _______ _______ _____ _____    ______ ____
ROOT
ATOM      1  N   UNL     1       3.983   7.099  17.065  0.00  0.00    +0.000 NA
ATOM      2  C   UNL     1       3.226   7.070  18.115  0.00  0.00    +0.000 C 
ATOM      3  C   UNL     1       2.474   8.324  18.602  0.00  0.00    +0.000 C 
ATOM      4  O   UNL     1       2.484   9.399  18.038  0.00  0.00    +0.000 OA
ATOM      5  N   UNL     1       1.853   7.928  19.779  0.00  0.00    +0.000 N 
ATOM      6  C   UNL     1       2.035   6.558  20.018  0.00  0.00    +0.000 A 
ATOM      7  C   UNL     1       1.432   5.764  20.982  0.00  0.00    +0.000 A 
ATOM      8  C   UNL     1       1.699   4.391  20.972  0.00  0.00    +0.000 A 
ATOM      9  C   UNL     1       2.570   3.837  20.020  0.00  0.00    +0.000 A 
ATOM     10  C   UNL     1       3.168   4.640  19.047  0.00  0.00    +0.000 A 
ATOM     11  C   UNL     1       2.870   5.994  19.049  0.00  0.00    +0.000 A 
ENDROOT
BRANCH   5  12
ATOM     12  C   UNL     1       1.044   8.745  20.584  0.00  0.00    +0.000 A 
ATOM     13  C   UNL     1       0.082   9.574  20.001  0.00  0.00    +0.000 A 
ATOM     14  C   UNL     1      -0.729  10.380  20.805  0.00  0.00    +0.000 A 
ATOM     15  C   UNL     1      -0.547  10.398  22.188  0.00  0.00    +0.000 A 
ATOM     16  C   UNL     1       0.432   9.596  22.773  0.00  0.00    +0.000 A 
ATOM     17  C   UNL     1       1.215   8.758  21.976  0.00  0.00    +0.000 A 
ENDBRANCH   5  12
BRANCH   1  18
ATOM     18  O   UNL     1       4.582   5.859  16.785  0.00  0.00    +0.000 OA
BRANCH  18  19
ATOM     19  C   UNL     1       5.312   5.924  15.617  0.00  0.00    +0.000 C 
ATOM     20  O   UNL     1       5.285   6.837  14.798  0.00  0.00    +0.000 OA
BRANCH  19  22
ATOM     21  C   UNL     1       7.350   4.755  16.499  0.00  0.00    +0.000 C 
ATOM     22  C   UNL     1       6.202   4.678  15.477  0.00  0.00    +0.000 C 
ATOM     23  C   UNL     1       6.809   4.602  14.069  0.00  0.00    +0.000 C 
ATOM     24  C   UNL     1       5.367   3.422  15.760  0.00  0.00    +0.000 C 
ENDBRANCH  19  22
ENDBRANCH  18  19
ENDBRANCH   1  18
TORSDOF 4
ENDMDL
MODEL 6
REMARK VINA RESULT:      -7.4      2.910      5.559
REMARK  Name = 
REMARK  7 active torsions:
REMARK  status: ('A' for Active; 'I' for Inactive)
REMARK    1  A    between atoms: C_1  and  C_2
REMARK    2  A    between atoms: C_2  and  C_3
REMARK    3  A    between atoms: C_2  and  C_4
REMARK    4  A    between atoms: C_2  and  C_5
REMARK    5  A    between atoms: C_5  and  O_7
REMARK    6  A    between atoms: O_7  and  N_8
REMARK    7  A    between atoms: N_12  and  C_13
REMARK                            x       y       z     vdW  Elec       q    Type
REMARK                         _______ _______ _______ _____ _____    ______ ____
ROOT
ATOM      1  N   UNL     1       1.296   8.470  21.194  0.00  0.00    +0.000 NA
ATOM      2  C   UNL     1       0.489   9.480  21.121  0.00  0.00    +0.000 C 
ATOM      3  C   UNL     1       0.046  10.250  22.381  0.00  0.00    +0.000 C 
ATOM      4  O   UNL     1       0.439  10.019  23.506  0.00  0.00    +0.000 OA
ATOM      5  N   UNL     1      -0.867  11.187  21.918  0.00  0.00    +0.000 N 
ATOM      6  C   UNL     1      -0.958  11.167  20.518  0.00  0.00    +0.000 A 
ATOM      7  C   UNL     1      -1.619  12.056  19.684  0.00  0.00    +0.000 A 
ATOM      8  C   UNL     1      -1.492  11.887  18.301  0.00  0.00    +0.000 A 
ATOM      9  C   UNL     1      -0.730  10.832  17.775  0.00  0.00    +0.000 A 
ATOM     10  C   UNL     1      -0.060   9.944  18.620  0.00  0.00    +0.000 A 
ATOM     11  C   UNL     1      -0.169  10.142  19.987  0.00  0.00    +0.000 A 
ENDROOT
BRANCH   5  12
ATOM     12  C   UNL     1      -1.542  12.126  22.715  0.00  0.00    +0.000 A 
ATOM     13  C   UNL     1      -0.922  13.331  23.057  0.00  0.00    +0.000 A 
ATOM     14  C   UNL     1      -1.597  14.269  23.843  0.00  0.00    +0.000 A 
ATOM     15  C   UNL     1      -2.872  13.984  24.331  0.00  0.00    +0.000 A 
ATOM     16  C   UNL     1      -3.484  12.770  24.019  0.00  0.00    +0.000 A 
ATOM     17  C   UNL     1      -2.828  11.850  23.199  0.00  0.00    +0.000 A 
ENDBRANCH   5  12
BRANCH   1  18
ATOM     18  O   UNL     1       1.578   7.901  19.940  0.00  0.00    +0.000 OA
BRANCH  18  19
ATOM     19  C   UNL     1       1.973   6.587  20.080  0.00  0.00    +0.000 C 
ATOM     20  O   UNL     1       1.688   5.842  21.011  0.00  0.00    +0.000 OA
BRANCH  19  22
ATOM     21  C   UNL     1       2.071   5.086  18.070  0.00  0.00    +0.000 C 
ATOM     22  C   UNL     1       2.827   6.158  18.875  0.00  0.00    +0.000 C 
ATOM     23  C   UNL     1       4.162   5.564  19.342  0.00  0.00    +0.000 C 
ATOM     24  C   UNL     1       3.077   7.373  17.971  0.00  0.00    +0.000 C 
ENDBRANCH  19  22
ENDBRANCH  18  19
ENDBRANCH   1  18
TORSDOF 4
ENDMDL
MODEL 7
REMARK VINA RESULT:      -7.3      2.743      4.840
REMARK  Name = 
REMARK  7 active torsions:
REMARK  status: ('A' for Active; 'I' for Inactive)
REMARK    1  A    between atoms: C_1  and  C_2
REMARK    2  A    between atoms: C_2  and  C_3
REMARK    3  A    between atoms: C_2  and  C_4
REMARK    4  A    between atoms: C_2  and  C_5
REMARK    5  A    between atoms: C_5  and  O_7
REMARK    6  A    between atoms: O_7  and  N_8
REMARK    7  A    between atoms: N_12  and  C_13
REMARK                            x       y       z     vdW  Elec       q    Type
REMARK                         _______ _______ _______ _____ _____    ______ ____
ROOT
ATOM      1  N   UNL     1       2.125   7.755  18.948  0.00  0.00    +0.000 NA
ATOM      2  C   UNL     1       1.640   8.852  19.436  0.00  0.00    +0.000 C 
ATOM      3  C   UNL     1       1.759  10.192  18.681  0.00  0.00    +0.000 C 
ATOM      4  O   UNL     1       2.253  10.323  17.580  0.00  0.00    +0.000 OA
ATOM      5  N   UNL     1       1.211  11.131  19.544  0.00  0.00    +0.000 N 
ATOM      6  C   UNL     1       0.669  10.524  20.686  0.00  0.00    +0.000 A 
ATOM      7  C   UNL     1      -0.108  11.099  21.681  0.00  0.00    +0.000 A 
ATOM      8  C   UNL     1      -0.619  10.270  22.684  0.00  0.00    +0.000 A 
ATOM      9  C   UNL     1      -0.336   8.895  22.691  0.00  0.00    +0.000 A 
ATOM     10  C   UNL     1       0.441   8.321  21.683  0.00  0.00    +0.000 A 
ATOM     11  C   UNL     1       0.914   9.149  20.678  0.00  0.00    +0.000 A 
ENDROOT
BRANCH   5  12
ATOM     12  C   UNL     1       1.097  12.506  19.280  0.00  0.00    +0.000 A 
ATOM     13  C   UNL     1      -0.095  13.026  18.768  0.00  0.00    +0.000 A 
ATOM     14  C   UNL     1      -0.210  14.396  18.515  0.00  0.00    +0.000 A 
ATOM     15  C   UNL     1       0.881  15.240  18.723  0.00  0.00    +0.000 A 
ATOM     16  C   UNL     1       2.083  14.722  19.203  0.00  0.00    +0.000 A 
ATOM     17  C   UNL     1       2.187  13.361  19.498  0.00  0.00    +0.000 A 
ENDBRANCH   5  12
BRANCH   1  18
ATOM     18  O   UNL     1       1.919   6.645  19.784  0.00  0.00    +0.000 OA
BRANCH  18  19
ATOM     19  C   UNL     1       2.847   5.659  19.521  0.00  0.00    +0.000 C 
ATOM     20  O   UNL     1       4.066   5.796  19.517  0.00  0.00    +0.000 OA
BRANCH  19  22
ATOM     21  C   UNL     1       3.137   3.168  19.424  0.00  0.00    +0.000 C 
ATOM     22  C   UNL     1       2.138   4.324  19.241  0.00  0.00    +0.000 C 
ATOM     23  C   UNL     1       1.607   4.284  17.801  0.00  0.00    +0.000 C 
ATOM     24  C   UNL     1       0.982   4.143  20.235  0.00  0.00    +0.000 C 
ENDBRANCH  19  22
ENDBRANCH  18  19
ENDBRANCH   1  18
TORSDOF 4
ENDMDL
MODEL 8
REMARK VINA RESULT:      -7.3      2.763      4.901
REMARK  Name = 
REMARK  7 active torsions:
REMARK  status: ('A' for Active; 'I' for Inactive)
REMARK    1  A    between atoms: C_1  and  C_2
REMARK    2  A    between atoms: C_2  and  C_3
REMARK    3  A    between atoms: C_2  and  C_4
REMARK    4  A    between atoms: C_2  and  C_5
REMARK    5  A    between atoms: C_5  and  O_7
REMARK    6  A    between atoms: O_7  and  N_8
REMARK    7  A    between atoms: N_12  and  C_13
REMARK                            x       y       z     vdW  Elec       q    Type
REMARK                         _______ _______ _______ _____ _____    ______ ____
ROOT
ATOM      1  N   UNL     1       2.105   7.803  18.968  0.00  0.00    +0.000 NA
ATOM      2  C   UNL     1       1.616   8.899  19.454  0.00  0.00    +0.000 C 
ATOM      3  C   UNL     1       1.717  10.234  18.691  0.00  0.00    +0.000 C 
ATOM      4  O   UNL     1       2.201  10.363  17.585  0.00  0.00    +0.000 OA
ATOM      5  N   UNL     1       1.169  11.175  19.552  0.00  0.00    +0.000 N 
ATOM      6  C   UNL     1       0.640  10.570  20.702  0.00  0.00    +0.000 A 
ATOM      7  C   UNL     1      -0.133  11.144  21.700  0.00  0.00    +0.000 A 
ATOM      8  C   UNL     1      -0.629  10.317  22.713  0.00  0.00    +0.000 A 
ATOM      9  C   UNL     1      -0.334   8.944  22.725  0.00  0.00    +0.000 A 
ATOM     10  C   UNL     1       0.439   8.371  21.715  0.00  0.00    +0.000 A 
ATOM     11  C   UNL     1       0.897   9.196  20.700  0.00  0.00    +0.000 A 
ENDROOT
BRANCH   5  12
ATOM     12  C   UNL     1       1.041  12.547  19.281  0.00  0.00    +0.000 A 
ATOM     13  C   UNL     1       2.108  13.414  19.533  0.00  0.00    +0.000 A 
ATOM     14  C   UNL     1       1.983  14.778  19.255  0.00  0.00    +0.000 A 
ATOM     15  C   UNL     1       0.777  15.286  18.772  0.00  0.00    +0.000 A 
ATOM     16  C   UNL     1      -0.301  14.430  18.547  0.00  0.00    +0.000 A 
ATOM     17  C   UNL     1      -0.165  13.061  18.784  0.00  0.00    +0.000 A 
ENDBRANCH   5  12
BRANCH   1  18
ATOM     18  O   UNL     1       1.915   6.696  19.813  0.00  0.00    +0.000 OA
BRANCH  18  19
ATOM     19  C   UNL     1       2.834   5.706  19.531  0.00  0.00    +0.000 C 
ATOM     20  O   UNL     1       4.045   5.856  19.417  0.00  0.00    +0.000 OA
BRANCH  19  22
ATOM     21  C   UNL     1       1.568   4.206  17.967  0.00  0.00    +0.000 C 
ATOM     22  C   UNL     1       2.126   4.348  19.394  0.00  0.00    +0.000 C 
ATOM     23  C   UNL     1       0.959   4.243  20.385  0.00  0.00    +0.000 C 
ATOM     24  C   UNL     1       3.136   3.220  19.646  0.00  0.00    +0.000 C 
ENDBRANCH  19  22
ENDBRANCH  18  19
ENDBRANCH   1  18
TORSDOF 4
ENDMDL
MODEL 9
REMARK VINA RESULT:      -7.3      1.062      1.425
REMARK  Name = 
REMARK  7 active torsions:
REMARK  status: ('A' for Active; 'I' for Inactive)
REMARK    1  A    between atoms: C_1  and  C_2
REMARK    2  A    between atoms: C_2  and  C_3
REMARK    3  A    between atoms: C_2  and  C_4
REMARK    4  A    between atoms: C_2  and  C_5
REMARK    5  A    between atoms: C_5  and  O_7
REMARK    6  A    between atoms: O_7  and  N_8
REMARK    7  A    between atoms: N_12  and  C_13
REMARK                            x       y       z     vdW  Elec       q    Type
REMARK                         _______ _______ _______ _____ _____    ______ ____
ROOT
ATOM      1  N   UNL     1       4.121   7.593  16.995  0.00  0.00    +0.000 NA
ATOM      2  C   UNL     1       3.240   7.721  17.935  0.00  0.00    +0.000 C 
ATOM      3  C   UNL     1       2.364   8.985  18.052  0.00  0.00    +0.000 C 
ATOM      4  O   UNL     1       2.385   9.915  17.273  0.00  0.00    +0.000 OA
ATOM      5  N   UNL     1       1.622   8.793  19.210  0.00  0.00    +0.000 N 
ATOM      6  C   UNL     1       1.849   7.522  19.759  0.00  0.00    +0.000 A 
ATOM      7  C   UNL     1       1.174   6.900  20.799  0.00  0.00    +0.000 A 
ATOM      8  C   UNL     1       1.517   5.582  21.116  0.00  0.00    +0.000 A 
ATOM      9  C   UNL     1       2.531   4.915  20.410  0.00  0.00    +0.000 A 
ATOM     10  C   UNL     1       3.201   5.544  19.360  0.00  0.00    +0.000 A 
ATOM     11  C   UNL     1       2.830   6.839  19.035  0.00  0.00    +0.000 A 
ENDROOT
BRANCH   5  12
ATOM     12  C   UNL     1       0.673   9.691  19.724  0.00  0.00    +0.000 A 
ATOM     13  C   UNL     1      -0.427  10.069  18.950  0.00  0.00    +0.000 A 
ATOM     14  C   UNL     1      -1.375  10.956  19.466  0.00  0.00    +0.000 A 
ATOM     15  C   UNL     1      -1.201  11.507  20.736  0.00  0.00    +0.000 A 
ATOM     16  C   UNL     1      -0.089  11.157  21.501  0.00  0.00    +0.000 A 
ATOM     17  C   UNL     1       0.838  10.238  21.004  0.00  0.00    +0.000 A 
ENDBRANCH   5  12
BRANCH   1  18
ATOM     18  O   UNL     1       4.819   6.375  17.059  0.00  0.00    +0.000 OA
BRANCH  18  19
ATOM     19  C   UNL     1       5.283   6.014  15.811  0.00  0.00    +0.000 C 
ATOM     20  O   UNL     1       5.307   6.728  14.815  0.00  0.00    +0.000 OA
BRANCH  19  22
ATOM     21  C   UNL     1       5.986   4.068  14.391  0.00  0.00    +0.000 C 
ATOM     22  C   UNL     1       5.798   4.565  15.835  0.00  0.00    +0.000 C 
ATOM     23  C   UNL     1       4.792   3.645  16.539  0.00  0.00    +0.000 C 
ATOM     24  C   UNL     1       7.152   4.518  16.557  0.00  0.00    +0.000 C 
ENDBRANCH  19  22
ENDBRANCH  18  19
ENDBRANCH   1  18
TORSDOF 4
ENDMDL
