MODEL 1
REMARK VINA RESULT:      -8.0      0.000      0.000
REMARK  Name = 
REMARK  11 active torsions:
REMARK  status: ('A' for Active; 'I' for Inactive)
REMARK    1  A    between atoms: C_1  and  C_2
REMARK    2  A    between atoms: C_2  and  O_3
REMARK    3  A    between atoms: O_3  and  C_4
REMARK    4  A    between atoms: C_4  and  C_6
REMARK    5  A    between atoms: C_6  and  S_7
REMARK    6  A    between atoms: S_7  and  C_8
REMARK    7  A    between atoms: C_12  and  C_13
REMARK    8  A    between atoms: N_15  and  C_16
REMARK    9  A    between atoms: C_16  and  C_17
REMARK   10  A    between atoms: N_27  and  C_28
REMARK   11  A    between atoms: C_28  and  C_29
REMARK                            x       y       z     vdW  Elec       q    Type
REMARK                         _______ _______ _______ _____ _____    ______ ____
ROOT
ATOM      1  C   UNL     1       2.504   6.470  19.840  0.00  0.00    +0.000 A 
ATOM      2  N   UNL     1       1.884   7.136  20.758  0.00  0.00    +0.000 NA
ATOM      3  C   UNL     1       1.425   8.417  20.472  0.00  0.00    +0.000 A 
ATOM      4  C   UNL     1       0.723   9.105  21.461  0.00  0.00    +0.000 A 
ATOM      5  C   UNL     1       0.214  10.385  21.215  0.00  0.00    +0.000 A 
ATOM      6  C   UNL     1       0.383  10.971  19.954  0.00  0.00    +0.000 A 
ATOM      7  C   UNL     1       1.092  10.284  18.962  0.00  0.00    +0.000 A 
ATOM      8  C   UNL     1       1.618   9.015  19.235  0.00  0.00    +0.000 A 
ATOM      9  C   UNL     1       2.384   8.258  18.228  0.00  0.00    +0.000 A 
ATOM     10  O   UNL     1       2.605   8.786  17.140  0.00  0.00    +0.000 OA
ATOM     11  N   UNL     1       2.801   6.974  18.583  0.00  0.00    +0.000 N 
ENDROOT
BRANCH   5  12
ATOM     12  C   UNL     1      -0.515  11.050  22.325  0.00  0.00    +0.000 C 
ATOM     13  O   UNL     1      -0.652  10.472  23.397  0.00  0.00    +0.000 OA
ATOM     14  N   UNL     1      -0.978  12.322  22.083  0.00  0.00    +0.000 N 
ATOM     15  H   UNL     1      -0.815  12.785  21.200  0.00  0.00    +0.000 HD
BRANCH  14  16
ATOM     16  C   UNL     1      -1.685  13.092  23.096  0.00  0.00    +0.000 C 
BRANCH  16  17
ATOM     17  C   UNL     1      -3.197  12.887  23.014  0.00  0.00    +0.000 C 
ATOM     18  C   UNL     1      -4.021  14.142  23.272  0.00  0.00    +0.000 C 
ATOM     19  C   UNL     1      -5.285  13.575  23.865  0.00  0.00    +0.000 C 
ATOM     20  C   UNL     1      -4.765  12.408  24.675  0.00  0.00    +0.000 C 
ATOM     21  O   UNL     1      -3.609  11.907  23.992  0.00  0.00    +0.000 OA
ENDBRANCH  16  17
ENDBRANCH  14  16
ENDBRANCH   5  12
BRANCH   1  22
ATOM     22  S   UNL     1       2.979   4.832  20.270  0.00  0.00    +0.000 S 
BRANCH  22  23
ATOM     23  C   UNL     1       1.325   4.117  20.617  0.00  0.00    +0.000 C 
BRANCH  23  24
ATOM     24  C   UNL     1       1.416   2.677  21.082  0.00  0.00    +0.000 C 
ATOM     25  O   UNL     1       1.273   2.283  22.236  0.00  0.00    +0.000 OA
BRANCH  24  26
ATOM     26  O   UNL     1       1.735   1.873  20.026  0.00  0.00    +0.000 OA
BRANCH  26  28
ATOM     27  C   UNL     1       2.293   2.188  17.727  0.00  0.00    +0.000 C 
ATOM     28  C   UNL     1       1.187   2.282  18.761  0.00  0.00    +0.000 C 
ENDBRANCH  26  28
ENDBRANCH  24  26
ENDBRANCH  23  24
ENDBRANCH  22  23
ENDBRANCH   1  22
BRANCH  11  29
ATOM     29  C   UNL     1       3.480   6.217  17.533  0.00  0.00    +0.000 C 
BRANCH  29  30
ATOM     30  C   UNL     1       4.968   6.270  17.678  0.00  0.00    +0.000 A 
ATOM     31  C   UNL     1       5.879   5.559  18.429  0.00  0.00    +0.000 A 
ATOM     32  C   UNL     1       7.135   6.194  18.251  0.00  0.00    +0.000 A 
ATOM     33  C   UNL     1       6.913   7.233  17.377  0.00  0.00    +0.000 A 
ATOM     34  O   UNL     1       5.604   7.285  17.023  0.00  0.00    +0.000 OA
ENDBRANCH  29  30
ENDBRANCH  11  29
TORSDOF 10
ENDMDL
MODEL 2
REMARK VINA RESULT:      -8.0      0.963      1.221
REMARK  Name = 
REMARK  11 active torsions:
REMARK  status: ('A' for Active; 'I' for Inactive)
REMARK    1  A    between atoms: C_1  and  C_2
REMARK    2  A    between atoms: C_2  and  O_3
REMARK    3  A    between atoms: O_3  and  C_4
REMARK    4  A    between atoms: C_4  and  C_6
REMARK    5  A    between atoms: C_6  and  S_7
REMARK    6  A    between atoms: S_7  and  C_8
REMARK    7  A    between atoms: C_12  and  C_13
REMARK    8  A    between atoms: N_15  and  C_16
REMARK    9  A    between atoms: C_16  and  C_17
REMARK   10  A    between atoms: N_27  and  C_28
REMARK   11  A    between atoms: C_28  and  C_29
REMARK                            x       y       z     vdW  Elec       q    Type
REMARK                         _______ _______ _______ _____ _____    ______ ____
ROOT
ATOM      1  C   UNL     1       2.109   6.467  20.112  0.00  0.00    +0.000 A 
ATOM      2  N   UNL     1       1.478   7.249  20.924  0.00  0.00    +0.000 NA
ATOM      3  C   UNL     1       1.141   8.532  20.505  0.00  0.00    +0.000 A 
ATOM      4  C   UNL     1       0.425   9.348  21.379  0.00  0.00    +0.000 A 
ATOM      5  C   UNL     1       0.037  10.637  20.996  0.00  0.00    +0.000 A 
ATOM      6  C   UNL     1       0.342  11.103  19.711  0.00  0.00    +0.000 A 
ATOM      7  C   UNL     1       1.066  10.287  18.833  0.00  0.00    +0.000 A 
ATOM      8  C   UNL     1       1.470   9.010  19.244  0.00  0.00    +0.000 A 
ATOM      9  C   UNL     1       2.246   8.119  18.363  0.00  0.00    +0.000 A 
ATOM     10  O   UNL     1       2.586   8.539  17.258  0.00  0.00    +0.000 OA
ATOM     11  N   UNL     1       2.535   6.843  18.847  0.00  0.00    +0.000 N 
ENDROOT
BRANCH   5  12
ATOM     12  C   UNL     1      -0.717  11.442  21.991  0.00  0.00    +0.000 C 
ATOM     13  O   UNL     1      -0.514  11.278  23.188  0.00  0.00    +0.000 OA
ATOM     14  N   UNL     1      -1.600  12.371  21.490  0.00  0.00    +0.000 N 
ATOM     15  H   UNL     1      -1.715  12.507  20.495  0.00  0.00    +0.000 HD
BRANCH  14  16
ATOM     16  C   UNL     1      -2.379  13.240  22.357  0.00  0.00    +0.000 C 
BRANCH  16  17
ATOM     17  C   UNL     1      -3.735  12.627  22.708  0.00  0.00    +0.000 C 
ATOM     18  C   UNL     1      -4.875  13.631  22.817  0.00  0.00    +0.000 C 
ATOM     19  C   UNL     1      -5.777  12.977  23.832  0.00  0.00    +0.000 C 
ATOM     20  C   UNL     1      -4.786  12.323  24.769  0.00  0.00    +0.000 C 
ATOM     21  O   UNL     1      -3.648  11.951  23.981  0.00  0.00    +0.000 OA
ENDBRANCH  16  17
ENDBRANCH  14  16
ENDBRANCH   5  12
BRANCH   1  22
ATOM     22  S   UNL     1       2.423   4.840  20.703  0.00  0.00    +0.000 S 
BRANCH  22  23
ATOM     23  C   UNL     1       0.848   4.032  20.219  0.00  0.00    +0.000 C 
BRANCH  23  24
ATOM     24  C   UNL     1       1.082   2.781  19.395  0.00  0.00    +0.000 C 
ATOM     25  O   UNL     1       0.336   2.343  18.525  0.00  0.00    +0.000 OA
BRANCH  24  26
ATOM     26  O   UNL     1       2.235   2.174  19.800  0.00  0.00    +0.000 OA
BRANCH  26  28
ATOM     27  C   UNL     1       3.725   1.208  18.205  0.00  0.00    +0.000 C 
ATOM     28  C   UNL     1       3.391   2.460  18.993  0.00  0.00    +0.000 C 
ENDBRANCH  26  28
ENDBRANCH  24  26
ENDBRANCH  23  24
ENDBRANCH  22  23
ENDBRANCH   1  22
BRANCH  11  29
ATOM     29  C   UNL     1       3.228   5.955  17.915  0.00  0.00    +0.000 C 
BRANCH  29  30
ATOM     30  C   UNL     1       4.712   6.124  17.979  0.00  0.00    +0.000 A 
ATOM     31  C   UNL     1       5.636   6.761  17.177  0.00  0.00    +0.000 A 
ATOM     32  C   UNL     1       6.916   6.422  17.685  0.00  0.00    +0.000 A 
ATOM     33  C   UNL     1       6.689   5.626  18.784  0.00  0.00    +0.000 A 
ATOM     34  O   UNL     1       5.357   5.442  18.971  0.00  0.00    +0.000 OA
ENDBRANCH  29  30
ENDBRANCH  11  29
TORSDOF 10
ENDMDL
MODEL 3
REMARK VINA RESULT:      -7.9      3.101      5.670
REMARK  Name = 
REMARK  11 active torsions:
REMARK  status: ('A' for Active; 'I' for Inactive)
REMARK    1  A    between atoms: C_1  and  C_2
REMARK    2  A    between atoms: C_2  and  O_3
REMARK    3  A    between atoms: O_3  and  C_4
REMARK    4  A    between atoms: C_4  and  C_6
REMARK    5  A    between atoms: C_6  and  S_7
REMARK    6  A    between atoms: S_7  and  C_8
REMARK    7  A    between atoms: C_12  and  C_13
REMARK    8  A    between atoms: N_15  and  C_16
REMARK    9  A    between atoms: C_16  and  C_17
REMARK   10  A    between atoms: N_27  and  C_28
REMARK   11  A    between atoms: C_28  and  C_29
REMARK                            x       y       z     vdW  Elec       q    Type
REMARK                         _______ _______ _______ _____ _____    ______ ____
ROOT
ATOM      1  C   UNL     1       3.817   6.725  17.892  0.00  0.00    +0.000 A 
ATOM      2  N   UNL     1       3.089   7.785  17.764  0.00  0.00    +0.000 NA
ATOM      3  C   UNL     1       2.203   8.124  18.781  0.00  0.00    +0.000 A 
ATOM      4  C   UNL     1       1.454   9.293  18.645  0.00  0.00    +0.000 A 
ATOM      5  C   UNL     1       0.570   9.695  19.652  0.00  0.00    +0.000 A 
ATOM      6  C   UNL     1       0.455   8.935  20.822  0.00  0.00    +0.000 A 
ATOM      7  C   UNL     1       1.202   7.758  20.959  0.00  0.00    +0.000 A 
ATOM      8  C   UNL     1       2.062   7.357  19.929  0.00  0.00    +0.000 A 
ATOM      9  C   UNL     1       2.858   6.120  20.018  0.00  0.00    +0.000 A 
ATOM     10  O   UNL     1       2.716   5.402  21.007  0.00  0.00    +0.000 OA
ATOM     11  N   UNL     1       3.734   5.852  18.966  0.00  0.00    +0.000 N 
ENDROOT
BRANCH   5  12
ATOM     12  C   UNL     1      -0.194  10.949  19.423  0.00  0.00    +0.000 C 
ATOM     13  O   UNL     1       0.405  12.006  19.266  0.00  0.00    +0.000 OA
ATOM     14  N   UNL     1      -1.563  10.835  19.370  0.00  0.00    +0.000 N 
ATOM     15  H   UNL     1      -2.024   9.941  19.466  0.00  0.00    +0.000 HD
BRANCH  14  16
ATOM     16  C   UNL     1      -2.424  11.983  19.127  0.00  0.00    +0.000 C 
BRANCH  16  17
ATOM     17  C   UNL     1      -3.217  11.834  17.828  0.00  0.00    +0.000 C 
ATOM     18  C   UNL     1      -4.108  10.600  17.769  0.00  0.00    +0.000 C 
ATOM     19  C   UNL     1      -4.131  10.296  16.292  0.00  0.00    +0.000 C 
ATOM     20  C   UNL     1      -2.728  10.669  15.866  0.00  0.00    +0.000 C 
ATOM     21  O   UNL     1      -2.307  11.748  16.710  0.00  0.00    +0.000 OA
ENDBRANCH  16  17
ENDBRANCH  14  16
ENDBRANCH   5  12
BRANCH   1  22
ATOM     22  S   UNL     1       4.961   6.420  16.591  0.00  0.00    +0.000 S 
BRANCH  22  23
ATOM     23  C   UNL     1       6.320   7.536  17.114  0.00  0.00    +0.000 C 
BRANCH  23  24
ATOM     24  C   UNL     1       7.482   6.771  17.717  0.00  0.00    +0.000 C 
ATOM     25  O   UNL     1       7.701   5.571  17.582  0.00  0.00    +0.000 OA
BRANCH  24  26
ATOM     26  O   UNL     1       8.235   7.610  18.487  0.00  0.00    +0.000 OA
BRANCH  26  28
ATOM     27  C   UNL     1       9.101   9.765  19.035  0.00  0.00    +0.000 C 
ATOM     28  C   UNL     1       8.292   8.972  18.027  0.00  0.00    +0.000 C 
ENDBRANCH  26  28
ENDBRANCH  24  26
ENDBRANCH  23  24
ENDBRANCH  22  23
ENDBRANCH   1  22
BRANCH  11  29
ATOM     29  C   UNL     1       4.572   4.665  19.128  0.00  0.00    +0.000 C 
BRANCH  29  30
ATOM     30  C   UNL     1       3.911   3.436  18.590  0.00  0.00    +0.000 A 
ATOM     31  C   UNL     1       2.917   3.216  17.661  0.00  0.00    +0.000 A 
ATOM     32  C   UNL     1       2.615   1.830  17.709  0.00  0.00    +0.000 A 
ATOM     33  C   UNL     1       3.468   1.290  18.643  0.00  0.00    +0.000 A 
ATOM     34  O   UNL     1       4.258   2.254  19.181  0.00  0.00    +0.000 OA
ENDBRANCH  29  30
ENDBRANCH  11  29
TORSDOF 10
ENDMDL
MODEL 4
REMARK VINA RESULT:      -7.8      3.186      5.547
REMARK  Name = 
REMARK  11 active torsions:
REMARK  status: ('A' for Active; 'I' for Inactive)
REMARK    1  A    between atoms: C_1  and  C_2
REMARK    2  A    between atoms: C_2  and  O_3
REMARK    3  A    between atoms: O_3  and  C_4
REMARK    4  A    between atoms: C_4  and  C_6
REMARK    5  A    between atoms: C_6  and  S_7
REMARK    6  A    between atoms: S_7  and  C_8
REMARK    7  A    between atoms: C_12  and  C_13
REMARK    8  A    between atoms: N_15  and  C_16
REMARK    9  A    between atoms: C_16  and  C_17
REMARK   10  A    between atoms: N_27  and  C_28
REMARK   11  A    between atoms: C_28  and  C_29
REMARK                            x       y       z     vdW  Elec       q    Type
REMARK                         _______ _______ _______ _____ _____    ______ ____
ROOT
ATOM      1  C   UNL     1       3.763   6.851  17.910  0.00  0.00    +0.000 A 
ATOM      2  N   UNL     1       3.049   7.920  17.780  0.00  0.00    +0.000 NA
ATOM      3  C   UNL     1       2.142   8.254  18.780  0.00  0.00    +0.000 A 
ATOM      4  C   UNL     1       1.409   9.432  18.643  0.00  0.00    +0.000 A 
ATOM      5  C   UNL     1       0.504   9.829  19.634  0.00  0.00    +0.000 A 
ATOM      6  C   UNL     1       0.355   9.054  20.791  0.00  0.00    +0.000 A 
ATOM      7  C   UNL     1       1.086   7.868  20.928  0.00  0.00    +0.000 A 
ATOM      8  C   UNL     1       1.966   7.472  19.913  0.00  0.00    +0.000 A 
ATOM      9  C   UNL     1       2.748   6.226  20.004  0.00  0.00    +0.000 A 
ATOM     10  O   UNL     1       2.575   5.496  20.978  0.00  0.00    +0.000 OA
ATOM     11  N   UNL     1       3.646   5.964  18.969  0.00  0.00    +0.000 N 
ENDROOT
BRANCH   5  12
ATOM     12  C   UNL     1      -0.241  11.094  19.405  0.00  0.00    +0.000 C 
ATOM     13  O   UNL     1      -1.253  11.331  20.054  0.00  0.00    +0.000 OA
ATOM     14  N   UNL     1       0.285  11.959  18.475  0.00  0.00    +0.000 N 
ATOM     15  H   UNL     1       1.143  11.750  17.984  0.00  0.00    +0.000 HD
BRANCH  14  16
ATOM     16  C   UNL     1      -0.334  13.241  18.177  0.00  0.00    +0.000 C 
BRANCH  16  17
ATOM     17  C   UNL     1       0.363  14.392  18.903  0.00  0.00    +0.000 C 
ATOM     18  C   UNL     1       1.869  14.225  19.055  0.00  0.00    +0.000 C 
ATOM     19  C   UNL     1       2.144  14.971  20.336  0.00  0.00    +0.000 C 
ATOM     20  C   UNL     1       0.909  14.668  21.155  0.00  0.00    +0.000 C 
ATOM     21  O   UNL     1      -0.180  14.527  20.235  0.00  0.00    +0.000 OA
ENDBRANCH  16  17
ENDBRANCH  14  16
ENDBRANCH   5  12
BRANCH   1  22
ATOM     22  S   UNL     1       4.935   6.552  16.632  0.00  0.00    +0.000 S 
BRANCH  22  23
ATOM     23  C   UNL     1       6.300   7.632  17.214  0.00  0.00    +0.000 C 
BRANCH  23  24
ATOM     24  C   UNL     1       7.445   6.831  17.802  0.00  0.00    +0.000 C 
ATOM     25  O   UNL     1       7.559   5.610  17.773  0.00  0.00    +0.000 OA
BRANCH  24  26
ATOM     26  O   UNL     1       8.322   7.673  18.423  0.00  0.00    +0.000 OA
BRANCH  26  28
ATOM     27  C   UNL     1       9.065   9.870  18.986  0.00  0.00    +0.000 C 
ATOM     28  C   UNL     1       8.243   9.048  18.011  0.00  0.00    +0.000 C 
ENDBRANCH  26  28
ENDBRANCH  24  26
ENDBRANCH  23  24
ENDBRANCH  22  23
ENDBRANCH   1  22
BRANCH  11  29
ATOM     29  C   UNL     1       4.468   4.766  19.133  0.00  0.00    +0.000 C 
BRANCH  29  30
ATOM     30  C   UNL     1       3.804   3.550  18.571  0.00  0.00    +0.000 A 
ATOM     31  C   UNL     1       2.775   3.353  17.675  0.00  0.00    +0.000 A 
ATOM     32  C   UNL     1       2.496   1.961  17.676  0.00  0.00    +0.000 A 
ATOM     33  C   UNL     1       3.397   1.397  18.549  0.00  0.00    +0.000 A 
ATOM     34  O   UNL     1       4.194   2.350  19.095  0.00  0.00    +0.000 OA
ENDBRANCH  29  30
ENDBRANCH  11  29
TORSDOF 10
ENDMDL
MODEL 5
REMARK VINA RESULT:      -7.8      1.006      1.300
REMARK  Name = 
REMARK  11 active torsions:
REMARK  status: ('A' for Active; 'I' for Inactive)
REMARK    1  A    between atoms: C_1  and  C_2
REMARK    2  A    between atoms: C_2  and  O_3
REMARK    3  A    between atoms: O_3  and  C_4
REMARK    4  A    between atoms: C_4  and  C_6
REMARK    5  A    between atoms: C_6  and  S_7
REMARK    6  A    between atoms: S_7  and  C_8
REMARK    7  A    between atoms: C_12  and  C_13
REMARK    8  A    between atoms: N_15  and  C_16
REMARK    9  A    between atoms: C_16  and  C_17
REMARK   10  A    between atoms: N_27  and  C_28
REMARK   11  A    between atoms: C_28  and  C_29
REMARK                            x       y       z     vdW  Elec       q    Type
REMARK                         _______ _______ _______ _____ _____    ______ ____
ROOT
ATOM      1  C   UNL     1       2.249   6.340  19.956  0.00  0.00    +0.000 A 
ATOM      2  N   UNL     1       1.608   7.059  20.818  0.00  0.00    +0.000 NA
ATOM      3  C   UNL     1       1.240   8.356  20.478  0.00  0.00    +0.000 A 
ATOM      4  C   UNL     1       0.514   9.103  21.405  0.00  0.00    +0.000 A 
ATOM      5  C   UNL     1       0.095  10.403  21.101  0.00  0.00    +0.000 A 
ATOM      6  C   UNL     1       0.378  10.951  19.844  0.00  0.00    +0.000 A 
ATOM      7  C   UNL     1       1.112  10.205  18.914  0.00  0.00    +0.000 A 
ATOM      8  C   UNL     1       1.548   8.915  19.246  0.00  0.00    +0.000 A 
ATOM      9  C   UNL     1       2.335   8.095  18.307  0.00  0.00    +0.000 A 
ATOM     10  O   UNL     1       2.656   8.587  17.226  0.00  0.00    +0.000 OA
ATOM     11  N   UNL     1       2.656   6.799  18.712  0.00  0.00    +0.000 N 
ENDROOT
BRANCH   5  12
ATOM     12  C   UNL     1      -0.669  11.131  22.148  0.00  0.00    +0.000 C 
ATOM     13  O   UNL     1      -0.415  10.939  23.331  0.00  0.00    +0.000 OA
ATOM     14  N   UNL     1      -1.618  12.023  21.709  0.00  0.00    +0.000 N 
ATOM     15  H   UNL     1      -1.776  12.186  20.724  0.00  0.00    +0.000 HD
BRANCH  14  16
ATOM     16  C   UNL     1      -2.415  12.818  22.631  0.00  0.00    +0.000 C 
BRANCH  16  17
ATOM     17  C   UNL     1      -3.913  12.652  22.378  0.00  0.00    +0.000 C 
ATOM     18  C   UNL     1      -4.370  13.068  20.986  0.00  0.00    +0.000 C 
ATOM     19  C   UNL     1      -5.785  13.523  21.240  0.00  0.00    +0.000 C 
ATOM     20  C   UNL     1      -5.676  14.163  22.605  0.00  0.00    +0.000 C 
ATOM     21  O   UNL     1      -4.657  13.454  23.321  0.00  0.00    +0.000 OA
ENDBRANCH  16  17
ENDBRANCH  14  16
ENDBRANCH   5  12
BRANCH   1  22
ATOM     22  S   UNL     1       2.603   4.689  20.447  0.00  0.00    +0.000 S 
BRANCH  22  23
ATOM     23  C   UNL     1       0.988   3.905  20.066  0.00  0.00    +0.000 C 
BRANCH  23  24
ATOM     24  C   UNL     1       1.151   2.638  19.250  0.00  0.00    +0.000 C 
ATOM     25  O   UNL     1       0.315   2.158  18.491  0.00  0.00    +0.000 OA
BRANCH  24  26
ATOM     26  O   UNL     1       2.362   2.070  19.522  0.00  0.00    +0.000 OA
BRANCH  26  28
ATOM     27  C   UNL     1       3.754   2.502  17.631  0.00  0.00    +0.000 C 
ATOM     28  C   UNL     1       3.002   1.433  18.402  0.00  0.00    +0.000 C 
ENDBRANCH  26  28
ENDBRANCH  24  26
ENDBRANCH  23  24
ENDBRANCH  22  23
ENDBRANCH   1  22
BRANCH  11  29
ATOM     29  C   UNL     1       3.360   5.984  17.724  0.00  0.00    +0.000 C 
BRANCH  29  30
ATOM     30  C   UNL     1       4.844   6.064  17.887  0.00  0.00    +0.000 A 
ATOM     31  C   UNL     1       5.740   5.493  18.765  0.00  0.00    +0.000 A 
ATOM     32  C   UNL     1       7.000   6.092  18.508  0.00  0.00    +0.000 A 
ATOM     33  C   UNL     1       6.796   6.967  17.466  0.00  0.00    +0.000 A 
ATOM     34  O   UNL     1       5.494   6.956  17.082  0.00  0.00    +0.000 OA
ENDBRANCH  29  30
ENDBRANCH  11  29
TORSDOF 10
ENDMDL
MODEL 6
REMARK VINA RESULT:      -7.8      1.502      1.846
REMARK  Name = 
REMARK  11 active torsions:
REMARK  status: ('A' for Active; 'I' for Inactive)
REMARK    1  A    between atoms: C_1  and  C_2
REMARK    2  A    between atoms: C_2  and  O_3
REMARK    3  A    between atoms: O_3  and  C_4
REMARK    4  A    between atoms: C_4  and  C_6
REMARK    5  A    between atoms: C_6  and  S_7
REMARK    6  A    between atoms: S_7  and  C_8
REMARK    7  A    between atoms: C_12  and  C_13
REMARK    8  A    between atoms: N_15  and  C_16
REMARK    9  A    between atoms: C_16  and  C_17
REMARK   10  A    between atoms: N_27  and  C_28
REMARK   11  A    between atoms: C_28  and  C_29
REMARK                            x       y       z     vdW  Elec       q    Type
REMARK                         _______ _______ _______ _____ _____    ______ ____
ROOT
ATOM      1  C   UNL     1       2.320   6.392  19.907  0.00  0.00    +0.000 A 
ATOM      2  N   UNL     1       1.641   7.101  20.747  0.00  0.00    +0.000 NA
ATOM      3  C   UNL     1       1.246   8.385  20.386  0.00  0.00    +0.000 A 
ATOM      4  C   UNL     1       0.480   9.121  21.289  0.00  0.00    +0.000 A 
ATOM      5  C   UNL     1       0.034  10.407  20.964  0.00  0.00    +0.000 A 
ATOM      6  C   UNL     1       0.331  10.950  19.708  0.00  0.00    +0.000 A 
ATOM      7  C   UNL     1       1.106  10.215  18.802  0.00  0.00    +0.000 A 
ATOM      8  C   UNL     1       1.568   8.941  19.156  0.00  0.00    +0.000 A 
ATOM      9  C   UNL     1       2.397   8.134  18.243  0.00  0.00    +0.000 A 
ATOM     10  O   UNL     1       2.730   8.624  17.166  0.00  0.00    +0.000 OA
ATOM     11  N   UNL     1       2.743   6.851  18.669  0.00  0.00    +0.000 N 
ENDROOT
BRANCH   5  12
ATOM     12  C   UNL     1      -0.772  11.124  21.986  0.00  0.00    +0.000 C 
ATOM     13  O   UNL     1      -0.406  11.131  23.155  0.00  0.00    +0.000 OA
ATOM     14  N   UNL     1      -1.894  11.779  21.536  0.00  0.00    +0.000 N 
ATOM     15  H   UNL     1      -2.147  11.785  20.557  0.00  0.00    +0.000 HD
BRANCH  14  16
ATOM     16  C   UNL     1      -2.754  12.540  22.430  0.00  0.00    +0.000 C 
BRANCH  16  17
ATOM     17  C   UNL     1      -3.901  13.215  21.679  0.00  0.00    +0.000 C 
ATOM     18  C   UNL     1      -5.289  12.880  22.209  0.00  0.00    +0.000 C 
ATOM     19  C   UNL     1      -6.138  12.990  20.968  0.00  0.00    +0.000 C 
ATOM     20  C   UNL     1      -5.207  12.467  19.896  0.00  0.00    +0.000 C 
ATOM     21  O   UNL     1      -3.875  12.816  20.291  0.00  0.00    +0.000 OA
ENDBRANCH  16  17
ENDBRANCH  14  16
ENDBRANCH   5  12
BRANCH   1  22
ATOM     22  S   UNL     1       2.706   4.755  20.422  0.00  0.00    +0.000 S 
BRANCH  22  23
ATOM     23  C   UNL     1       1.137   3.917  19.972  0.00  0.00    +0.000 C 
BRANCH  23  24
ATOM     24  C   UNL     1       1.182   3.347  18.567  0.00  0.00    +0.000 C 
ATOM     25  O   UNL     1       0.962   3.967  17.532  0.00  0.00    +0.000 OA
BRANCH  24  26
ATOM     26  O   UNL     1       1.456   2.011  18.623  0.00  0.00    +0.000 OA
BRANCH  26  28
ATOM     27  C   UNL     1       3.708   2.108  17.839  0.00  0.00    +0.000 C 
ATOM     28  C   UNL     1       2.809   1.680  18.983  0.00  0.00    +0.000 C 
ENDBRANCH  26  28
ENDBRANCH  24  26
ENDBRANCH  23  24
ENDBRANCH  22  23
ENDBRANCH   1  22
BRANCH  11  29
ATOM     29  C   UNL     1       3.490   6.045  17.704  0.00  0.00    +0.000 C 
BRANCH  29  30
ATOM     30  C   UNL     1       4.966   6.253  17.827  0.00  0.00    +0.000 A 
ATOM     31  C   UNL     1       5.890   6.982  17.109  0.00  0.00    +0.000 A 
ATOM     32  C   UNL     1       7.167   6.640  17.625  0.00  0.00    +0.000 A 
ATOM     33  C   UNL     1       6.935   5.747  18.645  0.00  0.00    +0.000 A 
ATOM     34  O   UNL     1       5.606   5.508  18.777  0.00  0.00    +0.000 OA
ENDBRANCH  29  30
ENDBRANCH  11  29
TORSDOF 10
ENDMDL
MODEL 7
REMARK VINA RESULT:      -7.7      1.125      1.337
REMARK  Name = 
REMARK  11 active torsions:
REMARK  status: ('A' for Active; 'I' for Inactive)
REMARK    1  A    between atoms: C_1  and  C_2
REMARK    2  A    between atoms: C_2  and  O_3
REMARK    3  A    between atoms: O_3  and  C_4
REMARK    4  A    between atoms: C_4  and  C_6
REMARK    5  A    between atoms: C_6  and  S_7
REMARK    6  A    between atoms: S_7  and  C_8
REMARK    7  A    between atoms: C_12  and  C_13
REMARK    8  A    between atoms: N_15  and  C_16
REMARK    9  A    between atoms: C_16  and  C_17
REMARK   10  A    between atoms: N_27  and  C_28
REMARK   11  A    between atoms: C_28  and  C_29
REMARK                            x       y       z     vdW  Elec       q    Type
REMARK                         _______ _______ _______ _____ _____    ______ ____
ROOT
ATOM      1  C   UNL     1       2.207   6.479  19.938  0.00  0.00    +0.000 A 
ATOM      2  N   UNL     1       1.549   7.389  20.577  0.00  0.00    +0.000 NA
ATOM      3  C   UNL     1       1.352   8.629  19.978  0.00  0.00    +0.000 A 
ATOM      4  C   UNL     1       0.606   9.585  20.666  0.00  0.00    +0.000 A 
ATOM      5  C   UNL     1       0.355  10.838  20.096  0.00  0.00    +0.000 A 
ATOM      6  C   UNL     1       0.830  11.127  18.811  0.00  0.00    +0.000 A 
ATOM      7  C   UNL     1       1.584  10.170  18.121  0.00  0.00    +0.000 A 
ATOM      8  C   UNL     1       1.849   8.931  18.719  0.00  0.00    +0.000 A 
ATOM      9  C   UNL     1       2.650   7.896  18.040  0.00  0.00    +0.000 A 
ATOM     10  O   UNL     1       3.136   8.159  16.941  0.00  0.00    +0.000 OA
ATOM     11  N   UNL     1       2.793   6.673  18.696  0.00  0.00    +0.000 N 
ENDROOT
BRANCH   5  12
ATOM     12  C   UNL     1      -0.443  11.801  20.899  0.00  0.00    +0.000 C 
ATOM     13  O   UNL     1      -0.929  12.788  20.360  0.00  0.00    +0.000 OA
ATOM     14  N   UNL     1      -0.616  11.499  22.229  0.00  0.00    +0.000 N 
ATOM     15  H   UNL     1      -0.233  10.655  22.634  0.00  0.00    +0.000 HD
BRANCH  14  16
ATOM     16  C   UNL     1      -1.398  12.345  23.117  0.00  0.00    +0.000 C 
BRANCH  16  17
ATOM     17  C   UNL     1      -2.901  12.161  22.902  0.00  0.00    +0.000 C 
ATOM     18  C   UNL     1      -3.635  13.420  22.458  0.00  0.00    +0.000 C 
ATOM     19  C   UNL     1      -5.010  13.205  23.037  0.00  0.00    +0.000 C 
ATOM     20  C   UNL     1      -4.703  12.507  24.343  0.00  0.00    +0.000 C 
ATOM     21  O   UNL     1      -3.519  11.728  24.133  0.00  0.00    +0.000 OA
ENDBRANCH  16  17
ENDBRANCH  14  16
ENDBRANCH   5  12
BRANCH   1  22
ATOM     22  S   UNL     1       2.337   4.920  20.742  0.00  0.00    +0.000 S 
BRANCH  22  23
ATOM     23  C   UNL     1       0.805   4.126  20.118  0.00  0.00    +0.000 C 
BRANCH  23  24
ATOM     24  C   UNL     1       1.101   2.873  19.318  0.00  0.00    +0.000 C 
ATOM     25  O   UNL     1       0.340   2.330  18.523  0.00  0.00    +0.000 OA
BRANCH  24  26
ATOM     26  O   UNL     1       2.336   2.397  19.651  0.00  0.00    +0.000 OA
BRANCH  26  28
ATOM     27  C   UNL     1       3.809   2.350  17.773  0.00  0.00    +0.000 C 
ATOM     28  C   UNL     1       2.930   1.513  18.684  0.00  0.00    +0.000 C 
ENDBRANCH  26  28
ENDBRANCH  24  26
ENDBRANCH  23  24
ENDBRANCH  22  23
ENDBRANCH   1  22
BRANCH  11  29
ATOM     29  C   UNL     1       3.517   5.640  17.957  0.00  0.00    +0.000 C 
BRANCH  29  30
ATOM     30  C   UNL     1       4.987   5.686  18.227  0.00  0.00    +0.000 A 
ATOM     31  C   UNL     1       5.780   5.257  19.270  0.00  0.00    +0.000 A 
ATOM     32  C   UNL     1       7.089   5.740  19.010  0.00  0.00    +0.000 A 
ATOM     33  C   UNL     1       7.015   6.406  17.809  0.00  0.00    +0.000 A 
ATOM     34  O   UNL     1       5.747   6.376  17.326  0.00  0.00    +0.000 OA
ENDBRANCH  29  30
ENDBRANCH  11  29
TORSDOF 10
ENDMDL
MODEL 8
REMARK VINA RESULT:      -7.7      2.315      5.032
REMARK  Name = 
REMARK  11 active torsions:
REMARK  status: ('A' for Active; 'I' for Inactive)
REMARK    1  A    between atoms: C_1  and  C_2
REMARK    2  A    between atoms: C_2  and  O_3
REMARK    3  A    between atoms: O_3  and  C_4
REMARK    4  A    between atoms: C_4  and  C_6
REMARK    5  A    between atoms: C_6  and  S_7
REMARK    6  A    between atoms: S_7  and  C_8
REMARK    7  A    between atoms: C_12  and  C_13
REMARK    8  A    between atoms: N_15  and  C_16
REMARK    9  A    between atoms: C_16  and  C_17
REMARK   10  A    between atoms: N_27  and  C_28
REMARK   11  A    between atoms: C_28  and  C_29
REMARK                            x       y       z     vdW  Elec       q    Type
REMARK                         _______ _______ _______ _____ _____    ______ ____
ROOT
ATOM      1  C   UNL     1       3.778   6.757  17.892  0.00  0.00    +0.000 A 
ATOM      2  N   UNL     1       3.091   7.841  17.740  0.00  0.00    +0.000 NA
ATOM      3  C   UNL     1       2.198   8.222  18.736  0.00  0.00    +0.000 A 
ATOM      4  C   UNL     1       1.495   9.415  18.574  0.00  0.00    +0.000 A 
ATOM      5  C   UNL     1       0.606   9.859  19.559  0.00  0.00    +0.000 A 
ATOM      6  C   UNL     1       0.441   9.115  20.734  0.00  0.00    +0.000 A 
ATOM      7  C   UNL     1       1.142   7.914  20.896  0.00  0.00    +0.000 A 
ATOM      8  C   UNL     1       2.007   7.472  19.887  0.00  0.00    +0.000 A 
ATOM      9  C   UNL     1       2.756   6.208  20.004  0.00  0.00    +0.000 A 
ATOM     10  O   UNL     1       2.569   5.506  20.996  0.00  0.00    +0.000 OA
ATOM     11  N   UNL     1       3.643   5.898  18.972  0.00  0.00    +0.000 N 
ENDROOT
BRANCH   5  12
ATOM     12  C   UNL     1      -0.108  11.137  19.303  0.00  0.00    +0.000 C 
ATOM     13  O   UNL     1       0.415  11.997  18.604  0.00  0.00    +0.000 OA
ATOM     14  N   UNL     1      -1.358  11.266  19.859  0.00  0.00    +0.000 N 
ATOM     15  H   UNL     1      -1.776  10.521  20.400  0.00  0.00    +0.000 HD
BRANCH  14  16
ATOM     16  C   UNL     1      -2.171  12.457  19.663  0.00  0.00    +0.000 C 
BRANCH  16  17
ATOM     17  C   UNL     1      -2.239  13.314  20.926  0.00  0.00    +0.000 C 
ATOM     18  C   UNL     1      -1.048  14.242  21.127  0.00  0.00    +0.000 C 
ATOM     19  C   UNL     1      -0.974  14.343  22.629  0.00  0.00    +0.000 C 
ATOM     20  C   UNL     1      -1.378  12.952  23.065  0.00  0.00    +0.000 C 
ATOM     21  O   UNL     1      -2.307  12.461  22.090  0.00  0.00    +0.000 OA
ENDBRANCH  16  17
ENDBRANCH  14  16
ENDBRANCH   5  12
BRANCH   1  22
ATOM     22  S   UNL     1       4.935   6.398  16.617  0.00  0.00    +0.000 S 
BRANCH  22  23
ATOM     23  C   UNL     1       6.295   7.525  17.116  0.00  0.00    +0.000 C 
BRANCH  23  24
ATOM     24  C   UNL     1       7.480   6.768  17.684  0.00  0.00    +0.000 C 
ATOM     25  O   UNL     1       7.704   5.569  17.541  0.00  0.00    +0.000 OA
BRANCH  24  26
ATOM     26  O   UNL     1       8.249   7.612  18.431  0.00  0.00    +0.000 OA
BRANCH  26  28
ATOM     27  C   UNL     1       9.031   9.791  19.011  0.00  0.00    +0.000 C 
ATOM     28  C   UNL     1       8.260   8.980  17.987  0.00  0.00    +0.000 C 
ENDBRANCH  26  28
ENDBRANCH  24  26
ENDBRANCH  23  24
ENDBRANCH  22  23
ENDBRANCH   1  22
BRANCH  11  29
ATOM     29  C   UNL     1       4.434   4.684  19.162  0.00  0.00    +0.000 C 
BRANCH  29  30
ATOM     30  C   UNL     1       3.764   3.482  18.575  0.00  0.00    +0.000 A 
ATOM     31  C   UNL     1       2.712   3.308  17.701  0.00  0.00    +0.000 A 
ATOM     32  C   UNL     1       2.446   1.915  17.659  0.00  0.00    +0.000 A 
ATOM     33  C   UNL     1       3.375   1.328  18.487  0.00  0.00    +0.000 A 
ATOM     34  O   UNL     1       4.179   2.268  19.044  0.00  0.00    +0.000 OA
ENDBRANCH  29  30
ENDBRANCH  11  29
TORSDOF 10
ENDMDL
MODEL 9
REMARK VINA RESULT:      -7.7      3.118      5.078
REMARK  Name = 
REMARK  11 active torsions:
REMARK  status: ('A' for Active; 'I' for Inactive)
REMARK    1  A    between atoms: C_1  and  C_2
REMARK    2  A    between atoms: C_2  and  O_3
REMARK    3  A    between atoms: O_3  and  C_4
REMARK    4  A    between atoms: C_4  and  C_6
REMARK    5  A    between atoms: C_6  and  S_7
REMARK    6  A    between atoms: S_7  and  C_8
REMARK    7  A    between atoms: C_12  and  C_13
REMARK    8  A    between atoms: N_15  and  C_16
REMARK    9  A    between atoms: C_16  and  C_17
REMARK   10  A    between atoms: N_27  and  C_28
REMARK   11  A    between atoms: C_28  and  C_29
REMARK                            x       y       z     vdW  Elec       q    Type
REMARK                         _______ _______ _______ _____ _____    ______ ____
ROOT
ATOM      1  C   UNL     1       3.563   7.012  17.840  0.00  0.00    +0.000 A 
ATOM      2  N   UNL     1       2.852   8.083  17.716  0.00  0.00    +0.000 NA
ATOM      3  C   UNL     1       1.982   8.441  18.740  0.00  0.00    +0.000 A 
ATOM      4  C   UNL     1       1.252   9.622  18.607  0.00  0.00    +0.000 A 
ATOM      5  C   UNL     1       0.383  10.041  19.621  0.00  0.00    +0.000 A 
ATOM      6  C   UNL     1       0.267   9.287  20.794  0.00  0.00    +0.000 A 
ATOM      7  C   UNL     1       0.994   8.098  20.927  0.00  0.00    +0.000 A 
ATOM      8  C   UNL     1       1.838   7.679  19.891  0.00  0.00    +0.000 A 
ATOM      9  C   UNL     1       2.613   6.429  19.977  0.00  0.00    +0.000 A 
ATOM     10  O   UNL     1       2.468   5.716  20.968  0.00  0.00    +0.000 OA
ATOM     11  N   UNL     1       3.476   6.143  18.917  0.00  0.00    +0.000 N 
ENDROOT
BRANCH   5  12
ATOM     12  C   UNL     1      -0.360  11.308  19.395  0.00  0.00    +0.000 C 
ATOM     13  O   UNL     1      -1.381  11.537  20.034  0.00  0.00    +0.000 OA
ATOM     14  N   UNL     1       0.175  12.183  18.480  0.00  0.00    +0.000 N 
ATOM     15  H   UNL     1       1.040  11.979  17.998  0.00  0.00    +0.000 HD
BRANCH  14  16
ATOM     16  C   UNL     1      -0.441  13.467  18.188  0.00  0.00    +0.000 C 
BRANCH  16  17
ATOM     17  C   UNL     1       0.206  14.603  18.981  0.00  0.00    +0.000 C 
ATOM     18  C   UNL     1       1.703  14.442  19.210  0.00  0.00    +0.000 C 
ATOM     19  C   UNL     1       1.902  15.156  20.522  0.00  0.00    +0.000 C 
ATOM     20  C   UNL     1       0.627  14.822  21.265  0.00  0.00    +0.000 C 
ATOM     21  O   UNL     1      -0.409  14.698  20.284  0.00  0.00    +0.000 OA
ENDBRANCH  16  17
ENDBRANCH  14  16
ENDBRANCH   5  12
BRANCH   1  22
ATOM     22  S   UNL     1       4.690   6.683  16.530  0.00  0.00    +0.000 S 
BRANCH  22  23
ATOM     23  C   UNL     1       6.258   7.175  17.347  0.00  0.00    +0.000 C 
BRANCH  23  24
ATOM     24  C   UNL     1       7.300   6.076  17.284  0.00  0.00    +0.000 C 
ATOM     25  O   UNL     1       7.924   5.620  18.238  0.00  0.00    +0.000 OA
BRANCH  24  26
ATOM     26  O   UNL     1       7.484   5.692  15.987  0.00  0.00    +0.000 OA
BRANCH  26  28
ATOM     27  C   UNL     1       6.532   4.260  14.332  0.00  0.00    +0.000 C 
ATOM     28  C   UNL     1       7.170   4.317  15.707  0.00  0.00    +0.000 C 
ENDBRANCH  26  28
ENDBRANCH  24  26
ENDBRANCH  23  24
ENDBRANCH  22  23
ENDBRANCH   1  22
BRANCH  11  29
ATOM     29  C   UNL     1       4.294   4.942  19.075  0.00  0.00    +0.000 C 
BRANCH  29  30
ATOM     30  C   UNL     1       3.622   3.729  18.516  0.00  0.00    +0.000 A 
ATOM     31  C   UNL     1       2.475   3.528  17.778  0.00  0.00    +0.000 A 
ATOM     32  C   UNL     1       2.284   2.125  17.696  0.00  0.00    +0.000 A 
ATOM     33  C   UNL     1       3.346   1.560  18.364  0.00  0.00    +0.000 A 
ATOM     34  O   UNL     1       4.163   2.524  18.861  0.00  0.00    +0.000 OA
ENDBRANCH  29  30
ENDBRANCH  11  29
TORSDOF 10
ENDMDL
