MODEL 1
REMARK VINA RESULT:      -8.0      0.000      0.000
REMARK  Name = 
REMARK  10 active torsions:
REMARK  status: ('A' for Active; 'I' for Inactive)
REMARK    1  A    between atoms: C_1  and  C_2
REMARK    2  A    between atoms: C_6  and  N_7
REMARK    3  A    between atoms: C_10  and  C_11
REMARK    4  A    between atoms: C_15  and  O_16
REMARK    5  A    between atoms: O_16  and  C_17
REMARK    6  A    between atoms: C_17  and  C_18
REMARK    7  A    between atoms: C_18  and  C_19
REMARK    8  A    between atoms: C_19  and  N_20
REMARK    9  A    between atoms: N_20  and  C_21
REMARK   10  A    between atoms: N_20  and  C_22
REMARK                            x       y       z     vdW  Elec       q    Type
REMARK                         _______ _______ _______ _____ _____    ______ ____
ROOT
ATOM      1  N   UNL     1       2.004   5.966  20.778  0.00  0.00    +0.000 N 
ATOM      2  C   UNL     1       2.864   5.218  20.042  0.00  0.00    +0.000 A 
ATOM      3  N   UNL     1       3.760   5.657  19.189  0.00  0.00    +0.000 NA
ATOM      4  C   UNL     1       4.371   4.618  18.519  0.00  0.00    +0.000 A 
ATOM      5  C   UNL     1       3.972   3.360  18.919  0.00  0.00    +0.000 A 
ATOM      6  S   UNL     1       2.807   3.494  20.169  0.00  0.00    +0.000 S 
ATOM      7  H   UNL     1       1.344   5.450  21.344  0.00  0.00    +0.000 HD
ENDROOT
BRANCH   1  13
ATOM      8  C   UNL     1      -0.153  10.256  22.112  0.00  0.00    +0.000 C 
ATOM      9  C   UNL     1       0.564   9.428  21.087  0.00  0.00    +0.000 A 
ATOM     10  C   UNL     1       0.926   9.953  19.846  0.00  0.00    +0.000 A 
ATOM     11  C   UNL     1       1.593   9.155  18.920  0.00  0.00    +0.000 A 
ATOM     12  C   UNL     1       1.917   7.832  19.235  0.00  0.00    +0.000 A 
ATOM     13  C   UNL     1       1.591   7.285  20.485  0.00  0.00    +0.000 A 
ATOM     14  C   UNL     1       0.892   8.097  21.387  0.00  0.00    +0.000 A 
ENDBRANCH   1  13
BRANCH   4  15
ATOM     15  C   UNL     1       5.372   4.893  17.501  0.00  0.00    +0.000 A 
ATOM     16  C   UNL     1       5.500   4.020  16.417  0.00  0.00    +0.000 A 
ATOM     17  C   UNL     1       6.444   4.301  15.447  0.00  0.00    +0.000 A 
ATOM     18  N   UNL     1       7.251   5.379  15.485  0.00  0.00    +0.000 NA
ATOM     19  C   UNL     1       7.122   6.198  16.549  0.00  0.00    +0.000 A 
ATOM     20  C   UNL     1       6.224   5.994  17.581  0.00  0.00    +0.000 A 
BRANCH  19  21
ATOM     21  O   UNL     1       7.948   7.298  16.662  0.00  0.00    +0.000 OA
BRANCH  21  22
ATOM     22  C   UNL     1       7.871   7.891  17.961  0.00  0.00    +0.000 C 
BRANCH  22  23
ATOM     23  C   UNL     1       8.172   9.380  17.831  0.00  0.00    +0.000 C 
BRANCH  23  24
ATOM     24  C   UNL     1       9.104   9.833  18.958  0.00  0.00    +0.000 C 
BRANCH  24  25
ATOM     25  N   UNL     1       9.853  11.064  18.653  0.00  0.00    +0.000 NA
ATOM     26  C   UNL     1       9.015  12.074  18.003  0.00  0.00    +0.000 C 
ATOM     27  C   UNL     1      10.413  11.619  19.891  0.00  0.00    +0.000 C 
ENDBRANCH  24  25
ENDBRANCH  23  24
ENDBRANCH  22  23
ENDBRANCH  21  22
ENDBRANCH  19  21
ENDBRANCH   4  15
TORSDOF 7
ENDMDL
MODEL 2
REMARK VINA RESULT:      -7.9      3.802      8.599
REMARK  Name = 
REMARK  10 active torsions:
REMARK  status: ('A' for Active; 'I' for Inactive)
REMARK    1  A    between atoms: C_1  and  C_2
REMARK    2  A    between atoms: C_6  and  N_7
REMARK    3  A    between atoms: C_10  and  C_11
REMARK    4  A    between atoms: C_15  and  O_16
REMARK    5  A    between atoms: O_16  and  C_17
REMARK    6  A    between atoms: C_17  and  C_18
REMARK    7  A    between atoms: C_18  and  C_19
REMARK    8  A    between atoms: C_19  and  N_20
REMARK    9  A    between atoms: N_20  and  C_21
REMARK   10  A    between atoms: N_20  and  C_22
REMARK                            x       y       z     vdW  Elec       q    Type
REMARK                         _______ _______ _______ _____ _____    ______ ____
ROOT
ATOM      1  N   UNL     1       4.026   3.657  18.547  0.00  0.00    +0.000 N 
ATOM      2  C   UNL     1       3.208   4.509  19.215  0.00  0.00    +0.000 A 
ATOM      3  N   UNL     1       2.961   5.763  18.916  0.00  0.00    +0.000 NA
ATOM      4  C   UNL     1       2.188   6.370  19.883  0.00  0.00    +0.000 A 
ATOM      5  C   UNL     1       1.789   5.538  20.908  0.00  0.00    +0.000 A 
ATOM      6  S   UNL     1       2.399   3.958  20.641  0.00  0.00    +0.000 S 
ATOM      7  H   UNL     1       4.137   2.740  18.957  0.00  0.00    +0.000 HD
ENDROOT
BRANCH   1  13
ATOM      8  C   UNL     1       5.969   4.118  13.981  0.00  0.00    +0.000 C 
ATOM      9  C   UNL     1       6.087   4.300  15.464  0.00  0.00    +0.000 A 
ATOM     10  C   UNL     1       7.199   4.916  16.040  0.00  0.00    +0.000 A 
ATOM     11  C   UNL     1       7.272   5.069  17.423  0.00  0.00    +0.000 A 
ATOM     12  C   UNL     1       6.227   4.623  18.237  0.00  0.00    +0.000 A 
ATOM     13  C   UNL     1       5.083   4.026  17.685  0.00  0.00    +0.000 A 
ATOM     14  C   UNL     1       5.047   3.853  16.296  0.00  0.00    +0.000 A 
ENDBRANCH   1  13
BRANCH   4  15
ATOM     15  C   UNL     1       1.830   7.774  19.758  0.00  0.00    +0.000 A 
ATOM     16  C   UNL     1       1.873   8.379  18.499  0.00  0.00    +0.000 A 
ATOM     17  C   UNL     1       1.515   9.710  18.391  0.00  0.00    +0.000 A 
ATOM     18  N   UNL     1       1.119  10.461  19.437  0.00  0.00    +0.000 NA
ATOM     19  C   UNL     1       1.102   9.860  20.645  0.00  0.00    +0.000 A 
ATOM     20  C   UNL     1       1.462   8.543  20.862  0.00  0.00    +0.000 A 
BRANCH  19  21
ATOM     21  O   UNL     1       0.742  10.590  21.759  0.00  0.00    +0.000 OA
BRANCH  21  22
ATOM     22  C   UNL     1      -0.563  11.158  21.625  0.00  0.00    +0.000 C 
BRANCH  22  23
ATOM     23  C   UNL     1      -1.275  11.055  22.969  0.00  0.00    +0.000 C 
BRANCH  23  24
ATOM     24  C   UNL     1      -2.090  12.323  23.238  0.00  0.00    +0.000 C 
BRANCH  24  25
ATOM     25  N   UNL     1      -3.542  12.094  23.313  0.00  0.00    +0.000 NA
ATOM     26  C   UNL     1      -4.115  12.581  24.570  0.00  0.00    +0.000 C 
ATOM     27  C   UNL     1      -4.204  12.760  22.185  0.00  0.00    +0.000 C 
ENDBRANCH  24  25
ENDBRANCH  23  24
ENDBRANCH  22  23
ENDBRANCH  21  22
ENDBRANCH  19  21
ENDBRANCH   4  15
TORSDOF 7
ENDMDL
MODEL 3
REMARK VINA RESULT:      -7.6      0.822      1.581
REMARK  Name = 
REMARK  10 active torsions:
REMARK  status: ('A' for Active; 'I' for Inactive)
REMARK    1  A    between atoms: C_1  and  C_2
REMARK    2  A    between atoms: C_6  and  N_7
REMARK    3  A    between atoms: C_10  and  C_11
REMARK    4  A    between atoms: C_15  and  O_16
REMARK    5  A    between atoms: O_16  and  C_17
REMARK    6  A    between atoms: C_17  and  C_18
REMARK    7  A    between atoms: C_18  and  C_19
REMARK    8  A    between atoms: C_19  and  N_20
REMARK    9  A    between atoms: N_20  and  C_21
REMARK   10  A    between atoms: N_20  and  C_22
REMARK                            x       y       z     vdW  Elec       q    Type
REMARK                         _______ _______ _______ _____ _____    ______ ____
ROOT
ATOM      1  N   UNL     1       1.633   6.391  20.817  0.00  0.00    +0.000 N 
ATOM      2  C   UNL     1       2.496   5.634  20.095  0.00  0.00    +0.000 A 
ATOM      3  N   UNL     1       3.546   6.054  19.427  0.00  0.00    +0.000 NA
ATOM      4  C   UNL     1       4.122   5.036  18.698  0.00  0.00    +0.000 A 
ATOM      5  C   UNL     1       3.532   3.801  18.866  0.00  0.00    +0.000 A 
ATOM      6  S   UNL     1       2.226   3.930  19.970  0.00  0.00    +0.000 S 
ATOM      7  H   UNL     1       0.846   5.899  21.220  0.00  0.00    +0.000 HD
ENDROOT
BRANCH   1  13
ATOM      8  C   UNL     1       1.387  10.478  17.976  0.00  0.00    +0.000 C 
ATOM      9  C   UNL     1       1.258   9.822  19.318  0.00  0.00    +0.000 A 
ATOM     10  C   UNL     1       0.839  10.534  20.443  0.00  0.00    +0.000 A 
ATOM     11  C   UNL     1       0.729   9.889  21.673  0.00  0.00    +0.000 A 
ATOM     12  C   UNL     1       1.021   8.527  21.783  0.00  0.00    +0.000 A 
ATOM     13  C   UNL     1       1.417   7.779  20.664  0.00  0.00    +0.000 A 
ATOM     14  C   UNL     1       1.552   8.455  19.445  0.00  0.00    +0.000 A 
ENDBRANCH   1  13
BRANCH   4  15
ATOM     15  C   UNL     1       5.280   5.301  17.860  0.00  0.00    +0.000 A 
ATOM     16  C   UNL     1       5.831   4.259  17.109  0.00  0.00    +0.000 A 
ATOM     17  C   UNL     1       6.921   4.527  16.302  0.00  0.00    +0.000 A 
ATOM     18  N   UNL     1       7.484   5.747  16.194  0.00  0.00    +0.000 NA
ATOM     19  C   UNL     1       6.946   6.733  16.941  0.00  0.00    +0.000 A 
ATOM     20  C   UNL     1       5.871   6.562  17.794  0.00  0.00    +0.000 A 
BRANCH  19  21
ATOM     21  O   UNL     1       7.505   7.994  16.902  0.00  0.00    +0.000 OA
BRANCH  21  22
ATOM     22  C   UNL     1       8.282   8.269  18.070  0.00  0.00    +0.000 C 
BRANCH  22  23
ATOM     23  C   UNL     1       8.584   9.763  18.108  0.00  0.00    +0.000 C 
BRANCH  23  24
ATOM     24  C   UNL     1       9.267  10.133  19.428  0.00  0.00    +0.000 C 
BRANCH  24  25
ATOM     25  N   UNL     1       9.755  11.521  19.478  0.00  0.00    +0.000 NA
ATOM     26  C   UNL     1      10.146  11.922  20.831  0.00  0.00    +0.000 C 
ATOM     27  C   UNL     1      10.901  11.673  18.573  0.00  0.00    +0.000 C 
ENDBRANCH  24  25
ENDBRANCH  23  24
ENDBRANCH  22  23
ENDBRANCH  21  22
ENDBRANCH  19  21
ENDBRANCH   4  15
TORSDOF 7
ENDMDL
MODEL 4
REMARK VINA RESULT:      -7.5      5.128      9.055
REMARK  Name = 
REMARK  10 active torsions:
REMARK  status: ('A' for Active; 'I' for Inactive)
REMARK    1  A    between atoms: C_1  and  C_2
REMARK    2  A    between atoms: C_6  and  N_7
REMARK    3  A    between atoms: C_10  and  C_11
REMARK    4  A    between atoms: C_15  and  O_16
REMARK    5  A    between atoms: O_16  and  C_17
REMARK    6  A    between atoms: C_17  and  C_18
REMARK    7  A    between atoms: C_18  and  C_19
REMARK    8  A    between atoms: C_19  and  N_20
REMARK    9  A    between atoms: N_20  and  C_21
REMARK   10  A    between atoms: N_20  and  C_22
REMARK                            x       y       z     vdW  Elec       q    Type
REMARK                         _______ _______ _______ _____ _____    ______ ____
ROOT
ATOM      1  N   UNL     1       2.731   6.360  18.318  0.00  0.00    +0.000 N 
ATOM      2  C   UNL     1       2.278   7.577  18.712  0.00  0.00    +0.000 A 
ATOM      3  N   UNL     1       1.670   7.866  19.839  0.00  0.00    +0.000 NA
ATOM      4  C   UNL     1       1.227   9.171  19.854  0.00  0.00    +0.000 A 
ATOM      5  C   UNL     1       1.562   9.907  18.737  0.00  0.00    +0.000 A 
ATOM      6  S   UNL     1       2.457   8.930  17.649  0.00  0.00    +0.000 S 
ATOM      7  H   UNL     1       3.126   6.317  17.389  0.00  0.00    +0.000 HD
ENDROOT
BRANCH   1  13
ATOM      8  C   UNL     1       2.142   3.086  22.029  0.00  0.00    +0.000 C 
ATOM      9  C   UNL     1       1.945   3.467  20.592  0.00  0.00    +0.000 A 
ATOM     10  C   UNL     1       1.243   2.647  19.708  0.00  0.00    +0.000 A 
ATOM     11  C   UNL     1       1.078   3.035  18.380  0.00  0.00    +0.000 A 
ATOM     12  C   UNL     1       1.600   4.253  17.932  0.00  0.00    +0.000 A 
ATOM     13  C   UNL     1       2.285   5.111  18.805  0.00  0.00    +0.000 A 
ATOM     14  C   UNL     1       2.467   4.685  20.126  0.00  0.00    +0.000 A 
ENDBRANCH   1  13
BRANCH   4  15
ATOM     15  C   UNL     1       0.495   9.682  21.002  0.00  0.00    +0.000 A 
ATOM     16  C   UNL     1       0.613   9.028  22.231  0.00  0.00    +0.000 A 
ATOM     17  C   UNL     1      -0.075   9.532  23.319  0.00  0.00    +0.000 A 
ATOM     18  N   UNL     1      -0.854  10.630  23.263  0.00  0.00    +0.000 NA
ATOM     19  C   UNL     1      -0.966  11.235  22.062  0.00  0.00    +0.000 A 
ATOM     20  C   UNL     1      -0.337  10.797  20.911  0.00  0.00    +0.000 A 
BRANCH  19  21
ATOM     21  O   UNL     1      -1.781  12.341  21.934  0.00  0.00    +0.000 OA
BRANCH  21  22
ATOM     22  C   UNL     1      -1.833  12.811  20.585  0.00  0.00    +0.000 C 
BRANCH  22  23
ATOM     23  C   UNL     1      -3.151  12.359  19.967  0.00  0.00    +0.000 C 
BRANCH  23  24
ATOM     24  C   UNL     1      -2.938  11.937  18.510  0.00  0.00    +0.000 C 
BRANCH  24  25
ATOM     25  N   UNL     1      -3.930  10.965  18.020  0.00  0.00    +0.000 NA
ATOM     26  C   UNL     1      -4.722  11.497  16.909  0.00  0.00    +0.000 C 
ATOM     27  C   UNL     1      -3.247   9.739  17.590  0.00  0.00    +0.000 C 
ENDBRANCH  24  25
ENDBRANCH  23  24
ENDBRANCH  22  23
ENDBRANCH  21  22
ENDBRANCH  19  21
ENDBRANCH   4  15
TORSDOF 7
ENDMDL
MODEL 5
REMARK VINA RESULT:      -7.4      3.793      8.081
REMARK  Name = 
REMARK  10 active torsions:
REMARK  status: ('A' for Active; 'I' for Inactive)
REMARK    1  A    between atoms: C_1  and  C_2
REMARK    2  A    between atoms: C_6  and  N_7
REMARK    3  A    between atoms: C_10  and  C_11
REMARK    4  A    between atoms: C_15  and  O_16
REMARK    5  A    between atoms: O_16  and  C_17
REMARK    6  A    between atoms: C_17  and  C_18
REMARK    7  A    between atoms: C_18  and  C_19
REMARK    8  A    between atoms: C_19  and  N_20
REMARK    9  A    between atoms: N_20  and  C_21
REMARK   10  A    between atoms: N_20  and  C_22
REMARK                            x       y       z     vdW  Elec       q    Type
REMARK                         _______ _______ _______ _____ _____    ______ ____
ROOT
ATOM      1  N   UNL     1       4.075   3.557  18.389  0.00  0.00    +0.000 N 
ATOM      2  C   UNL     1       3.261   4.378  19.099  0.00  0.00    +0.000 A 
ATOM      3  N   UNL     1       3.007   5.642  18.854  0.00  0.00    +0.000 NA
ATOM      4  C   UNL     1       2.243   6.207  19.852  0.00  0.00    +0.000 A 
ATOM      5  C   UNL     1       1.857   5.333  20.847  0.00  0.00    +0.000 A 
ATOM      6  S   UNL     1       2.469   3.768  20.511  0.00  0.00    +0.000 S 
ATOM      7  H   UNL     1       4.193   2.624  18.760  0.00  0.00    +0.000 HD
ENDROOT
BRANCH   1  13
ATOM      8  C   UNL     1       6.043   4.039  13.835  0.00  0.00    +0.000 C 
ATOM      9  C   UNL     1       6.135   4.251  15.317  0.00  0.00    +0.000 A 
ATOM     10  C   UNL     1       7.208   4.931  15.894  0.00  0.00    +0.000 A 
ATOM     11  C   UNL     1       7.258   5.111  17.274  0.00  0.00    +0.000 A 
ATOM     12  C   UNL     1       6.228   4.627  18.085  0.00  0.00    +0.000 A 
ATOM     13  C   UNL     1       5.122   3.964  17.531  0.00  0.00    +0.000 A 
ATOM     14  C   UNL     1       5.110   3.767  16.145  0.00  0.00    +0.000 A 
ENDBRANCH   1  13
BRANCH   4  15
ATOM     15  C   UNL     1       1.879   7.613  19.789  0.00  0.00    +0.000 A 
ATOM     16  C   UNL     1       1.947   8.280  18.562  0.00  0.00    +0.000 A 
ATOM     17  C   UNL     1       1.583   9.612  18.510  0.00  0.00    +0.000 A 
ATOM     18  N   UNL     1       1.159  10.310  19.583  0.00  0.00    +0.000 NA
ATOM     19  C   UNL     1       1.118   9.650  20.759  0.00  0.00    +0.000 A 
ATOM     20  C   UNL     1       1.481   8.326  20.919  0.00  0.00    +0.000 A 
BRANCH  19  21
ATOM     21  O   UNL     1       0.730  10.323  21.899  0.00  0.00    +0.000 OA
BRANCH  21  22
ATOM     22  C   UNL     1      -0.613  10.807  21.800  0.00  0.00    +0.000 C 
BRANCH  22  23
ATOM     23  C   UNL     1      -0.596  12.320  21.987  0.00  0.00    +0.000 C 
BRANCH  23  24
ATOM     24  C   UNL     1      -1.193  13.013  20.759  0.00  0.00    +0.000 C 
BRANCH  24  25
ATOM     25  N   UNL     1      -2.071  12.147  19.954  0.00  0.00    +0.000 NA
ATOM     26  C   UNL     1      -3.479  12.537  20.058  0.00  0.00    +0.000 C 
ATOM     27  C   UNL     1      -1.654  12.194  18.548  0.00  0.00    +0.000 C 
ENDBRANCH  24  25
ENDBRANCH  23  24
ENDBRANCH  22  23
ENDBRANCH  21  22
ENDBRANCH  19  21
ENDBRANCH   4  15
TORSDOF 7
ENDMDL
MODEL 6
REMARK VINA RESULT:      -7.4      5.155      9.728
REMARK  Name = 
REMARK  10 active torsions:
REMARK  status: ('A' for Active; 'I' for Inactive)
REMARK    1  A    between atoms: C_1  and  C_2
REMARK    2  A    between atoms: C_6  and  N_7
REMARK    3  A    between atoms: C_10  and  C_11
REMARK    4  A    between atoms: C_15  and  O_16
REMARK    5  A    between atoms: O_16  and  C_17
REMARK    6  A    between atoms: C_17  and  C_18
REMARK    7  A    between atoms: C_18  and  C_19
REMARK    8  A    between atoms: C_19  and  N_20
REMARK    9  A    between atoms: N_20  and  C_21
REMARK   10  A    between atoms: N_20  and  C_22
REMARK                            x       y       z     vdW  Elec       q    Type
REMARK                         _______ _______ _______ _____ _____    ______ ____
ROOT
ATOM      1  N   UNL     1       2.690   6.492  18.276  0.00  0.00    +0.000 N 
ATOM      2  C   UNL     1       2.222   7.696  18.691  0.00  0.00    +0.000 A 
ATOM      3  N   UNL     1       1.633   7.962  19.834  0.00  0.00    +0.000 NA
ATOM      4  C   UNL     1       1.165   9.258  19.873  0.00  0.00    +0.000 A 
ATOM      5  C   UNL     1       1.460  10.010  18.756  0.00  0.00    +0.000 A 
ATOM      6  S   UNL     1       2.351   9.062  17.639  0.00  0.00    +0.000 S 
ATOM      7  H   UNL     1       3.066   6.466  17.338  0.00  0.00    +0.000 HD
ENDROOT
BRANCH   1  13
ATOM      8  C   UNL     1       2.135   3.219  21.992  0.00  0.00    +0.000 C 
ATOM      9  C   UNL     1       1.959   3.584  20.549  0.00  0.00    +0.000 A 
ATOM     10  C   UNL     1       1.310   2.733  19.653  0.00  0.00    +0.000 A 
ATOM     11  C   UNL     1       1.163   3.108  18.319  0.00  0.00    +0.000 A 
ATOM     12  C   UNL     1       1.649   4.341  17.876  0.00  0.00    +0.000 A 
ATOM     13  C   UNL     1       2.280   5.230  18.760  0.00  0.00    +0.000 A 
ATOM     14  C   UNL     1       2.446   4.818  20.088  0.00  0.00    +0.000 A 
ENDBRANCH   1  13
BRANCH   4  15
ATOM     15  C   UNL     1       0.448   9.743  21.041  0.00  0.00    +0.000 A 
ATOM     16  C   UNL     1       0.571   9.053  22.251  0.00  0.00    +0.000 A 
ATOM     17  C   UNL     1      -0.101   9.533  23.359  0.00  0.00    +0.000 A 
ATOM     18  N   UNL     1      -0.871  10.639  23.341  0.00  0.00    +0.000 NA
ATOM     19  C   UNL     1      -0.988  11.279  22.158  0.00  0.00    +0.000 A 
ATOM     20  C   UNL     1      -0.374  10.867  20.989  0.00  0.00    +0.000 A 
BRANCH  19  21
ATOM     21  O   UNL     1      -1.794  12.395  22.069  0.00  0.00    +0.000 OA
BRANCH  21  22
ATOM     22  C   UNL     1      -2.486  12.454  20.819  0.00  0.00    +0.000 C 
BRANCH  22  23
ATOM     23  C   UNL     1      -3.684  13.384  20.973  0.00  0.00    +0.000 C 
BRANCH  23  24
ATOM     24  C   UNL     1      -4.524  12.972  22.185  0.00  0.00    +0.000 C 
BRANCH  24  25
ATOM     25  N   UNL     1      -5.748  12.231  21.837  0.00  0.00    +0.000 NA
ATOM     26  C   UNL     1      -6.885  12.617  22.675  0.00  0.00    +0.000 C 
ATOM     27  C   UNL     1      -6.080  12.463  20.427  0.00  0.00    +0.000 C 
ENDBRANCH  24  25
ENDBRANCH  23  24
ENDBRANCH  22  23
ENDBRANCH  21  22
ENDBRANCH  19  21
ENDBRANCH   4  15
TORSDOF 7
ENDMDL
MODEL 7
REMARK VINA RESULT:      -7.4      4.720      7.732
REMARK  Name = 
REMARK  10 active torsions:
REMARK  status: ('A' for Active; 'I' for Inactive)
REMARK    1  A    between atoms: C_1  and  C_2
REMARK    2  A    between atoms: C_6  and  N_7
REMARK    3  A    between atoms: C_10  and  C_11
REMARK    4  A    between atoms: C_15  and  O_16
REMARK    5  A    between atoms: O_16  and  C_17
REMARK    6  A    between atoms: C_17  and  C_18
REMARK    7  A    between atoms: C_18  and  C_19
REMARK    8  A    between atoms: C_19  and  N_20
REMARK    9  A    between atoms: N_20  and  C_21
REMARK   10  A    between atoms: N_20  and  C_22
REMARK                            x       y       z     vdW  Elec       q    Type
REMARK                         _______ _______ _______ _____ _____    ______ ____
ROOT
ATOM      1  N   UNL     1      -1.831  12.008  19.723  0.00  0.00    +0.000 N 
ATOM      2  C   UNL     1      -0.842  11.218  20.212  0.00  0.00    +0.000 A 
ATOM      3  N   UNL     1      -0.237  10.234  19.588  0.00  0.00    +0.000 NA
ATOM      4  C   UNL     1       0.625   9.558  20.425  0.00  0.00    +0.000 A 
ATOM      5  C   UNL     1       0.721  10.081  21.697  0.00  0.00    +0.000 A 
ATOM      6  S   UNL     1      -0.294  11.456  21.835  0.00  0.00    +0.000 S 
ATOM      7  H   UNL     1      -2.216  12.683  20.370  0.00  0.00    +0.000 HD
ENDROOT
BRANCH   1  13
ATOM      8  C   UNL     1      -6.403  11.622  17.779  0.00  0.00    +0.000 C 
ATOM      9  C   UNL     1      -4.916  11.499  17.631  0.00  0.00    +0.000 A 
ATOM     10  C   UNL     1      -4.329  11.154  16.413  0.00  0.00    +0.000 A 
ATOM     11  C   UNL     1      -2.943  11.052  16.312  0.00  0.00    +0.000 A 
ATOM     12  C   UNL     1      -2.136  11.312  17.423  0.00  0.00    +0.000 A 
ATOM     13  C   UNL     1      -2.696  11.689  18.653  0.00  0.00    +0.000 A 
ATOM     14  C   UNL     1      -4.092  11.753  18.738  0.00  0.00    +0.000 A 
ENDBRANCH   1  13
BRANCH   4  15
ATOM     15  C   UNL     1       1.368   8.408  19.936  0.00  0.00    +0.000 A 
ATOM     16  C   UNL     1       2.016   8.491  18.700  0.00  0.00    +0.000 A 
ATOM     17  C   UNL     1       2.734   7.397  18.254  0.00  0.00    +0.000 A 
ATOM     18  N   UNL     1       2.849   6.249  18.948  0.00  0.00    +0.000 NA
ATOM     19  C   UNL     1       2.200   6.186  20.130  0.00  0.00    +0.000 A 
ATOM     20  C   UNL     1       1.440   7.215  20.654  0.00  0.00    +0.000 A 
BRANCH  19  21
ATOM     21  O   UNL     1       2.250   5.021  20.868  0.00  0.00    +0.000 OA
BRANCH  21  22
ATOM     22  C   UNL     1       1.153   4.154  20.569  0.00  0.00    +0.000 C 
BRANCH  22  23
ATOM     23  C   UNL     1       1.708   2.788  20.182  0.00  0.00    +0.000 C 
BRANCH  23  24
ATOM     24  C   UNL     1       1.228   2.396  18.782  0.00  0.00    +0.000 C 
BRANCH  24  25
ATOM     25  N   UNL     1       2.319   2.168  17.820  0.00  0.00    +0.000 NA
ATOM     26  C   UNL     1       2.714   3.397  17.130  0.00  0.00    +0.000 C 
ATOM     27  C   UNL     1       3.481   1.605  18.519  0.00  0.00    +0.000 C 
ENDBRANCH  24  25
ENDBRANCH  23  24
ENDBRANCH  22  23
ENDBRANCH  21  22
ENDBRANCH  19  21
ENDBRANCH   4  15
TORSDOF 7
ENDMDL
MODEL 8
REMARK VINA RESULT:      -7.2      5.138      9.637
REMARK  Name = 
REMARK  10 active torsions:
REMARK  status: ('A' for Active; 'I' for Inactive)
REMARK    1  A    between atoms: C_1  and  C_2
REMARK    2  A    between atoms: C_6  and  N_7
REMARK    3  A    between atoms: C_10  and  C_11
REMARK    4  A    between atoms: C_15  and  O_16
REMARK    5  A    between atoms: O_16  and  C_17
REMARK    6  A    between atoms: C_17  and  C_18
REMARK    7  A    between atoms: C_18  and  C_19
REMARK    8  A    between atoms: C_19  and  N_20
REMARK    9  A    between atoms: N_20  and  C_21
REMARK   10  A    between atoms: N_20  and  C_22
REMARK                            x       y       z     vdW  Elec       q    Type
REMARK                         _______ _______ _______ _____ _____    ______ ____
ROOT
ATOM      1  N   UNL     1       2.713   6.279  18.338  0.00  0.00    +0.000 N 
ATOM      2  C   UNL     1       2.266   7.497  18.734  0.00  0.00    +0.000 A 
ATOM      3  N   UNL     1       1.668   7.788  19.866  0.00  0.00    +0.000 NA
ATOM      4  C   UNL     1       1.228   9.095  19.884  0.00  0.00    +0.000 A 
ATOM      5  C   UNL     1       1.556   9.828  18.764  0.00  0.00    +0.000 A 
ATOM      6  S   UNL     1       2.440   8.849  17.669  0.00  0.00    +0.000 S 
ATOM      7  H   UNL     1       3.101   6.234  17.406  0.00  0.00    +0.000 HD
ENDROOT
BRANCH   1  13
ATOM      8  C   UNL     1       2.131   3.016  22.060  0.00  0.00    +0.000 C 
ATOM      9  C   UNL     1       1.932   3.393  20.622  0.00  0.00    +0.000 A 
ATOM     10  C   UNL     1       1.229   2.570  19.741  0.00  0.00    +0.000 A 
ATOM     11  C   UNL     1       1.061   2.954  18.412  0.00  0.00    +0.000 A 
ATOM     12  C   UNL     1       1.582   4.170  17.960  0.00  0.00    +0.000 A 
ATOM     13  C   UNL     1       2.269   5.031  18.829  0.00  0.00    +0.000 A 
ATOM     14  C   UNL     1       2.453   4.609  20.152  0.00  0.00    +0.000 A 
ENDBRANCH   1  13
BRANCH   4  15
ATOM     15  C   UNL     1       0.507   9.608  21.038  0.00  0.00    +0.000 A 
ATOM     16  C   UNL     1       0.684   8.994  22.281  0.00  0.00    +0.000 A 
ATOM     17  C   UNL     1       0.006   9.501  23.373  0.00  0.00    +0.000 A 
ATOM     18  N   UNL     1      -0.819  10.564  23.309  0.00  0.00    +0.000 NA
ATOM     19  C   UNL     1      -0.987  11.130  22.095  0.00  0.00    +0.000 A 
ATOM     20  C   UNL     1      -0.372  10.685  20.939  0.00  0.00    +0.000 A 
BRANCH  19  21
ATOM     21  O   UNL     1      -1.850  12.199  21.960  0.00  0.00    +0.000 OA
BRANCH  21  22
ATOM     22  C   UNL     1      -2.168  12.789  23.223  0.00  0.00    +0.000 C 
BRANCH  22  23
ATOM     23  C   UNL     1      -3.657  12.592  23.487  0.00  0.00    +0.000 C 
BRANCH  23  24
ATOM     24  C   UNL     1      -4.462  12.865  22.214  0.00  0.00    +0.000 C 
BRANCH  24  25
ATOM     25  N   UNL     1      -5.272  14.094  22.273  0.00  0.00    +0.000 NA
ATOM     26  C   UNL     1      -5.325  14.656  23.624  0.00  0.00    +0.000 C 
ATOM     27  C   UNL     1      -4.720  15.093  21.350  0.00  0.00    +0.000 C 
ENDBRANCH  24  25
ENDBRANCH  23  24
ENDBRANCH  22  23
ENDBRANCH  21  22
ENDBRANCH  19  21
ENDBRANCH   4  15
TORSDOF 7
ENDMDL
MODEL 9
REMARK VINA RESULT:      -7.2      3.827      7.758
REMARK  Name = 
REMARK  10 active torsions:
REMARK  status: ('A' for Active; 'I' for Inactive)
REMARK    1  A    between atoms: C_1  and  C_2
REMARK    2  A    between atoms: C_6  and  N_7
REMARK    3  A    between atoms: C_10  and  C_11
REMARK    4  A    between atoms: C_15  and  O_16
REMARK    5  A    between atoms: O_16  and  C_17
REMARK    6  A    between atoms: C_17  and  C_18
REMARK    7  A    between atoms: C_18  and  C_19
REMARK    8  A    between atoms: C_19  and  N_20
REMARK    9  A    between atoms: N_20  and  C_21
REMARK   10  A    between atoms: N_20  and  C_22
REMARK                            x       y       z     vdW  Elec       q    Type
REMARK                         _______ _______ _______ _____ _____    ______ ____
ROOT
ATOM      1  N   UNL     1       4.132   3.600  18.426  0.00  0.00    +0.000 N 
ATOM      2  C   UNL     1       3.308   4.452  19.086  0.00  0.00    +0.000 A 
ATOM      3  N   UNL     1       3.035   5.695  18.762  0.00  0.00    +0.000 NA
ATOM      4  C   UNL     1       2.265   6.311  19.725  0.00  0.00    +0.000 A 
ATOM      5  C   UNL     1       1.895   5.496  20.775  0.00  0.00    +0.000 A 
ATOM      6  S   UNL     1       2.529   3.921  20.536  0.00  0.00    +0.000 S 
ATOM      7  H   UNL     1       4.265   2.694  18.855  0.00  0.00    +0.000 HD
ENDROOT
BRANCH   1  13
ATOM      8  C   UNL     1       5.985   4.029  13.819  0.00  0.00    +0.000 C 
ATOM      9  C   UNL     1       6.129   4.225  15.299  0.00  0.00    +0.000 A 
ATOM     10  C   UNL     1       7.249   4.853  15.848  0.00  0.00    +0.000 A 
ATOM     11  C   UNL     1       7.347   5.020  17.227  0.00  0.00    +0.000 A 
ATOM     12  C   UNL     1       6.320   4.576  18.065  0.00  0.00    +0.000 A 
ATOM     13  C   UNL     1       5.170   3.967  17.540  0.00  0.00    +0.000 A 
ATOM     14  C   UNL     1       5.109   3.780  16.154  0.00  0.00    +0.000 A 
ENDBRANCH   1  13
BRANCH   4  15
ATOM     15  C   UNL     1       1.881   7.705  19.574  0.00  0.00    +0.000 A 
ATOM     16  C   UNL     1       2.083   8.338  18.344  0.00  0.00    +0.000 A 
ATOM     17  C   UNL     1       1.699   9.658  18.208  0.00  0.00    +0.000 A 
ATOM     18  N   UNL     1       1.131  10.374  19.198  0.00  0.00    +0.000 NA
ATOM     19  C   UNL     1       0.961   9.747  20.380  0.00  0.00    +0.000 A 
ATOM     20  C   UNL     1       1.331   8.438  20.625  0.00  0.00    +0.000 A 
BRANCH  19  21
ATOM     21  O   UNL     1       0.420  10.442  21.443  0.00  0.00    +0.000 OA
BRANCH  21  22
ATOM     22  C   UNL     1      -0.648  11.299  21.030  0.00  0.00    +0.000 C 
BRANCH  22  23
ATOM     23  C   UNL     1      -0.492  12.640  21.739  0.00  0.00    +0.000 C 
BRANCH  23  24
ATOM     24  C   UNL     1       0.536  13.510  21.010  0.00  0.00    +0.000 C 
BRANCH  24  25
ATOM     25  N   UNL     1      -0.062  14.563  20.172  0.00  0.00    +0.000 NA
ATOM     26  C   UNL     1      -0.172  14.158  18.770  0.00  0.00    +0.000 C 
ATOM     27  C   UNL     1      -1.392  14.906  20.688  0.00  0.00    +0.000 C 
ENDBRANCH  24  25
ENDBRANCH  23  24
ENDBRANCH  22  23
ENDBRANCH  21  22
ENDBRANCH  19  21
ENDBRANCH   4  15
TORSDOF 7
ENDMDL
