MODEL 1
REMARK VINA RESULT:      -8.7      0.000      0.000
REMARK  Name = 
REMARK  10 active torsions:
REMARK  status: ('A' for Active; 'I' for Inactive)
REMARK    1  A    between atoms: C_1  and  C_2
REMARK    2  A    between atoms: N_4  and  C_5
REMARK    3  A    between atoms: C_5  and  C_6
REMARK    4  A    between atoms: C_8  and  N_9
REMARK    5  A    between atoms: C_10  and  C_12
REMARK    6  A    between atoms: C_12  and  N_13
REMARK    7  A    between atoms: C_12  and  C_14
REMARK    8  A    between atoms: C_14  and  C_15
REMARK    9  A    between atoms: C_24  and  C_25
REMARK   10  A    between atoms: C_25  and  O_26
REMARK                            x       y       z     vdW  Elec       q    Type
REMARK                         _______ _______ _______ _____ _____    ______ ____
ROOT
ATOM      1  C   UNL     1       4.467   4.720  19.476  0.00  0.00    +0.000 C 
ATOM      2  C   UNL     1       4.002   6.051  18.911  0.00  0.00    +0.000 C 
ATOM      3  C   UNL     1       2.485   6.026  19.015  0.00  0.00    +0.000 C 
ATOM      4  C   UNL     1       2.251   5.104  20.218  0.00  0.00    +0.000 C 
ATOM      5  O   UNL     1       3.452   4.305  20.405  0.00  0.00    +0.000 OA
ENDROOT
BRANCH   3   6
ATOM      6  N   UNL     1       1.972   7.390  19.155  0.00  0.00    +0.000 N 
ATOM      7  C   UNL     1       2.166   8.364  18.203  0.00  0.00    +0.000 C 
ATOM      8  O   UNL     1       2.586   8.097  17.081  0.00  0.00    +0.000 OA
ATOM      9  H   UNL     1       1.762   7.699  20.092  0.00  0.00    +0.000 HD
BRANCH   7  10
ATOM     10  C   UNL     1       1.718   9.816  18.562  0.00  0.00    +0.000 C 
BRANCH  10  11
ATOM     11  N   UNL     1       2.152  10.729  17.476  0.00  0.00    +0.000 NA
ATOM     12  H   UNL     1       2.661  10.214  16.762  0.00  0.00    +0.000 HD
ATOM     13  H   UNL     1       2.835  11.378  17.881  0.00  0.00    +0.000 HD
ENDBRANCH  10  11
BRANCH  10  14
ATOM     14  C   UNL     1       0.217  10.034  18.931  0.00  0.00    +0.000 C 
BRANCH  14  15
ATOM     15  C   UNL     1       0.011  10.166  20.412  0.00  0.00    +0.000 A 
ATOM     16  C   UNL     1      -0.294   9.063  21.198  0.00  0.00    +0.000 A 
ATOM     17  N   UNL     1      -0.237   9.485  22.494  0.00  0.00    +0.000 N 
ATOM     18  C   UNL     1      -0.712  10.777  22.430  0.00  0.00    +0.000 A 
ATOM     19  C   UNL     1      -1.585  11.459  23.267  0.00  0.00    +0.000 A 
ATOM     20  C   UNL     1      -1.688  12.826  23.051  0.00  0.00    +0.000 A 
ATOM     21  C   UNL     1      -0.838  13.460  22.139  0.00  0.00    +0.000 A 
ATOM     22  C   UNL     1      -0.046  12.720  21.228  0.00  0.00    +0.000 A 
ATOM     23  C   UNL     1      -0.139  11.316  21.280  0.00  0.00    +0.000 A 
ATOM     24  H   UNL     1       0.609   9.310  23.024  0.00  0.00    +0.000 HD
ENDBRANCH  14  15
ENDBRANCH  10  14
ENDBRANCH   7  10
ENDBRANCH   3   6
BRANCH   1  25
ATOM     25  C   UNL     1       4.679   3.643  18.394  0.00  0.00    +0.000 C 
BRANCH  25  29
ATOM     26  C   UNL     1       5.349   4.268  13.515  0.00  0.00    +0.000 C 
ATOM     27  C   UNL     1       5.806   4.380  14.932  0.00  0.00    +0.000 A 
ATOM     28  C   UNL     1       5.074   3.998  15.988  0.00  0.00    +0.000 A 
ATOM     29  N   UNL     1       5.532   4.100  17.284  0.00  0.00    +0.000 N 
ATOM     30  C   UNL     1       6.800   4.586  17.575  0.00  0.00    +0.000 A 
ATOM     31  O   UNL     1       7.256   4.640  18.699  0.00  0.00    +0.000 OA
ATOM     32  N   UNL     1       7.535   5.000  16.491  0.00  0.00    +0.000 N 
ATOM     33  C   UNL     1       7.151   4.939  15.182  0.00  0.00    +0.000 A 
ATOM     34  O   UNL     1       7.880   5.316  14.265  0.00  0.00    +0.000 OA
ATOM     35  H   UNL     1       8.459   5.366  16.681  0.00  0.00    +0.000 HD
ENDBRANCH  25  29
ENDBRANCH   1  25
BRANCH   4  36
ATOM     36  C   UNL     1       1.095   4.116  20.040  0.00  0.00    +0.000 C 
BRANCH  36  37
ATOM     37  O   UNL     1       1.101   3.595  18.706  0.00  0.00    +0.000 OA
ATOM     38  H   UNL     1       0.212   3.779  18.347  0.00  0.00    +0.000 HD
ENDBRANCH  36  37
ENDBRANCH   4  36
TORSDOF 9
ENDMDL
MODEL 2
REMARK VINA RESULT:      -8.7      2.301      2.826
REMARK  Name = 
REMARK  10 active torsions:
REMARK  status: ('A' for Active; 'I' for Inactive)
REMARK    1  A    between atoms: C_1  and  C_2
REMARK    2  A    between atoms: N_4  and  C_5
REMARK    3  A    between atoms: C_5  and  C_6
REMARK    4  A    between atoms: C_8  and  N_9
REMARK    5  A    between atoms: C_10  and  C_12
REMARK    6  A    between atoms: C_12  and  N_13
REMARK    7  A    between atoms: C_12  and  C_14
REMARK    8  A    between atoms: C_14  and  C_15
REMARK    9  A    between atoms: C_24  and  C_25
REMARK   10  A    between atoms: C_25  and  O_26
REMARK                            x       y       z     vdW  Elec       q    Type
REMARK                         _______ _______ _______ _____ _____    ______ ____
ROOT
ATOM      1  C   UNL     1       4.312   4.706  19.625  0.00  0.00    +0.000 C 
ATOM      2  C   UNL     1       4.256   6.017  18.862  0.00  0.00    +0.000 C 
ATOM      3  C   UNL     1       2.988   5.942  18.024  0.00  0.00    +0.000 C 
ATOM      4  C   UNL     1       2.093   5.020  18.861  0.00  0.00    +0.000 C 
ATOM      5  O   UNL     1       2.951   4.263  19.758  0.00  0.00    +0.000 OA
ENDROOT
BRANCH   3   6
ATOM      6  N   UNL     1       2.465   7.289  17.790  0.00  0.00    +0.000 N 
ATOM      7  C   UNL     1       1.959   8.081  18.795  0.00  0.00    +0.000 C 
ATOM      8  O   UNL     1       2.116   7.800  19.979  0.00  0.00    +0.000 OA
ATOM      9  H   UNL     1       2.178   7.504  16.847  0.00  0.00    +0.000 HD
BRANCH   7  10
ATOM     10  C   UNL     1       1.276   9.421  18.375  0.00  0.00    +0.000 C 
BRANCH  10  11
ATOM     11  N   UNL     1       2.251  10.226  17.598  0.00  0.00    +0.000 NA
ATOM     12  H   UNL     1       1.881  10.438  16.675  0.00  0.00    +0.000 HD
ATOM     13  H   UNL     1       3.070   9.632  17.432  0.00  0.00    +0.000 HD
ENDBRANCH  10  11
BRANCH  10  14
ATOM     14  C   UNL     1      -0.102   9.329  17.649  0.00  0.00    +0.000 C 
BRANCH  14  15
ATOM     15  C   UNL     1      -1.053  10.399  18.100  0.00  0.00    +0.000 A 
ATOM     16  C   UNL     1      -1.049  10.862  19.409  0.00  0.00    +0.000 A 
ATOM     17  N   UNL     1      -1.890  11.935  19.441  0.00  0.00    +0.000 N 
ATOM     18  C   UNL     1      -2.882  11.592  18.549  0.00  0.00    +0.000 A 
ATOM     19  C   UNL     1      -4.260  11.742  18.631  0.00  0.00    +0.000 A 
ATOM     20  C   UNL     1      -4.967  11.495  17.462  0.00  0.00    +0.000 A 
ATOM     21  C   UNL     1      -4.285  11.258  16.265  0.00  0.00    +0.000 A 
ATOM     22  C   UNL     1      -2.894  11.000  16.243  0.00  0.00    +0.000 A 
ATOM     23  C   UNL     1      -2.216  10.999  17.478  0.00  0.00    +0.000 A 
ATOM     24  H   UNL     1      -1.491  12.865  19.381  0.00  0.00    +0.000 HD
ENDBRANCH  14  15
ENDBRANCH  10  14
ENDBRANCH   7  10
ENDBRANCH   3   6
BRANCH   1  25
ATOM     25  C   UNL     1       5.161   3.629  18.922  0.00  0.00    +0.000 C 
BRANCH  25  29
ATOM     26  C   UNL     1       5.320   4.132  13.985  0.00  0.00    +0.000 C 
ATOM     27  C   UNL     1       5.886   4.349  15.349  0.00  0.00    +0.000 A 
ATOM     28  C   UNL     1       5.299   3.931  16.480  0.00  0.00    +0.000 A 
ATOM     29  N   UNL     1       5.855   4.133  17.725  0.00  0.00    +0.000 N 
ATOM     30  C   UNL     1       7.081   4.767  17.882  0.00  0.00    +0.000 A 
ATOM     31  O   UNL     1       7.626   4.915  18.957  0.00  0.00    +0.000 OA
ATOM     32  N   UNL     1       7.666   5.216  16.723  0.00  0.00    +0.000 N 
ATOM     33  C   UNL     1       7.176   5.062  15.458  0.00  0.00    +0.000 A 
ATOM     34  O   UNL     1       7.774   5.480  14.466  0.00  0.00    +0.000 OA
ATOM     35  H   UNL     1       8.555   5.688  16.816  0.00  0.00    +0.000 HD
ENDBRANCH  25  29
ENDBRANCH   1  25
BRANCH   4  36
ATOM     36  C   UNL     1       1.304   3.994  18.043  0.00  0.00    +0.000 C 
BRANCH  36  37
ATOM     37  O   UNL     1       0.769   2.987  18.910  0.00  0.00    +0.000 OA
ATOM     38  H   UNL     1      -0.096   3.328  19.207  0.00  0.00    +0.000 HD
ENDBRANCH  36  37
ENDBRANCH   4  36
TORSDOF 9
ENDMDL
MODEL 3
REMARK VINA RESULT:      -8.5      3.975     10.563
REMARK  Name = 
REMARK  10 active torsions:
REMARK  status: ('A' for Active; 'I' for Inactive)
REMARK    1  A    between atoms: C_1  and  C_2
REMARK    2  A    between atoms: N_4  and  C_5
REMARK    3  A    between atoms: C_5  and  C_6
REMARK    4  A    between atoms: C_8  and  N_9
REMARK    5  A    between atoms: C_10  and  C_12
REMARK    6  A    between atoms: C_12  and  N_13
REMARK    7  A    between atoms: C_12  and  C_14
REMARK    8  A    between atoms: C_14  and  C_15
REMARK    9  A    between atoms: C_24  and  C_25
REMARK   10  A    between atoms: C_25  and  O_26
REMARK                            x       y       z     vdW  Elec       q    Type
REMARK                         _______ _______ _______ _____ _____    ______ ____
ROOT
ATOM      1  C   UNL     1      -1.126  11.503  20.195  0.00  0.00    +0.000 C 
ATOM      2  C   UNL     1      -0.702  10.066  19.945  0.00  0.00    +0.000 C 
ATOM      3  C   UNL     1       0.664  10.157  19.282  0.00  0.00    +0.000 C 
ATOM      4  C   UNL     1       1.216  11.474  19.842  0.00  0.00    +0.000 C 
ATOM      5  O   UNL     1       0.089  12.261  20.318  0.00  0.00    +0.000 OA
ENDROOT
BRANCH   3   6
ATOM      6  N   UNL     1       1.449   8.961  19.591  0.00  0.00    +0.000 N 
ATOM      7  C   UNL     1       2.077   8.208  18.625  0.00  0.00    +0.000 C 
ATOM      8  O   UNL     1       2.207   8.612  17.474  0.00  0.00    +0.000 OA
ATOM      9  H   UNL     1       1.254   8.509  20.472  0.00  0.00    +0.000 HD
BRANCH   7  10
ATOM     10  C   UNL     1       2.730   6.864  19.079  0.00  0.00    +0.000 C 
BRANCH  10  11
ATOM     11  N   UNL     1       2.117   6.450  20.366  0.00  0.00    +0.000 NA
ATOM     12  H   UNL     1       2.834   6.330  21.077  0.00  0.00    +0.000 HD
ATOM     13  H   UNL     1       1.716   5.517  20.224  0.00  0.00    +0.000 HD
ENDBRANCH  10  11
BRANCH  10  14
ATOM     14  C   UNL     1       2.751   5.692  18.049  0.00  0.00    +0.000 C 
BRANCH  14  15
ATOM     15  C   UNL     1       4.082   5.000  18.005  0.00  0.00    +0.000 A 
ATOM     16  C   UNL     1       4.868   4.875  19.143  0.00  0.00    +0.000 A 
ATOM     17  N   UNL     1       5.904   4.054  18.809  0.00  0.00    +0.000 N 
ATOM     18  C   UNL     1       6.164   4.386  17.496  0.00  0.00    +0.000 A 
ATOM     19  C   UNL     1       7.371   4.569  16.835  0.00  0.00    +0.000 A 
ATOM     20  C   UNL     1       7.293   4.680  15.453  0.00  0.00    +0.000 A 
ATOM     21  C   UNL     1       6.077   4.467  14.798  0.00  0.00    +0.000 A 
ATOM     22  C   UNL     1       4.855   4.396  15.509  0.00  0.00    +0.000 A 
ATOM     23  C   UNL     1       4.911   4.542  16.909  0.00  0.00    +0.000 A 
ATOM     24  H   UNL     1       5.844   3.072  19.053  0.00  0.00    +0.000 HD
ENDBRANCH  14  15
ENDBRANCH  10  14
ENDBRANCH   7  10
ENDBRANCH   3   6
BRANCH   1  25
ATOM     25  C   UNL     1      -2.008  12.080  19.070  0.00  0.00    +0.000 C 
BRANCH  25  29
ATOM     26  C   UNL     1      -6.764  10.784  18.479  0.00  0.00    +0.000 C 
ATOM     27  C   UNL     1      -5.689  11.578  19.143  0.00  0.00    +0.000 A 
ATOM     28  C   UNL     1      -4.386  11.475  18.843  0.00  0.00    +0.000 A 
ATOM     29  N   UNL     1      -3.418  12.234  19.465  0.00  0.00    +0.000 N 
ATOM     30  C   UNL     1      -3.740  13.179  20.431  0.00  0.00    +0.000 A 
ATOM     31  O   UNL     1      -2.920  13.902  20.960  0.00  0.00    +0.000 OA
ATOM     32  N   UNL     1      -5.073  13.262  20.753  0.00  0.00    +0.000 N 
ATOM     33  C   UNL     1      -6.087  12.542  20.190  0.00  0.00    +0.000 A 
ATOM     34  O   UNL     1      -7.262  12.690  20.524  0.00  0.00    +0.000 OA
ATOM     35  H   UNL     1      -5.328  13.938  21.461  0.00  0.00    +0.000 HD
ENDBRANCH  25  29
ENDBRANCH   1  25
BRANCH   4  36
ATOM     36  C   UNL     1       1.948  12.340  18.812  0.00  0.00    +0.000 C 
BRANCH  36  37
ATOM     37  O   UNL     1       2.205  11.575  17.629  0.00  0.00    +0.000 OA
ATOM     38  H   UNL     1       3.041  11.925  17.265  0.00  0.00    +0.000 HD
ENDBRANCH  36  37
ENDBRANCH   4  36
TORSDOF 9
ENDMDL
MODEL 4
REMARK VINA RESULT:      -8.5      1.985      3.289
REMARK  Name = 
REMARK  10 active torsions:
REMARK  status: ('A' for Active; 'I' for Inactive)
REMARK    1  A    between atoms: C_1  and  C_2
REMARK    2  A    between atoms: N_4  and  C_5
REMARK    3  A    between atoms: C_5  and  C_6
REMARK    4  A    between atoms: C_8  and  N_9
REMARK    5  A    between atoms: C_10  and  C_12
REMARK    6  A    between atoms: C_12  and  N_13
REMARK    7  A    between atoms: C_12  and  C_14
REMARK    8  A    between atoms: C_14  and  C_15
REMARK    9  A    between atoms: C_24  and  C_25
REMARK   10  A    between atoms: C_25  and  O_26
REMARK                            x       y       z     vdW  Elec       q    Type
REMARK                         _______ _______ _______ _____ _____    ______ ____
ROOT
ATOM      1  C   UNL     1       2.897   4.286  19.153  0.00  0.00    +0.000 C 
ATOM      2  C   UNL     1       2.326   5.074  20.318  0.00  0.00    +0.000 C 
ATOM      3  C   UNL     1       2.496   6.537  19.938  0.00  0.00    +0.000 C 
ATOM      4  C   UNL     1       2.450   6.488  18.405  0.00  0.00    +0.000 C 
ATOM      5  O   UNL     1       2.757   5.127  17.996  0.00  0.00    +0.000 OA
ENDROOT
BRANCH   3   6
ATOM      6  N   UNL     1       1.453   7.343  20.576  0.00  0.00    +0.000 N 
ATOM      7  C   UNL     1       1.287   8.686  20.326  0.00  0.00    +0.000 C 
ATOM      8  O   UNL     1       1.854   9.244  19.392  0.00  0.00    +0.000 OA
ATOM      9  H   UNL     1       1.072   6.985  21.439  0.00  0.00    +0.000 HD
BRANCH   7  10
ATOM     10  C   UNL     1       0.252   9.454  21.207  0.00  0.00    +0.000 C 
BRANCH  10  11
ATOM     11  N   UNL     1       0.375   8.978  22.608  0.00  0.00    +0.000 NA
ATOM     12  H   UNL     1       1.163   9.429  23.067  0.00  0.00    +0.000 HD
ATOM     13  H   UNL     1       0.618   7.982  22.568  0.00  0.00    +0.000 HD
ENDBRANCH  10  11
BRANCH  10  14
ATOM     14  C   UNL     1       0.256  11.013  21.128  0.00  0.00    +0.000 C 
BRANCH  14  15
ATOM     15  C   UNL     1      -0.840  11.539  20.248  0.00  0.00    +0.000 A 
ATOM     16  C   UNL     1      -1.777  12.445  20.727  0.00  0.00    +0.000 A 
ATOM     17  N   UNL     1      -2.506  12.851  19.649  0.00  0.00    +0.000 N 
ATOM     18  C   UNL     1      -2.581  11.719  18.867  0.00  0.00    +0.000 A 
ATOM     19  C   UNL     1      -3.647  11.181  18.159  0.00  0.00    +0.000 A 
ATOM     20  C   UNL     1      -3.335  10.146  17.288  0.00  0.00    +0.000 A 
ATOM     21  C   UNL     1      -2.001   9.800  17.057  0.00  0.00    +0.000 A 
ATOM     22  C   UNL     1      -0.956  10.289  17.877  0.00  0.00    +0.000 A 
ATOM     23  C   UNL     1      -1.311  11.150  18.934  0.00  0.00    +0.000 A 
ATOM     24  H   UNL     1      -2.263  13.728  19.201  0.00  0.00    +0.000 HD
ENDBRANCH  14  15
ENDBRANCH  10  14
ENDBRANCH   7  10
ENDBRANCH   3   6
BRANCH   1  25
ATOM     25  C   UNL     1       4.372   3.889  19.355  0.00  0.00    +0.000 C 
BRANCH  25  29
ATOM     26  C   UNL     1       5.521   4.109  14.529  0.00  0.00    +0.000 C 
ATOM     27  C   UNL     1       5.766   4.464  15.959  0.00  0.00    +0.000 A 
ATOM     28  C   UNL     1       4.993   4.056  16.976  0.00  0.00    +0.000 A 
ATOM     29  N   UNL     1       5.256   4.388  18.288  0.00  0.00    +0.000 N 
ATOM     30  C   UNL     1       6.361   5.151  18.640  0.00  0.00    +0.000 A 
ATOM     31  O   UNL     1       6.653   5.418  19.789  0.00  0.00    +0.000 OA
ATOM     32  N   UNL     1       7.135   5.588  17.592  0.00  0.00    +0.000 N 
ATOM     33  C   UNL     1       6.937   5.309  16.270  0.00  0.00    +0.000 A 
ATOM     34  O   UNL     1       7.691   5.726  15.391  0.00  0.00    +0.000 OA
ATOM     35  H   UNL     1       7.940   6.153  17.826  0.00  0.00    +0.000 HD
ENDBRANCH  25  29
ENDBRANCH   1  25
BRANCH   4  36
ATOM     36  C   UNL     1       3.473   7.393  17.714  0.00  0.00    +0.000 C 
BRANCH  36  37
ATOM     37  O   UNL     1       2.798   8.435  17.000  0.00  0.00    +0.000 OA
ATOM     38  H   UNL     1       2.271   8.914  17.668  0.00  0.00    +0.000 HD
ENDBRANCH  36  37
ENDBRANCH   4  36
TORSDOF 9
ENDMDL
MODEL 5
REMARK VINA RESULT:      -8.4      2.243      3.793
REMARK  Name = 
REMARK  10 active torsions:
REMARK  status: ('A' for Active; 'I' for Inactive)
REMARK    1  A    between atoms: C_1  and  C_2
REMARK    2  A    between atoms: N_4  and  C_5
REMARK    3  A    between atoms: C_5  and  C_6
REMARK    4  A    between atoms: C_8  and  N_9
REMARK    5  A    between atoms: C_10  and  C_12
REMARK    6  A    between atoms: C_12  and  N_13
REMARK    7  A    between atoms: C_12  and  C_14
REMARK    8  A    between atoms: C_14  and  C_15
REMARK    9  A    between atoms: C_24  and  C_25
REMARK   10  A    between atoms: C_25  and  O_26
REMARK                            x       y       z     vdW  Elec       q    Type
REMARK                         _______ _______ _______ _____ _____    ______ ____
ROOT
ATOM      1  C   UNL     1       2.508   4.740  19.499  0.00  0.00    +0.000 C 
ATOM      2  C   UNL     1       1.817   5.513  20.608  0.00  0.00    +0.000 C 
ATOM      3  C   UNL     1       1.945   6.978  20.219  0.00  0.00    +0.000 C 
ATOM      4  C   UNL     1       2.012   6.909  18.688  0.00  0.00    +0.000 C 
ATOM      5  O   UNL     1       2.413   5.559  18.323  0.00  0.00    +0.000 OA
ENDROOT
BRANCH   3   6
ATOM      6  N   UNL     1       0.822   7.740  20.769  0.00  0.00    +0.000 N 
ATOM      7  C   UNL     1       0.831   9.111  20.881  0.00  0.00    +0.000 C 
ATOM      8  O   UNL     1       1.683   9.799  20.327  0.00  0.00    +0.000 OA
ATOM      9  H   UNL     1       0.182   7.234  21.363  0.00  0.00    +0.000 HD
BRANCH   7  10
ATOM     10  C   UNL     1      -0.358   9.774  21.645  0.00  0.00    +0.000 C 
BRANCH  10  11
ATOM     11  N   UNL     1      -0.331   9.313  23.056  0.00  0.00    +0.000 NA
ATOM     12  H   UNL     1       0.628   9.160  23.360  0.00  0.00    +0.000 HD
ATOM     13  H   UNL     1      -0.773   8.388  23.080  0.00  0.00    +0.000 HD
ENDBRANCH  10  11
BRANCH  10  14
ATOM     14  C   UNL     1      -0.498  11.326  21.551  0.00  0.00    +0.000 C 
BRANCH  14  15
ATOM     15  C   UNL     1      -1.471  11.743  20.488  0.00  0.00    +0.000 A 
ATOM     16  C   UNL     1      -2.575  12.528  20.789  0.00  0.00    +0.000 A 
ATOM     17  N   UNL     1      -3.141  12.873  19.597  0.00  0.00    +0.000 N 
ATOM     18  C   UNL     1      -2.944  11.756  18.815  0.00  0.00    +0.000 A 
ATOM     19  C   UNL     1      -3.798  11.116  17.926  0.00  0.00    +0.000 A 
ATOM     20  C   UNL     1      -3.218  10.142  17.125  0.00  0.00    +0.000 A 
ATOM     21  C   UNL     1      -1.833   9.952  17.139  0.00  0.00    +0.000 A 
ATOM     22  C   UNL     1      -1.016  10.539  18.134  0.00  0.00    +0.000 A 
ATOM     23  C   UNL     1      -1.651  11.331  19.110  0.00  0.00    +0.000 A 
ATOM     24  H   UNL     1      -2.923  13.781  19.201  0.00  0.00    +0.000 HD
ENDBRANCH  14  15
ENDBRANCH  10  14
ENDBRANCH   7  10
ENDBRANCH   3   6
BRANCH   1  25
ATOM     25  C   UNL     1       3.982   4.416  19.812  0.00  0.00    +0.000 C 
BRANCH  25  29
ATOM     26  C   UNL     1       7.453   7.035  17.416  0.00  0.00    +0.000 C 
ATOM     27  C   UNL     1       6.534   5.864  17.533  0.00  0.00    +0.000 A 
ATOM     28  C   UNL     1       5.716   5.655  18.574  0.00  0.00    +0.000 A 
ATOM     29  N   UNL     1       4.867   4.571  18.645  0.00  0.00    +0.000 N 
ATOM     30  C   UNL     1       4.790   3.636  17.621  0.00  0.00    +0.000 A 
ATOM     31  O   UNL     1       4.017   2.699  17.626  0.00  0.00    +0.000 OA
ATOM     32  N   UNL     1       5.649   3.841  16.570  0.00  0.00    +0.000 N 
ATOM     33  C   UNL     1       6.522   4.882  16.430  0.00  0.00    +0.000 A 
ATOM     34  O   UNL     1       7.248   5.002  15.443  0.00  0.00    +0.000 OA
ATOM     35  H   UNL     1       5.616   3.166  15.817  0.00  0.00    +0.000 HD
ENDBRANCH  25  29
ENDBRANCH   1  25
BRANCH   4  36
ATOM     36  C   UNL     1       3.039   7.854  18.059  0.00  0.00    +0.000 C 
BRANCH  36  37
ATOM     37  O   UNL     1       2.373   8.989  17.493  0.00  0.00    +0.000 OA
ATOM     38  H   UNL     1       2.242   8.774  16.550  0.00  0.00    +0.000 HD
ENDBRANCH  36  37
ENDBRANCH   4  36
TORSDOF 9
ENDMDL
MODEL 6
REMARK VINA RESULT:      -8.3      2.210      3.206
REMARK  Name = 
REMARK  10 active torsions:
REMARK  status: ('A' for Active; 'I' for Inactive)
REMARK    1  A    between atoms: C_1  and  C_2
REMARK    2  A    between atoms: N_4  and  C_5
REMARK    3  A    between atoms: C_5  and  C_6
REMARK    4  A    between atoms: C_8  and  N_9
REMARK    5  A    between atoms: C_10  and  C_12
REMARK    6  A    between atoms: C_12  and  N_13
REMARK    7  A    between atoms: C_12  and  C_14
REMARK    8  A    between atoms: C_14  and  C_15
REMARK    9  A    between atoms: C_24  and  C_25
REMARK   10  A    between atoms: C_25  and  O_26
REMARK                            x       y       z     vdW  Elec       q    Type
REMARK                         _______ _______ _______ _____ _____    ______ ____
ROOT
ATOM      1  C   UNL     1       3.619   3.948  20.402  0.00  0.00    +0.000 C 
ATOM      2  C   UNL     1       3.549   5.419  20.031  0.00  0.00    +0.000 C 
ATOM      3  C   UNL     1       2.395   5.533  19.046  0.00  0.00    +0.000 C 
ATOM      4  C   UNL     1       1.484   4.373  19.469  0.00  0.00    +0.000 C 
ATOM      5  O   UNL     1       2.290   3.429  20.226  0.00  0.00    +0.000 OA
ENDROOT
BRANCH   3   6
ATOM      6  N   UNL     1       1.799   6.867  19.129  0.00  0.00    +0.000 N 
ATOM      7  C   UNL     1       2.318   7.961  18.474  0.00  0.00    +0.000 C 
ATOM      8  O   UNL     1       3.178   7.845  17.606  0.00  0.00    +0.000 OA
ATOM      9  H   UNL     1       1.204   7.047  19.923  0.00  0.00    +0.000 HD
BRANCH   7  10
ATOM     10  C   UNL     1       1.685   9.352  18.792  0.00  0.00    +0.000 C 
BRANCH  10  11
ATOM     11  N   UNL     1       1.527  10.102  17.520  0.00  0.00    +0.000 NA
ATOM     12  H   UNL     1       2.339  10.691  17.353  0.00  0.00    +0.000 HD
ATOM     13  H   UNL     1       0.744  10.752  17.648  0.00  0.00    +0.000 HD
ENDBRANCH  10  11
BRANCH  10  14
ATOM     14  C   UNL     1       0.373   9.369  19.636  0.00  0.00    +0.000 C 
BRANCH  14  15
ATOM     15  C   UNL     1      -0.557  10.469  19.215  0.00  0.00    +0.000 A 
ATOM     16  C   UNL     1      -0.741  11.598  20.002  0.00  0.00    +0.000 A 
ATOM     17  N   UNL     1      -1.491  12.465  19.263  0.00  0.00    +0.000 N 
ATOM     18  C   UNL     1      -2.341  11.636  18.562  0.00  0.00    +0.000 A 
ATOM     19  C   UNL     1      -3.697  11.757  18.291  0.00  0.00    +0.000 A 
ATOM     20  C   UNL     1      -4.212  10.859  17.365  0.00  0.00    +0.000 A 
ATOM     21  C   UNL     1      -3.357  10.004  16.665  0.00  0.00    +0.000 A 
ATOM     22  C   UNL     1      -2.005   9.830  17.049  0.00  0.00    +0.000 A 
ATOM     23  C   UNL     1      -1.549  10.562  18.163  0.00  0.00    +0.000 A 
ATOM     24  H   UNL     1      -1.019  13.206  18.758  0.00  0.00    +0.000 HD
ENDBRANCH  14  15
ENDBRANCH  10  14
ENDBRANCH   7  10
ENDBRANCH   3   6
BRANCH   1  25
ATOM     25  C   UNL     1       4.624   3.154  19.545  0.00  0.00    +0.000 C 
BRANCH  25  29
ATOM     26  C   UNL     1       8.136   6.573  18.754  0.00  0.00    +0.000 C 
ATOM     27  C   UNL     1       7.071   5.644  18.273  0.00  0.00    +0.000 A 
ATOM     28  C   UNL     1       6.363   4.836  19.075  0.00  0.00    +0.000 A 
ATOM     29  N   UNL     1       5.374   4.001  18.602  0.00  0.00    +0.000 N 
ATOM     30  C   UNL     1       5.032   3.964  17.256  0.00  0.00    +0.000 A 
ATOM     31  O   UNL     1       4.131   3.280  16.813  0.00  0.00    +0.000 OA
ATOM     32  N   UNL     1       5.778   4.775  16.436  0.00  0.00    +0.000 N 
ATOM     33  C   UNL     1       6.775   5.621  16.826  0.00  0.00    +0.000 A 
ATOM     34  O   UNL     1       7.385   6.330  16.026  0.00  0.00    +0.000 OA
ATOM     35  H   UNL     1       5.551   4.756  15.451  0.00  0.00    +0.000 HD
ENDBRANCH  25  29
ENDBRANCH   1  25
BRANCH   4  36
ATOM     36  C   UNL     1       0.877   3.590  18.301  0.00  0.00    +0.000 C 
BRANCH  36  37
ATOM     37  O   UNL     1       1.157   4.262  17.068  0.00  0.00    +0.000 OA
ATOM     38  H   UNL     1       0.288   4.421  16.651  0.00  0.00    +0.000 HD
ENDBRANCH  36  37
ENDBRANCH   4  36
TORSDOF 9
ENDMDL
MODEL 7
REMARK VINA RESULT:      -8.2      2.659      9.042
REMARK  Name = 
REMARK  10 active torsions:
REMARK  status: ('A' for Active; 'I' for Inactive)
REMARK    1  A    between atoms: C_1  and  C_2
REMARK    2  A    between atoms: N_4  and  C_5
REMARK    3  A    between atoms: C_5  and  C_6
REMARK    4  A    between atoms: C_8  and  N_9
REMARK    5  A    between atoms: C_10  and  C_12
REMARK    6  A    between atoms: C_12  and  N_13
REMARK    7  A    between atoms: C_12  and  C_14
REMARK    8  A    between atoms: C_14  and  C_15
REMARK    9  A    between atoms: C_24  and  C_25
REMARK   10  A    between atoms: C_25  and  O_26
REMARK                            x       y       z     vdW  Elec       q    Type
REMARK                         _______ _______ _______ _____ _____    ______ ____
ROOT
ATOM      1  C   UNL     1       1.074   9.220  20.911  0.00  0.00    +0.000 C 
ATOM      2  C   UNL     1       1.117   7.799  21.444  0.00  0.00    +0.000 C 
ATOM      3  C   UNL     1       1.540   6.937  20.263  0.00  0.00    +0.000 C 
ATOM      4  C   UNL     1       2.375   7.913  19.424  0.00  0.00    +0.000 C 
ATOM      5  O   UNL     1       2.005   9.264  19.817  0.00  0.00    +0.000 OA
ENDROOT
BRANCH   3   6
ATOM      6  N   UNL     1       2.249   5.749  20.742  0.00  0.00    +0.000 N 
ATOM      7  C   UNL     1       1.725   4.479  20.655  0.00  0.00    +0.000 C 
ATOM      8  O   UNL     1       0.734   4.235  19.975  0.00  0.00    +0.000 OA
ATOM      9  H   UNL     1       2.974   5.902  21.427  0.00  0.00    +0.000 HD
BRANCH   7  10
ATOM     10  C   UNL     1       2.512   3.331  21.362  0.00  0.00    +0.000 C 
BRANCH  10  11
ATOM     11  N   UNL     1       1.541   2.448  22.055  0.00  0.00    +0.000 NA
ATOM     12  H   UNL     1       0.680   2.377  21.517  0.00  0.00    +0.000 HD
ATOM     13  H   UNL     1       1.276   2.916  22.929  0.00  0.00    +0.000 HD
ENDBRANCH  10  11
BRANCH  10  14
ATOM     14  C   UNL     1       3.519   2.511  20.498  0.00  0.00    +0.000 C 
BRANCH  14  15
ATOM     15  C   UNL     1       3.775   3.152  19.165  0.00  0.00    +0.000 A 
ATOM     16  C   UNL     1       3.163   2.682  18.010  0.00  0.00    +0.000 A 
ATOM     17  N   UNL     1       3.458   3.578  17.026  0.00  0.00    +0.000 N 
ATOM     18  C   UNL     1       4.739   3.983  17.335  0.00  0.00    +0.000 A 
ATOM     19  C   UNL     1       5.840   4.194  16.516  0.00  0.00    +0.000 A 
ATOM     20  C   UNL     1       6.928   4.817  17.113  0.00  0.00    +0.000 A 
ATOM     21  C   UNL     1       6.826   5.315  18.415  0.00  0.00    +0.000 A 
ATOM     22  C   UNL     1       5.735   4.981  19.252  0.00  0.00    +0.000 A 
ATOM     23  C   UNL     1       4.747   4.130  18.720  0.00  0.00    +0.000 A 
ATOM     24  H   UNL     1       2.773   4.289  16.794  0.00  0.00    +0.000 HD
ENDBRANCH  14  15
ENDBRANCH  10  14
ENDBRANCH   7  10
ENDBRANCH   3   6
BRANCH   1  25
ATOM     25  C   UNL     1      -0.330   9.649  20.440  0.00  0.00    +0.000 C 
BRANCH  25  29
ATOM     26  C   UNL     1      -0.020  14.544  21.206  0.00  0.00    +0.000 C 
ATOM     27  C   UNL     1      -0.207  13.360  20.316  0.00  0.00    +0.000 A 
ATOM     28  C   UNL     1      -0.172  12.089  20.742  0.00  0.00    +0.000 A 
ATOM     29  N   UNL     1      -0.363  11.017  19.897  0.00  0.00    +0.000 N 
ATOM     30  C   UNL     1      -0.631  11.192  18.545  0.00  0.00    +0.000 A 
ATOM     31  O   UNL     1      -0.857  10.273  17.783  0.00  0.00    +0.000 OA
ATOM     32  N   UNL     1      -0.639  12.494  18.110  0.00  0.00    +0.000 N 
ATOM     33  C   UNL     1      -0.451  13.606  18.880  0.00  0.00    +0.000 A 
ATOM     34  O   UNL     1      -0.493  14.744  18.412  0.00  0.00    +0.000 OA
ATOM     35  H   UNL     1      -0.823  12.643  17.126  0.00  0.00    +0.000 HD
ENDBRANCH  25  29
ENDBRANCH   1  25
BRANCH   4  36
ATOM     36  C   UNL     1       2.131   7.816  17.916  0.00  0.00    +0.000 C 
BRANCH  36  37
ATOM     37  O   UNL     1       1.941   9.126  17.368  0.00  0.00    +0.000 OA
ATOM     38  H   UNL     1       1.338   9.584  17.984  0.00  0.00    +0.000 HD
ENDBRANCH  36  37
ENDBRANCH   4  36
TORSDOF 9
ENDMDL
MODEL 8
REMARK VINA RESULT:      -8.2      3.986      9.761
REMARK  Name = 
REMARK  10 active torsions:
REMARK  status: ('A' for Active; 'I' for Inactive)
REMARK    1  A    between atoms: C_1  and  C_2
REMARK    2  A    between atoms: N_4  and  C_5
REMARK    3  A    between atoms: C_5  and  C_6
REMARK    4  A    between atoms: C_8  and  N_9
REMARK    5  A    between atoms: C_10  and  C_12
REMARK    6  A    between atoms: C_12  and  N_13
REMARK    7  A    between atoms: C_12  and  C_14
REMARK    8  A    between atoms: C_14  and  C_15
REMARK    9  A    between atoms: C_24  and  C_25
REMARK   10  A    between atoms: C_25  and  O_26
REMARK                            x       y       z     vdW  Elec       q    Type
REMARK                         _______ _______ _______ _____ _____    ______ ____
ROOT
ATOM      1  C   UNL     1      -1.100  12.000  20.977  0.00  0.00    +0.000 C 
ATOM      2  C   UNL     1      -0.827  10.691  20.259  0.00  0.00    +0.000 C 
ATOM      3  C   UNL     1       0.558  10.847  19.648  0.00  0.00    +0.000 C 
ATOM      4  C   UNL     1       1.233  11.834  20.608  0.00  0.00    +0.000 C 
ATOM      5  O   UNL     1       0.185  12.536  21.332  0.00  0.00    +0.000 OA
ENDROOT
BRANCH   3   6
ATOM      6  N   UNL     1       1.201   9.537  19.531  0.00  0.00    +0.000 N 
ATOM      7  C   UNL     1       1.827   9.110  18.382  0.00  0.00    +0.000 C 
ATOM      8  O   UNL     1       2.078   9.879  17.460  0.00  0.00    +0.000 OA
ATOM      9  H   UNL     1       0.901   8.827  20.182  0.00  0.00    +0.000 HD
BRANCH   7  10
ATOM     10  C   UNL     1       2.315   7.627  18.342  0.00  0.00    +0.000 C 
BRANCH  10  11
ATOM     11  N   UNL     1       3.561   7.560  17.539  0.00  0.00    +0.000 NA
ATOM     12  H   UNL     1       3.746   6.602  17.251  0.00  0.00    +0.000 HD
ATOM     13  H   UNL     1       4.336   7.811  18.162  0.00  0.00    +0.000 HD
ENDBRANCH  10  11
BRANCH  10  14
ATOM     14  C   UNL     1       2.469   6.884  19.705  0.00  0.00    +0.000 C 
BRANCH  14  15
ATOM     15  C   UNL     1       1.902   5.495  19.661  0.00  0.00    +0.000 A 
ATOM     16  C   UNL     1       1.279   4.935  20.767  0.00  0.00    +0.000 A 
ATOM     17  N   UNL     1       0.728   3.760  20.347  0.00  0.00    +0.000 N 
ATOM     18  C   UNL     1       1.636   3.295  19.420  0.00  0.00    +0.000 A 
ATOM     19  C   UNL     1       2.129   2.015  19.205  0.00  0.00    +0.000 A 
ATOM     20  C   UNL     1       2.866   1.837  18.043  0.00  0.00    +0.000 A 
ATOM     21  C   UNL     1       2.958   2.868  17.104  0.00  0.00    +0.000 A 
ATOM     22  C   UNL     1       2.542   4.186  17.408  0.00  0.00    +0.000 A 
ATOM     23  C   UNL     1       2.022   4.421  18.696  0.00  0.00    +0.000 A 
ATOM     24  H   UNL     1      -0.256   3.746  20.104  0.00  0.00    +0.000 HD
ENDBRANCH  14  15
ENDBRANCH  10  14
ENDBRANCH   7  10
ENDBRANCH   3   6
BRANCH   1  25
ATOM     25  C   UNL     1      -1.886  13.011  20.119  0.00  0.00    +0.000 C 
BRANCH  25  29
ATOM     26  C   UNL     1      -4.229  10.801  16.341  0.00  0.00    +0.000 C 
ATOM     27  C   UNL     1      -4.206  11.387  17.714  0.00  0.00    +0.000 A 
ATOM     28  C   UNL     1      -3.110  11.900  18.291  0.00  0.00    +0.000 A 
ATOM     29  N   UNL     1      -3.125  12.448  19.556  0.00  0.00    +0.000 N 
ATOM     30  C   UNL     1      -4.293  12.525  20.304  0.00  0.00    +0.000 A 
ATOM     31  O   UNL     1      -4.354  13.049  21.399  0.00  0.00    +0.000 OA
ATOM     32  N   UNL     1      -5.406  11.975  19.718  0.00  0.00    +0.000 N 
ATOM     33  C   UNL     1      -5.470  11.408  18.478  0.00  0.00    +0.000 A 
ATOM     34  O   UNL     1      -6.517  10.952  18.017  0.00  0.00    +0.000 OA
ATOM     35  H   UNL     1      -6.265  12.012  20.250  0.00  0.00    +0.000 HD
ENDBRANCH  25  29
ENDBRANCH   1  25
BRANCH   4  36
ATOM     36  C   UNL     1       2.080  12.907  19.917  0.00  0.00    +0.000 C 
BRANCH  36  37
ATOM     37  O   UNL     1       2.378  12.502  18.576  0.00  0.00    +0.000 OA
ATOM     38  H   UNL     1       3.352  12.479  18.518  0.00  0.00    +0.000 HD
ENDBRANCH  36  37
ENDBRANCH   4  36
TORSDOF 9
ENDMDL
MODEL 9
REMARK VINA RESULT:      -8.2      1.418      1.775
REMARK  Name = 
REMARK  10 active torsions:
REMARK  status: ('A' for Active; 'I' for Inactive)
REMARK    1  A    between atoms: C_1  and  C_2
REMARK    2  A    between atoms: N_4  and  C_5
REMARK    3  A    between atoms: C_5  and  C_6
REMARK    4  A    between atoms: C_8  and  N_9
REMARK    5  A    between atoms: C_10  and  C_12
REMARK    6  A    between atoms: C_12  and  N_13
REMARK    7  A    between atoms: C_12  and  C_14
REMARK    8  A    between atoms: C_14  and  C_15
REMARK    9  A    between atoms: C_24  and  C_25
REMARK   10  A    between atoms: C_25  and  O_26
REMARK                            x       y       z     vdW  Elec       q    Type
REMARK                         _______ _______ _______ _____ _____    ______ ____
ROOT
ATOM      1  C   UNL     1       4.027   4.880  19.660  0.00  0.00    +0.000 C 
ATOM      2  C   UNL     1       4.176   6.211  18.945  0.00  0.00    +0.000 C 
ATOM      3  C   UNL     1       3.103   6.212  17.867  0.00  0.00    +0.000 C 
ATOM      4  C   UNL     1       2.022   5.309  18.474  0.00  0.00    +0.000 C 
ATOM      5  O   UNL     1       2.653   4.493  19.501  0.00  0.00    +0.000 OA
ENDROOT
BRANCH   3   6
ATOM      6  N   UNL     1       2.688   7.586  17.577  0.00  0.00    +0.000 N 
ATOM      7  C   UNL     1       2.019   8.374  18.487  0.00  0.00    +0.000 C 
ATOM      8  O   UNL     1       1.924   8.057  19.668  0.00  0.00    +0.000 OA
ATOM      9  H   UNL     1       2.605   7.837  16.604  0.00  0.00    +0.000 HD
BRANCH   7  10
ATOM     10  C   UNL     1       1.486   9.752  17.983  0.00  0.00    +0.000 C 
BRANCH  10  11
ATOM     11  N   UNL     1       0.108   9.565  17.463  0.00  0.00    +0.000 NA
ATOM     12  H   UNL     1      -0.502   9.211  18.195  0.00  0.00    +0.000 HD
ATOM     13  H   UNL     1       0.149   8.819  16.760  0.00  0.00    +0.000 HD
ENDBRANCH  10  11
BRANCH  10  14
ATOM     14  C   UNL     1       1.569  10.959  18.969  0.00  0.00    +0.000 C 
BRANCH  14  15
ATOM     15  C   UNL     1       0.233  11.298  19.564  0.00  0.00    +0.000 A 
ATOM     16  C   UNL     1      -0.525  12.354  19.078  0.00  0.00    +0.000 A 
ATOM     17  N   UNL     1      -1.736  12.279  19.702  0.00  0.00    +0.000 N 
ATOM     18  C   UNL     1      -1.418  11.828  20.965  0.00  0.00    +0.000 A 
ATOM     19  C   UNL     1      -1.893  12.221  22.209  0.00  0.00    +0.000 A 
ATOM     20  C   UNL     1      -1.533  11.413  23.278  0.00  0.00    +0.000 A 
ATOM     21  C   UNL     1      -0.858  10.209  23.053  0.00  0.00    +0.000 A 
ATOM     22  C   UNL     1      -0.293   9.901  21.793  0.00  0.00    +0.000 A 
ATOM     23  C   UNL     1      -0.443  10.853  20.765  0.00  0.00    +0.000 A 
ATOM     24  H   UNL     1      -2.506  11.836  19.214  0.00  0.00    +0.000 HD
ENDBRANCH  14  15
ENDBRANCH  10  14
ENDBRANCH   7  10
ENDBRANCH   3   6
BRANCH   1  25
ATOM     25  C   UNL     1       4.961   3.786  19.106  0.00  0.00    +0.000 C 
BRANCH  25  29
ATOM     26  C   UNL     1       5.392   4.089  14.169  0.00  0.00    +0.000 C 
ATOM     27  C   UNL     1       5.891   4.346  15.552  0.00  0.00    +0.000 A 
ATOM     28  C   UNL     1       5.235   3.987  16.665  0.00  0.00    +0.000 A 
ATOM     29  N   UNL     1       5.730   4.225  17.929  0.00  0.00    +0.000 N 
ATOM     30  C   UNL     1       6.963   4.834  18.127  0.00  0.00    +0.000 A 
ATOM     31  O   UNL     1       7.454   5.011  19.224  0.00  0.00    +0.000 OA
ATOM     32  N   UNL     1       7.619   5.223  16.985  0.00  0.00    +0.000 N 
ATOM     33  C   UNL     1       7.192   5.031  15.702  0.00  0.00    +0.000 A 
ATOM     34  O   UNL     1       7.851   5.395  14.729  0.00  0.00    +0.000 OA
ATOM     35  H   UNL     1       8.514   5.676  17.107  0.00  0.00    +0.000 HD
ENDBRANCH  25  29
ENDBRANCH   1  25
BRANCH   4  36
ATOM     36  C   UNL     1       1.379   4.338  17.480  0.00  0.00    +0.000 C 
BRANCH  36  37
ATOM     37  O   UNL     1       1.633   2.988  17.885  0.00  0.00    +0.000 OA
ATOM     38  H   UNL     1       1.624   2.999  18.861  0.00  0.00    +0.000 HD
ENDBRANCH  36  37
ENDBRANCH   4  36
TORSDOF 9
ENDMDL
