MODEL 1
REMARK VINA RESULT:      -7.8      0.000      0.000
REMARK  Name = 
REMARK  5 active torsions:
REMARK  status: ('A' for Active; 'I' for Inactive)
REMARK    1  A    between atoms: C_1  and  C_2
REMARK    2  A    between atoms: C_4  and  C_5
REMARK    3  A    between atoms: N_7  and  C_8
REMARK    4  A    between atoms: C_14  and  N_15
REMARK    5  A    between atoms: C_16  and  C_18
REMARK                            x       y       z     vdW  Elec       q    Type
REMARK                         _______ _______ _______ _____ _____    ______ ____
ROOT
ATOM      1  C   UNL     1       4.129   4.244  18.166  0.00  0.00    +0.000 A 
ATOM      2  C   UNL     1       4.407   2.867  18.070  0.00  0.00    +0.000 A 
ATOM      3  C   UNL     1       3.431   1.929  18.380  0.00  0.00    +0.000 A 
ATOM      4  F   UNL     1       3.731   0.627  18.348  0.00  0.00    +0.000 F 
ATOM      5  C   UNL     1       2.155   2.329  18.730  0.00  0.00    +0.000 A 
ATOM      6  C   UNL     1       1.854   3.692  18.779  0.00  0.00    +0.000 A 
ATOM      7  C   UNL     1       2.827   4.677  18.517  0.00  0.00    +0.000 A 
ENDROOT
BRANCH   1  10
ATOM      8  C   UNL     1       6.228   5.399  18.759  0.00  0.00    +0.000 C 
ATOM      9  O   UNL     1       6.295   5.026  19.920  0.00  0.00    +0.000 OA
ATOM     10  N   UNL     1       5.226   5.094  17.864  0.00  0.00    +0.000 N 
ATOM     11  H   UNL     1       5.511   5.130  16.894  0.00  0.00    +0.000 HD
BRANCH   8  15
ATOM     12  C   UNL     1       8.148   8.698  17.789  0.00  0.00    +0.000 C 
ATOM     13  C   UNL     1       7.085   7.652  17.684  0.00  0.00    +0.000 C 
ATOM     14  C   UNL     1       7.263   6.549  16.679  0.00  0.00    +0.000 C 
ATOM     15  C   UNL     1       7.323   6.231  18.159  0.00  0.00    +0.000 C 
ENDBRANCH   8  15
ENDBRANCH   1  10
BRANCH   7  16
ATOM     16  N   UNL     1       2.477   6.054  18.518  0.00  0.00    +0.000 N 
ATOM     17  C   UNL     1       2.054   6.799  19.609  0.00  0.00    +0.000 C 
ATOM     18  O   UNL     1       1.911   6.393  20.759  0.00  0.00    +0.000 OA
ATOM     19  H   UNL     1       2.658   6.588  17.672  0.00  0.00    +0.000 HD
BRANCH  17  20
ATOM     20  C   UNL     1       1.780   8.248  19.347  0.00  0.00    +0.000 A 
ATOM     21  C   UNL     1       2.190   8.794  18.131  0.00  0.00    +0.000 A 
ATOM     22  C   UNL     1       1.891  10.124  17.858  0.00  0.00    +0.000 A 
ATOM     23  C   UNL     1       1.200  10.865  18.807  0.00  0.00    +0.000 A 
ATOM     24  C   UNL     1       0.846  10.245  20.000  0.00  0.00    +0.000 A 
ATOM     25  N   UNL     1       1.123   8.956  20.304  0.00  0.00    +0.000 NA
ENDBRANCH  17  20
ENDBRANCH   7  16
TORSDOF 4
ENDMDL
MODEL 2
REMARK VINA RESULT:      -7.6      0.595      1.009
REMARK  Name = 
REMARK  5 active torsions:
REMARK  status: ('A' for Active; 'I' for Inactive)
REMARK    1  A    between atoms: C_1  and  C_2
REMARK    2  A    between atoms: C_4  and  C_5
REMARK    3  A    between atoms: N_7  and  C_8
REMARK    4  A    between atoms: C_14  and  N_15
REMARK    5  A    between atoms: C_16  and  C_18
REMARK                            x       y       z     vdW  Elec       q    Type
REMARK                         _______ _______ _______ _____ _____    ______ ____
ROOT
ATOM      1  C   UNL     1       4.124   4.314  18.117  0.00  0.00    +0.000 A 
ATOM      2  C   UNL     1       4.407   2.937  18.034  0.00  0.00    +0.000 A 
ATOM      3  C   UNL     1       3.425   1.997  18.317  0.00  0.00    +0.000 A 
ATOM      4  F   UNL     1       3.728   0.696  18.298  0.00  0.00    +0.000 F 
ATOM      5  C   UNL     1       2.138   2.396  18.628  0.00  0.00    +0.000 A 
ATOM      6  C   UNL     1       1.833   3.758  18.663  0.00  0.00    +0.000 A 
ATOM      7  C   UNL     1       2.811   4.745  18.428  0.00  0.00    +0.000 A 
ENDROOT
BRANCH   1  10
ATOM      8  C   UNL     1       6.229   5.435  18.753  0.00  0.00    +0.000 C 
ATOM      9  O   UNL     1       6.290   5.024  19.902  0.00  0.00    +0.000 OA
ATOM     10  N   UNL     1       5.227   5.166  17.846  0.00  0.00    +0.000 N 
ATOM     11  H   UNL     1       5.516   5.230  16.879  0.00  0.00    +0.000 HD
BRANCH   8  15
ATOM     12  C   UNL     1       8.135   8.754  17.826  0.00  0.00    +0.000 C 
ATOM     13  C   UNL     1       7.090   7.693  17.693  0.00  0.00    +0.000 C 
ATOM     14  C   UNL     1       7.315   6.586  16.701  0.00  0.00    +0.000 C 
ATOM     15  C   UNL     1       7.332   6.277  18.184  0.00  0.00    +0.000 C 
ENDBRANCH   8  15
ENDBRANCH   1  10
BRANCH   7  16
ATOM     16  N   UNL     1       2.458   6.121  18.414  0.00  0.00    +0.000 N 
ATOM     17  C   UNL     1       2.062   6.884  19.502  0.00  0.00    +0.000 C 
ATOM     18  O   UNL     1       1.949   6.498  20.663  0.00  0.00    +0.000 OA
ATOM     19  H   UNL     1       2.616   6.641  17.555  0.00  0.00    +0.000 HD
BRANCH  17  20
ATOM     20  C   UNL     1       1.777   8.327  19.223  0.00  0.00    +0.000 A 
ATOM     21  C   UNL     1       1.077   9.065  20.177  0.00  0.00    +0.000 A 
ATOM     22  C   UNL     1       0.856  10.419  19.949  0.00  0.00    +0.000 A 
ATOM     23  C   UNL     1       1.335  10.988  18.777  0.00  0.00    +0.000 A 
ATOM     24  C   UNL     1       2.007  10.174  17.872  0.00  0.00    +0.000 A 
ATOM     25  N   UNL     1       2.236   8.853  18.056  0.00  0.00    +0.000 NA
ENDBRANCH  17  20
ENDBRANCH   7  16
TORSDOF 4
ENDMDL
MODEL 3
REMARK VINA RESULT:      -7.6      3.368      5.618
REMARK  Name = 
REMARK  5 active torsions:
REMARK  status: ('A' for Active; 'I' for Inactive)
REMARK    1  A    between atoms: C_1  and  C_2
REMARK    2  A    between atoms: C_4  and  C_5
REMARK    3  A    between atoms: N_7  and  C_8
REMARK    4  A    between atoms: C_14  and  N_15
REMARK    5  A    between atoms: C_16  and  C_18
REMARK                            x       y       z     vdW  Elec       q    Type
REMARK                         _______ _______ _______ _____ _____    ______ ____
ROOT
ATOM      1  C   UNL     1       4.709   5.300  18.395  0.00  0.00    +0.000 A 
ATOM      2  C   UNL     1       4.087   5.394  19.655  0.00  0.00    +0.000 A 
ATOM      3  C   UNL     1       2.953   4.645  19.939  0.00  0.00    +0.000 A 
ATOM      4  F   UNL     1       2.338   4.795  21.115  0.00  0.00    +0.000 F 
ATOM      5  C   UNL     1       2.450   3.751  19.012  0.00  0.00    +0.000 A 
ATOM      6  C   UNL     1       3.089   3.612  17.777  0.00  0.00    +0.000 A 
ATOM      7  C   UNL     1       4.214   4.387  17.432  0.00  0.00    +0.000 A 
ENDROOT
BRANCH   1  10
ATOM      8  C   UNL     1       6.999   6.041  18.944  0.00  0.00    +0.000 C 
ATOM      9  O   UNL     1       7.215   5.242  19.843  0.00  0.00    +0.000 OA
ATOM     10  N   UNL     1       5.832   6.152  18.220  0.00  0.00    +0.000 N 
ATOM     11  H   UNL     1       5.952   6.550  17.298  0.00  0.00    +0.000 HD
BRANCH   8  15
ATOM     12  C   UNL     1       8.906   9.475  18.673  0.00  0.00    +0.000 C 
ATOM     13  C   UNL     1       7.823   8.485  18.389  0.00  0.00    +0.000 C 
ATOM     14  C   UNL     1       7.921   7.656  17.139  0.00  0.00    +0.000 C 
ATOM     15  C   UNL     1       8.067   6.991  18.493  0.00  0.00    +0.000 C 
ENDBRANCH   8  15
ENDBRANCH   1  10
BRANCH   7  16
ATOM     16  N   UNL     1       4.877   4.183  16.192  0.00  0.00    +0.000 N 
ATOM     17  C   UNL     1       5.297   5.165  15.307  0.00  0.00    +0.000 C 
ATOM     18  O   UNL     1       5.167   6.378  15.447  0.00  0.00    +0.000 OA
ATOM     19  H   UNL     1       5.182   3.239  15.969  0.00  0.00    +0.000 HD
BRANCH  17  20
ATOM     20  C   UNL     1       6.006   4.682  14.080  0.00  0.00    +0.000 A 
ATOM     21  C   UNL     1       5.412   3.674  13.321  0.00  0.00    +0.000 A 
ATOM     22  C   UNL     1       6.038   3.258  12.151  0.00  0.00    +0.000 A 
ATOM     23  C   UNL     1       7.235   3.856  11.782  0.00  0.00    +0.000 A 
ATOM     24  C   UNL     1       7.766   4.840  12.608  0.00  0.00    +0.000 A 
ATOM     25  N   UNL     1       7.190   5.267  13.756  0.00  0.00    +0.000 NA
ENDBRANCH  17  20
ENDBRANCH   7  16
TORSDOF 4
ENDMDL
MODEL 4
REMARK VINA RESULT:      -7.5      3.368      5.143
REMARK  Name = 
REMARK  5 active torsions:
REMARK  status: ('A' for Active; 'I' for Inactive)
REMARK    1  A    between atoms: C_1  and  C_2
REMARK    2  A    between atoms: C_4  and  C_5
REMARK    3  A    between atoms: N_7  and  C_8
REMARK    4  A    between atoms: C_14  and  N_15
REMARK    5  A    between atoms: C_16  and  C_18
REMARK                            x       y       z     vdW  Elec       q    Type
REMARK                         _______ _______ _______ _____ _____    ______ ____
ROOT
ATOM      1  C   UNL     1       3.474   4.493  18.870  0.00  0.00    +0.000 A 
ATOM      2  C   UNL     1       2.624   4.336  19.982  0.00  0.00    +0.000 A 
ATOM      3  C   UNL     1       1.513   3.506  19.909  0.00  0.00    +0.000 A 
ATOM      4  F   UNL     1       0.682   3.420  20.951  0.00  0.00    +0.000 F 
ATOM      5  C   UNL     1       1.255   2.775  18.764  0.00  0.00    +0.000 A 
ATOM      6  C   UNL     1       2.120   2.884  17.672  0.00  0.00    +0.000 A 
ATOM      7  C   UNL     1       3.231   3.750  17.689  0.00  0.00    +0.000 A 
ENDROOT
BRANCH   1  10
ATOM      8  C   UNL     1       5.871   5.029  19.107  0.00  0.00    +0.000 C 
ATOM      9  O   UNL     1       6.301   3.888  19.029  0.00  0.00    +0.000 OA
ATOM     10  N   UNL     1       4.546   5.403  19.064  0.00  0.00    +0.000 N 
ATOM     11  H   UNL     1       4.393   6.350  18.742  0.00  0.00    +0.000 HD
BRANCH   8  15
ATOM     12  C   UNL     1       7.953   8.126  17.849  0.00  0.00    +0.000 C 
ATOM     13  C   UNL     1       7.629   6.679  18.032  0.00  0.00    +0.000 C 
ATOM     14  C   UNL     1       8.301   5.929  19.149  0.00  0.00    +0.000 C 
ATOM     15  C   UNL     1       6.811   6.193  19.215  0.00  0.00    +0.000 C 
ENDBRANCH   8  15
ENDBRANCH   1  10
BRANCH   7  16
ATOM     16  N   UNL     1       4.125   3.796  16.585  0.00  0.00    +0.000 N 
ATOM     17  C   UNL     1       4.664   4.934  16.005  0.00  0.00    +0.000 C 
ATOM     18  O   UNL     1       4.459   6.096  16.347  0.00  0.00    +0.000 OA
ATOM     19  H   UNL     1       4.507   2.916  16.249  0.00  0.00    +0.000 HD
BRANCH  17  20
ATOM     20  C   UNL     1       5.612   4.705  14.869  0.00  0.00    +0.000 A 
ATOM     21  C   UNL     1       5.260   3.784  13.882  0.00  0.00    +0.000 A 
ATOM     22  C   UNL     1       6.110   3.606  12.797  0.00  0.00    +0.000 A 
ATOM     23  C   UNL     1       7.284   4.345  12.735  0.00  0.00    +0.000 A 
ATOM     24  C   UNL     1       7.565   5.227  13.773  0.00  0.00    +0.000 A 
ATOM     25  N   UNL     1       6.766   5.424  14.847  0.00  0.00    +0.000 NA
ENDBRANCH  17  20
ENDBRANCH   7  16
TORSDOF 4
ENDMDL
MODEL 5
REMARK VINA RESULT:      -7.4      3.082      6.592
REMARK  Name = 
REMARK  5 active torsions:
REMARK  status: ('A' for Active; 'I' for Inactive)
REMARK    1  A    between atoms: C_1  and  C_2
REMARK    2  A    between atoms: C_4  and  C_5
REMARK    3  A    between atoms: N_7  and  C_8
REMARK    4  A    between atoms: C_14  and  N_15
REMARK    5  A    between atoms: C_16  and  C_18
REMARK                            x       y       z     vdW  Elec       q    Type
REMARK                         _______ _______ _______ _____ _____    ______ ____
ROOT
ATOM      1  C   UNL     1       2.287   7.270  19.717  0.00  0.00    +0.000 A 
ATOM      2  C   UNL     1       1.455   8.117  20.474  0.00  0.00    +0.000 A 
ATOM      3  C   UNL     1       0.986   9.308  19.936  0.00  0.00    +0.000 A 
ATOM      4  F   UNL     1       0.251  10.131  20.689  0.00  0.00    +0.000 F 
ATOM      5  C   UNL     1       1.279   9.655  18.630  0.00  0.00    +0.000 A 
ATOM      6  C   UNL     1       2.063   8.798  17.854  0.00  0.00    +0.000 A 
ATOM      7  C   UNL     1       2.597   7.603  18.376  0.00  0.00    +0.000 A 
ENDROOT
BRANCH   1  10
ATOM      8  C   UNL     1       1.939   5.007  20.637  0.00  0.00    +0.000 C 
ATOM      9  O   UNL     1       0.759   4.891  20.338  0.00  0.00    +0.000 OA
ATOM     10  N   UNL     1       2.732   6.108  20.400  0.00  0.00    +0.000 N 
ATOM     11  H   UNL     1       3.720   5.900  20.334  0.00  0.00    +0.000 HD
BRANCH   8  15
ATOM     12  C   UNL     1       4.382   1.924  20.826  0.00  0.00    +0.000 C 
ATOM     13  C   UNL     1       3.117   2.649  20.497  0.00  0.00    +0.000 C 
ATOM     14  C   UNL     1       1.964   2.548  21.456  0.00  0.00    +0.000 C 
ATOM     15  C   UNL     1       2.678   3.872  21.282  0.00  0.00    +0.000 C 
ENDBRANCH   8  15
ENDBRANCH   1  10
BRANCH   7  16
ATOM     16  N   UNL     1       3.342   6.723  17.545  0.00  0.00    +0.000 N 
ATOM     17  C   UNL     1       4.690   6.823  17.234  0.00  0.00    +0.000 C 
ATOM     18  O   UNL     1       5.467   7.691  17.625  0.00  0.00    +0.000 OA
ATOM     19  H   UNL     1       2.887   5.869  17.233  0.00  0.00    +0.000 HD
BRANCH  17  20
ATOM     20  C   UNL     1       5.243   5.741  16.359  0.00  0.00    +0.000 A 
ATOM     21  C   UNL     1       4.894   4.419  16.634  0.00  0.00    +0.000 A 
ATOM     22  C   UNL     1       5.360   3.414  15.795  0.00  0.00    +0.000 A 
ATOM     23  C   UNL     1       6.162   3.759  14.715  0.00  0.00    +0.000 A 
ATOM     24  C   UNL     1       6.476   5.100  14.527  0.00  0.00    +0.000 A 
ATOM     25  N   UNL     1       6.047   6.106  15.324  0.00  0.00    +0.000 NA
ENDBRANCH  17  20
ENDBRANCH   7  16
TORSDOF 4
ENDMDL
MODEL 6
REMARK VINA RESULT:      -7.4      2.669      4.769
REMARK  Name = 
REMARK  5 active torsions:
REMARK  status: ('A' for Active; 'I' for Inactive)
REMARK    1  A    between atoms: C_1  and  C_2
REMARK    2  A    between atoms: C_4  and  C_5
REMARK    3  A    between atoms: N_7  and  C_8
REMARK    4  A    between atoms: C_14  and  N_15
REMARK    5  A    between atoms: C_16  and  C_18
REMARK                            x       y       z     vdW  Elec       q    Type
REMARK                         _______ _______ _______ _____ _____    ______ ____
ROOT
ATOM      1  C   UNL     1       3.794   5.096  17.572  0.00  0.00    +0.000 A 
ATOM      2  C   UNL     1       4.600   4.376  16.669  0.00  0.00    +0.000 A 
ATOM      3  C   UNL     1       5.355   5.042  15.713  0.00  0.00    +0.000 A 
ATOM      4  F   UNL     1       6.063   4.341  14.822  0.00  0.00    +0.000 F 
ATOM      5  C   UNL     1       5.375   6.424  15.668  0.00  0.00    +0.000 A 
ATOM      6  C   UNL     1       4.618   7.149  16.592  0.00  0.00    +0.000 A 
ATOM      7  C   UNL     1       3.803   6.512  17.548  0.00  0.00    +0.000 A 
ENDROOT
BRANCH   1  10
ATOM      8  C   UNL     1       1.730   3.926  18.250  0.00  0.00    +0.000 C 
ATOM      9  O   UNL     1       1.034   4.263  17.303  0.00  0.00    +0.000 OA
ATOM     10  N   UNL     1       3.040   4.292  18.467  0.00  0.00    +0.000 N 
ATOM     11  H   UNL     1       3.565   3.638  19.033  0.00  0.00    +0.000 HD
BRANCH   8  15
ATOM     12  C   UNL     1       1.241   2.432  21.861  0.00  0.00    +0.000 C 
ATOM     13  C   UNL     1       1.956   2.698  20.576  0.00  0.00    +0.000 C 
ATOM     14  C   UNL     1       1.894   1.657  19.493  0.00  0.00    +0.000 C 
ATOM     15  C   UNL     1       1.198   2.988  19.293  0.00  0.00    +0.000 C 
ENDBRANCH   8  15
ENDBRANCH   1  10
BRANCH   7  16
ATOM     16  N   UNL     1       3.090   7.276  18.511  0.00  0.00    +0.000 N 
ATOM     17  C   UNL     1       2.252   8.351  18.258  0.00  0.00    +0.000 C 
ATOM     18  O   UNL     1       1.984   8.825  17.156  0.00  0.00    +0.000 OA
ATOM     19  H   UNL     1       3.092   6.945  19.472  0.00  0.00    +0.000 HD
BRANCH  17  20
ATOM     20  C   UNL     1       1.591   8.963  19.454  0.00  0.00    +0.000 A 
ATOM     21  C   UNL     1       1.503   8.210  20.624  0.00  0.00    +0.000 A 
ATOM     22  C   UNL     1       0.939   8.791  21.755  0.00  0.00    +0.000 A 
ATOM     23  C   UNL     1       0.478  10.098  21.679  0.00  0.00    +0.000 A 
ATOM     24  C   UNL     1       0.588  10.769  20.465  0.00  0.00    +0.000 A 
ATOM     25  N   UNL     1       1.125  10.236  19.343  0.00  0.00    +0.000 NA
ENDBRANCH  17  20
ENDBRANCH   7  16
TORSDOF 4
ENDMDL
MODEL 7
REMARK VINA RESULT:      -7.3      2.668      4.755
REMARK  Name = 
REMARK  5 active torsions:
REMARK  status: ('A' for Active; 'I' for Inactive)
REMARK    1  A    between atoms: C_1  and  C_2
REMARK    2  A    between atoms: C_4  and  C_5
REMARK    3  A    between atoms: N_7  and  C_8
REMARK    4  A    between atoms: C_14  and  N_15
REMARK    5  A    between atoms: C_16  and  C_18
REMARK                            x       y       z     vdW  Elec       q    Type
REMARK                         _______ _______ _______ _____ _____    ______ ____
ROOT
ATOM      1  C   UNL     1       3.736   5.171  17.620  0.00  0.00    +0.000 A 
ATOM      2  C   UNL     1       4.589   4.490  16.732  0.00  0.00    +0.000 A 
ATOM      3  C   UNL     1       5.325   5.190  15.785  0.00  0.00    +0.000 A 
ATOM      4  F   UNL     1       6.080   4.522  14.907  0.00  0.00    +0.000 F 
ATOM      5  C   UNL     1       5.278   6.571  15.736  0.00  0.00    +0.000 A 
ATOM      6  C   UNL     1       4.473   7.260  16.646  0.00  0.00    +0.000 A 
ATOM      7  C   UNL     1       3.675   6.586  17.592  0.00  0.00    +0.000 A 
ENDROOT
BRANCH   1  10
ATOM      8  C   UNL     1       1.717   3.913  18.277  0.00  0.00    +0.000 C 
ATOM      9  O   UNL     1       1.016   4.224  17.325  0.00  0.00    +0.000 OA
ATOM     10  N   UNL     1       3.008   4.334  18.506  0.00  0.00    +0.000 N 
ATOM     11  H   UNL     1       3.556   3.701  19.075  0.00  0.00    +0.000 HD
BRANCH   8  15
ATOM     12  C   UNL     1       1.236   2.406  21.884  0.00  0.00    +0.000 C 
ATOM     13  C   UNL     1       1.961   2.707  20.612  0.00  0.00    +0.000 C 
ATOM     14  C   UNL     1       1.980   1.661  19.533  0.00  0.00    +0.000 C 
ATOM     15  C   UNL     1       1.216   2.951  19.313  0.00  0.00    +0.000 C 
ENDBRANCH   8  15
ENDBRANCH   1  10
BRANCH   7  16
ATOM     16  N   UNL     1       2.911   7.316  18.542  0.00  0.00    +0.000 N 
ATOM     17  C   UNL     1       2.146   8.446  18.295  0.00  0.00    +0.000 C 
ATOM     18  O   UNL     1       1.999   9.007  17.211  0.00  0.00    +0.000 OA
ATOM     19  H   UNL     1       2.813   6.921  19.473  0.00  0.00    +0.000 HD
BRANCH  17  20
ATOM     20  C   UNL     1       1.407   9.007  19.470  0.00  0.00    +0.000 A 
ATOM     21  C   UNL     1       0.581  10.113  19.271  0.00  0.00    +0.000 A 
ATOM     22  C   UNL     1      -0.151  10.606  20.345  0.00  0.00    +0.000 A 
ATOM     23  C   UNL     1      -0.029   9.986  21.581  0.00  0.00    +0.000 A 
ATOM     24  C   UNL     1       0.832   8.900  21.694  0.00  0.00    +0.000 A 
ATOM     25  N   UNL     1       1.564   8.395  20.674  0.00  0.00    +0.000 NA
ENDBRANCH  17  20
ENDBRANCH   7  16
TORSDOF 4
ENDMDL
MODEL 8
REMARK VINA RESULT:      -7.2      2.496      4.441
REMARK  Name = 
REMARK  5 active torsions:
REMARK  status: ('A' for Active; 'I' for Inactive)
REMARK    1  A    between atoms: C_1  and  C_2
REMARK    2  A    between atoms: C_4  and  C_5
REMARK    3  A    between atoms: N_7  and  C_8
REMARK    4  A    between atoms: C_14  and  N_15
REMARK    5  A    between atoms: C_16  and  C_18
REMARK                            x       y       z     vdW  Elec       q    Type
REMARK                         _______ _______ _______ _____ _____    ______ ____
ROOT
ATOM      1  C   UNL     1       4.648   4.581  17.200  0.00  0.00    +0.000 A 
ATOM      2  C   UNL     1       5.442   3.788  16.350  0.00  0.00    +0.000 A 
ATOM      3  C   UNL     1       6.020   4.335  15.212  0.00  0.00    +0.000 A 
ATOM      4  F   UNL     1       6.716   3.553  14.382  0.00  0.00    +0.000 F 
ATOM      5  C   UNL     1       5.875   5.679  14.926  0.00  0.00    +0.000 A 
ATOM      6  C   UNL     1       5.131   6.487  15.789  0.00  0.00    +0.000 A 
ATOM      7  C   UNL     1       4.490   5.962  16.929  0.00  0.00    +0.000 A 
ENDROOT
BRANCH   1  10
ATOM      8  C   UNL     1       2.988   3.056  18.205  0.00  0.00    +0.000 C 
ATOM      9  O   UNL     1       2.341   2.832  17.193  0.00  0.00    +0.000 OA
ATOM     10  N   UNL     1       4.081   3.889  18.303  0.00  0.00    +0.000 N 
ATOM     11  H   UNL     1       4.713   3.657  19.058  0.00  0.00    +0.000 HD
BRANCH   8  15
ATOM     12  C   UNL     1       1.326   2.611  21.748  0.00  0.00    +0.000 C 
ATOM     13  C   UNL     1       2.314   3.135  20.756  0.00  0.00    +0.000 C 
ATOM     14  C   UNL     1       3.645   2.447  20.637  0.00  0.00    +0.000 C 
ATOM     15  C   UNL     1       2.655   2.364  19.494  0.00  0.00    +0.000 C 
ENDBRANCH   8  15
ENDBRANCH   1  10
BRANCH   7  16
ATOM     16  N   UNL     1       3.788   6.819  17.820  0.00  0.00    +0.000 N 
ATOM     17  C   UNL     1       2.436   6.766  18.125  0.00  0.00    +0.000 C 
ATOM     18  O   UNL     1       1.617   5.969  17.676  0.00  0.00    +0.000 OA
ATOM     19  H   UNL     1       4.335   7.465  18.383  0.00  0.00    +0.000 HD
BRANCH  17  20
ATOM     20  C   UNL     1       1.951   7.767  19.126  0.00  0.00    +0.000 A 
ATOM     21  C   UNL     1       1.579   9.034  18.676  0.00  0.00    +0.000 A 
ATOM     22  C   UNL     1       1.076   9.951  19.592  0.00  0.00    +0.000 A 
ATOM     23  C   UNL     1       0.967   9.577  20.924  0.00  0.00    +0.000 A 
ATOM     24  C   UNL     1       1.379   8.300  21.289  0.00  0.00    +0.000 A 
ATOM     25  N   UNL     1       1.878   7.383  20.429  0.00  0.00    +0.000 NA
ENDBRANCH  17  20
ENDBRANCH   7  16
TORSDOF 4
ENDMDL
MODEL 9
REMARK VINA RESULT:      -7.2      2.279      5.545
REMARK  Name = 
REMARK  5 active torsions:
REMARK  status: ('A' for Active; 'I' for Inactive)
REMARK    1  A    between atoms: C_1  and  C_2
REMARK    2  A    between atoms: C_4  and  C_5
REMARK    3  A    between atoms: N_7  and  C_8
REMARK    4  A    between atoms: C_14  and  N_15
REMARK    5  A    between atoms: C_16  and  C_18
REMARK                            x       y       z     vdW  Elec       q    Type
REMARK                         _______ _______ _______ _____ _____    ______ ____
ROOT
ATOM      1  C   UNL     1       2.600   4.532  20.063  0.00  0.00    +0.000 A 
ATOM      2  C   UNL     1       1.907   4.187  21.239  0.00  0.00    +0.000 A 
ATOM      3  C   UNL     1       1.666   2.855  21.550  0.00  0.00    +0.000 A 
ATOM      4  F   UNL     1       0.950   2.547  22.635  0.00  0.00    +0.000 F 
ATOM      5  C   UNL     1       2.155   1.844  20.742  0.00  0.00    +0.000 A 
ATOM      6  C   UNL     1       2.888   2.175  19.600  0.00  0.00    +0.000 A 
ATOM      7  C   UNL     1       3.114   3.514  19.224  0.00  0.00    +0.000 A 
ENDROOT
BRANCH   1  10
ATOM      8  C   UNL     1       2.334   6.566  18.691  0.00  0.00    +0.000 C 
ATOM      9  O   UNL     1       1.848   6.033  17.704  0.00  0.00    +0.000 OA
ATOM     10  N   UNL     1       2.739   5.928  19.843  0.00  0.00    +0.000 N 
ATOM     11  H   UNL     1       2.729   6.515  20.667  0.00  0.00    +0.000 HD
BRANCH   8  15
ATOM     12  C   UNL     1       1.180  10.318  19.008  0.00  0.00    +0.000 C 
ATOM     13  C   UNL     1       1.385   9.002  18.329  0.00  0.00    +0.000 C 
ATOM     14  C   UNL     1       2.594   8.829  17.453  0.00  0.00    +0.000 C 
ATOM     15  C   UNL     1       2.493   8.056  18.753  0.00  0.00    +0.000 C 
ENDBRANCH   8  15
ENDBRANCH   1  10
BRANCH   7  16
ATOM     16  N   UNL     1       3.912   3.818  18.089  0.00  0.00    +0.000 N 
ATOM     17  C   UNL     1       5.265   4.124  18.087  0.00  0.00    +0.000 C 
ATOM     18  O   UNL     1       6.002   4.181  19.068  0.00  0.00    +0.000 OA
ATOM     19  H   UNL     1       3.495   3.694  17.170  0.00  0.00    +0.000 HD
BRANCH  17  20
ATOM     20  C   UNL     1       5.879   4.373  16.745  0.00  0.00    +0.000 A 
ATOM     21  C   UNL     1       5.093   4.189  15.608  0.00  0.00    +0.000 A 
ATOM     22  C   UNL     1       5.640   4.470  14.361  0.00  0.00    +0.000 A 
ATOM     23  C   UNL     1       6.951   4.920  14.289  0.00  0.00    +0.000 A 
ATOM     24  C   UNL     1       7.669   5.058  15.473  0.00  0.00    +0.000 A 
ATOM     25  N   UNL     1       7.174   4.789  16.703  0.00  0.00    +0.000 NA
ENDBRANCH  17  20
ENDBRANCH   7  16
TORSDOF 4
ENDMDL
