MODEL 1
REMARK VINA RESULT:      -7.6      0.000      0.000
REMARK  Name = 
REMARK  4 active torsions:
REMARK  status: ('A' for Active; 'I' for Inactive)
REMARK    1  A    between atoms: C_2  and  C_3
REMARK    2  A    between atoms: C_8  and  O_9
REMARK    3  A    between atoms: C_16  and  C_17
REMARK    4  A    between atoms: C_17  and  C_18
REMARK                            x       y       z     vdW  Elec       q    Type
REMARK                         _______ _______ _______ _____ _____    ______ ____
ROOT
ATOM      1  O   UNL     1       2.414   8.764  17.147  0.00  0.00    +0.000 OA
ATOM      2  C   UNL     1       2.237   8.074  18.158  0.00  0.00    +0.000 C 
ATOM      3  N   UNL     1       1.721   8.662  19.328  0.00  0.00    +0.000 N 
ATOM      4  C   UNL     1       1.671   8.025  20.645  0.00  0.00    +0.000 C 
ATOM      5  C   UNL     1       0.215   7.876  21.073  0.00  0.00    +0.000 C 
ATOM      6  C   UNL     1      -0.471   9.254  21.149  0.00  0.00    +0.000 C 
ATOM      7  C   UNL     1      -0.314   9.971  19.787  0.00  0.00    +0.000 C 
ATOM      8  C   UNL     1       1.135   9.996  19.277  0.00  0.00    +0.000 C 
ENDROOT
BRANCH   2   9
ATOM      9  C   UNL     1       2.537   6.637  18.178  0.00  0.00    +0.000 A 
ATOM     10  N   UNL     1       1.617   5.698  18.073  0.00  0.00    +0.000 NA
ATOM     11  C   UNL     1       2.187   4.455  18.233  0.00  0.00    +0.000 A 
ATOM     12  C   UNL     1       1.481   3.237  18.280  0.00  0.00    +0.000 A 
ATOM     13  C   UNL     1       2.178   2.037  18.433  0.00  0.00    +0.000 A 
ATOM     14  C   UNL     1       3.562   2.056  18.537  0.00  0.00    +0.000 A 
ATOM     15  C   UNL     1       4.291   3.247  18.511  0.00  0.00    +0.000 A 
ATOM     16  C   UNL     1       3.577   4.445  18.363  0.00  0.00    +0.000 A 
ATOM     17  S   UNL     1       4.150   6.073  18.313  0.00  0.00    +0.000 S 
BRANCH  14  18
ATOM     18  O   UNL     1       4.267   0.895  18.675  0.00  0.00    +0.000 OA
ATOM     19  H   UNL     1       3.658   0.187  18.941  0.00  0.00    +0.000 HD
ENDBRANCH  14  18
ENDBRANCH   2   9
BRANCH   6  20
ATOM     20  C   UNL     1       0.068  10.138  22.299  0.00  0.00    +0.000 C 
BRANCH  20  21
ATOM     21  C   UNL     1      -0.708  11.411  22.553  0.00  0.00    +0.000 A 
ATOM     22  C   UNL     1      -0.228  12.641  22.075  0.00  0.00    +0.000 A 
ATOM     23  C   UNL     1      -0.964  13.813  22.261  0.00  0.00    +0.000 A 
ATOM     24  C   UNL     1      -2.186  13.770  22.929  0.00  0.00    +0.000 A 
ATOM     25  C   UNL     1      -2.669  12.557  23.414  0.00  0.00    +0.000 A 
ATOM     26  C   UNL     1      -1.935  11.383  23.227  0.00  0.00    +0.000 A 
ENDBRANCH  20  21
ENDBRANCH   6  20
TORSDOF 4
ENDMDL
MODEL 2
REMARK VINA RESULT:      -7.4      1.086      1.106
REMARK  Name = 
REMARK  4 active torsions:
REMARK  status: ('A' for Active; 'I' for Inactive)
REMARK    1  A    between atoms: C_2  and  C_3
REMARK    2  A    between atoms: C_8  and  O_9
REMARK    3  A    between atoms: C_16  and  C_17
REMARK    4  A    between atoms: C_17  and  C_18
REMARK                            x       y       z     vdW  Elec       q    Type
REMARK                         _______ _______ _______ _____ _____    ______ ____
ROOT
ATOM      1  O   UNL     1       2.176   8.677  17.324  0.00  0.00    +0.000 OA
ATOM      2  C   UNL     1       2.127   8.206  18.466  0.00  0.00    +0.000 C 
ATOM      3  N   UNL     1       1.601   8.975  19.521  0.00  0.00    +0.000 N 
ATOM      4  C   UNL     1       1.685   8.633  20.943  0.00  0.00    +0.000 C 
ATOM      5  C   UNL     1       0.278   8.429  21.492  0.00  0.00    +0.000 C 
ATOM      6  C   UNL     1      -0.559   9.713  21.328  0.00  0.00    +0.000 C 
ATOM      7  C   UNL     1      -0.550  10.133  19.838  0.00  0.00    +0.000 C 
ATOM      8  C   UNL     1       0.862  10.199  19.234  0.00  0.00    +0.000 C 
ENDROOT
BRANCH   2   9
ATOM      9  C   UNL     1       2.592   6.846  18.764  0.00  0.00    +0.000 A 
ATOM     10  N   UNL     1       1.938   6.005  19.541  0.00  0.00    +0.000 NA
ATOM     11  C   UNL     1       2.672   4.853  19.717  0.00  0.00    +0.000 A 
ATOM     12  C   UNL     1       2.319   3.787  20.567  0.00  0.00    +0.000 A 
ATOM     13  C   UNL     1       3.143   2.663  20.648  0.00  0.00    +0.000 A 
ATOM     14  C   UNL     1       4.303   2.606  19.888  0.00  0.00    +0.000 A 
ATOM     15  C   UNL     1       4.690   3.652  19.048  0.00  0.00    +0.000 A 
ATOM     16  C   UNL     1       3.856   4.778  18.982  0.00  0.00    +0.000 A 
ATOM     17  S   UNL     1       4.040   6.237  18.077  0.00  0.00    +0.000 S 
BRANCH  14  18
ATOM     18  O   UNL     1       5.119   1.513  19.940  0.00  0.00    +0.000 OA
ATOM     19  H   UNL     1       4.776   0.897  20.609  0.00  0.00    +0.000 HD
ENDBRANCH  14  18
ENDBRANCH   2   9
BRANCH   6  20
ATOM     20  C   UNL     1      -0.074  10.874  22.228  0.00  0.00    +0.000 C 
BRANCH  20  21
ATOM     21  C   UNL     1      -1.116  11.923  22.546  0.00  0.00    +0.000 A 
ATOM     22  C   UNL     1      -0.969  13.236  22.071  0.00  0.00    +0.000 A 
ATOM     23  C   UNL     1      -1.951  14.198  22.317  0.00  0.00    +0.000 A 
ATOM     24  C   UNL     1      -3.091  13.858  23.042  0.00  0.00    +0.000 A 
ATOM     25  C   UNL     1      -3.246  12.561  23.525  0.00  0.00    +0.000 A 
ATOM     26  C   UNL     1      -2.264  11.598  23.278  0.00  0.00    +0.000 A 
ENDBRANCH  20  21
ENDBRANCH   6  20
TORSDOF 4
ENDMDL
MODEL 3
REMARK VINA RESULT:      -6.9      1.323      1.716
REMARK  Name = 
REMARK  4 active torsions:
REMARK  status: ('A' for Active; 'I' for Inactive)
REMARK    1  A    between atoms: C_2  and  C_3
REMARK    2  A    between atoms: C_8  and  O_9
REMARK    3  A    between atoms: C_16  and  C_17
REMARK    4  A    between atoms: C_17  and  C_18
REMARK                            x       y       z     vdW  Elec       q    Type
REMARK                         _______ _______ _______ _____ _____    ______ ____
ROOT
ATOM      1  O   UNL     1       1.925   9.250  17.375  0.00  0.00    +0.000 OA
ATOM      2  C   UNL     1       1.864   8.766  18.510  0.00  0.00    +0.000 C 
ATOM      3  N   UNL     1       1.358   9.534  19.575  0.00  0.00    +0.000 N 
ATOM      4  C   UNL     1       1.433   9.172  20.992  0.00  0.00    +0.000 C 
ATOM      5  C   UNL     1       0.021   8.999  21.539  0.00  0.00    +0.000 C 
ATOM      6  C   UNL     1      -0.782  10.306  21.391  0.00  0.00    +0.000 C 
ATOM      7  C   UNL     1      -0.761  10.745  19.908  0.00  0.00    +0.000 C 
ATOM      8  C   UNL     1       0.652  10.781  19.305  0.00  0.00    +0.000 C 
ENDROOT
BRANCH   2   9
ATOM      9  C   UNL     1       2.293   7.390  18.791  0.00  0.00    +0.000 A 
ATOM     10  N   UNL     1       1.724   6.619  19.696  0.00  0.00    +0.000 NA
ATOM     11  C   UNL     1       2.410   5.429  19.805  0.00  0.00    +0.000 A 
ATOM     12  C   UNL     1       2.137   4.417  20.746  0.00  0.00    +0.000 A 
ATOM     13  C   UNL     1       2.898   3.247  20.745  0.00  0.00    +0.000 A 
ATOM     14  C   UNL     1       3.918   3.092  19.816  0.00  0.00    +0.000 A 
ATOM     15  C   UNL     1       4.225   4.083  18.881  0.00  0.00    +0.000 A 
ATOM     16  C   UNL     1       3.456   5.256  18.897  0.00  0.00    +0.000 A 
ATOM     17  S   UNL     1       3.576   6.669  17.913  0.00  0.00    +0.000 S 
BRANCH  14  18
ATOM     18  O   UNL     1       4.669   1.952  19.787  0.00  0.00    +0.000 OA
ATOM     19  H   UNL     1       4.121   1.207  20.085  0.00  0.00    +0.000 HD
ENDBRANCH  14  18
ENDBRANCH   2   9
BRANCH   6  20
ATOM     20  C   UNL     1      -0.267  11.442  22.307  0.00  0.00    +0.000 C 
BRANCH  20  21
ATOM     21  C   UNL     1      -1.341  12.303  22.934  0.00  0.00    +0.000 A 
ATOM     22  C   UNL     1      -2.633  11.791  23.134  0.00  0.00    +0.000 A 
ATOM     23  C   UNL     1      -3.615  12.563  23.759  0.00  0.00    +0.000 A 
ATOM     24  C   UNL     1      -3.318  13.854  24.189  0.00  0.00    +0.000 A 
ATOM     25  C   UNL     1      -2.042  14.376  23.990  0.00  0.00    +0.000 A 
ATOM     26  C   UNL     1      -1.058  13.604  23.366  0.00  0.00    +0.000 A 
ENDBRANCH  20  21
ENDBRANCH   6  20
TORSDOF 4
ENDMDL
MODEL 4
REMARK VINA RESULT:      -6.7      0.902      1.323
REMARK  Name = 
REMARK  4 active torsions:
REMARK  status: ('A' for Active; 'I' for Inactive)
REMARK    1  A    between atoms: C_2  and  C_3
REMARK    2  A    between atoms: C_8  and  O_9
REMARK    3  A    between atoms: C_16  and  C_17
REMARK    4  A    between atoms: C_17  and  C_18
REMARK                            x       y       z     vdW  Elec       q    Type
REMARK                         _______ _______ _______ _____ _____    ______ ____
ROOT
ATOM      1  O   UNL     1       2.257   8.804  17.332  0.00  0.00    +0.000 OA
ATOM      2  C   UNL     1       2.131   8.182  18.392  0.00  0.00    +0.000 C 
ATOM      3  N   UNL     1       1.608   8.828  19.528  0.00  0.00    +0.000 N 
ATOM      4  C   UNL     1       1.611   8.286  20.888  0.00  0.00    +0.000 C 
ATOM      5  C   UNL     1       0.172   8.101  21.355  0.00  0.00    +0.000 C 
ATOM      6  C   UNL     1      -0.578   9.447  21.347  0.00  0.00    +0.000 C 
ATOM      7  C   UNL     1      -0.480  10.070  19.934  0.00  0.00    +0.000 C 
ATOM      8  C   UNL     1       0.958  10.126  19.394  0.00  0.00    +0.000 C 
ENDROOT
BRANCH   2   9
ATOM      9  C   UNL     1       2.500   6.765  18.509  0.00  0.00    +0.000 A 
ATOM     10  N   UNL     1       3.587   6.343  19.124  0.00  0.00    +0.000 NA
ATOM     11  C   UNL     1       3.716   4.980  18.975  0.00  0.00    +0.000 A 
ATOM     12  C   UNL     1       4.813   4.215  19.419  0.00  0.00    +0.000 A 
ATOM     13  C   UNL     1       4.820   2.834  19.220  0.00  0.00    +0.000 A 
ATOM     14  C   UNL     1       3.744   2.225  18.587  0.00  0.00    +0.000 A 
ATOM     15  C   UNL     1       2.649   2.956  18.122  0.00  0.00    +0.000 A 
ATOM     16  C   UNL     1       2.659   4.344  18.322  0.00  0.00    +0.000 A 
ATOM     17  S   UNL     1       1.497   5.535  17.862  0.00  0.00    +0.000 S 
BRANCH  14  18
ATOM     18  O   UNL     1       3.722   0.874  18.392  0.00  0.00    +0.000 OA
ATOM     19  H   UNL     1       2.844   0.536  18.634  0.00  0.00    +0.000 HD
ENDBRANCH  14  18
ENDBRANCH   2   9
BRANCH   6  20
ATOM     20  C   UNL     1      -0.063  10.436  22.420  0.00  0.00    +0.000 C 
BRANCH  20  21
ATOM     21  C   UNL     1      -0.939  11.645  22.658  0.00  0.00    +0.000 A 
ATOM     22  C   UNL     1      -0.524  12.917  22.232  0.00  0.00    +0.000 A 
ATOM     23  C   UNL     1      -1.350  14.030  22.403  0.00  0.00    +0.000 A 
ATOM     24  C   UNL     1      -2.600  13.885  23.002  0.00  0.00    +0.000 A 
ATOM     25  C   UNL     1      -3.020  12.629  23.434  0.00  0.00    +0.000 A 
ATOM     26  C   UNL     1      -2.195  11.515  23.263  0.00  0.00    +0.000 A 
ENDBRANCH  20  21
ENDBRANCH   6  20
TORSDOF 4
ENDMDL
MODEL 5
REMARK VINA RESULT:      -6.6      3.174      4.653
REMARK  Name = 
REMARK  4 active torsions:
REMARK  status: ('A' for Active; 'I' for Inactive)
REMARK    1  A    between atoms: C_2  and  C_3
REMARK    2  A    between atoms: C_8  and  O_9
REMARK    3  A    between atoms: C_16  and  C_17
REMARK    4  A    between atoms: C_17  and  C_18
REMARK                            x       y       z     vdW  Elec       q    Type
REMARK                         _______ _______ _______ _____ _____    ______ ____
ROOT
ATOM      1  O   UNL     1       3.105   2.380  18.559  0.00  0.00    +0.000 OA
ATOM      2  C   UNL     1       3.225   3.564  18.227  0.00  0.00    +0.000 C 
ATOM      3  N   UNL     1       2.417   4.547  18.828  0.00  0.00    +0.000 N 
ATOM      4  C   UNL     1       2.297   5.936  18.379  0.00  0.00    +0.000 C 
ATOM      5  C   UNL     1       2.802   6.862  19.480  0.00  0.00    +0.000 C 
ATOM      6  C   UNL     1       1.978   6.672  20.768  0.00  0.00    +0.000 C 
ATOM      7  C   UNL     1       2.015   5.179  21.174  0.00  0.00    +0.000 C 
ATOM      8  C   UNL     1       1.647   4.228  20.025  0.00  0.00    +0.000 C 
ENDROOT
BRANCH   2   9
ATOM      9  C   UNL     1       4.206   3.993  17.222  0.00  0.00    +0.000 A 
ATOM     10  N   UNL     1       4.096   3.727  15.935  0.00  0.00    +0.000 NA
ATOM     11  C   UNL     1       5.218   4.162  15.264  0.00  0.00    +0.000 A 
ATOM     12  C   UNL     1       5.478   3.950  13.896  0.00  0.00    +0.000 A 
ATOM     13  C   UNL     1       6.648   4.455  13.327  0.00  0.00    +0.000 A 
ATOM     14  C   UNL     1       7.545   5.163  14.116  0.00  0.00    +0.000 A 
ATOM     15  C   UNL     1       7.325   5.377  15.478  0.00  0.00    +0.000 A 
ATOM     16  C   UNL     1       6.148   4.858  16.038  0.00  0.00    +0.000 A 
ATOM     17  S   UNL     1       5.580   4.917  17.667  0.00  0.00    +0.000 S 
BRANCH  14  18
ATOM     18  O   UNL     1       8.691   5.678  13.580  0.00  0.00    +0.000 OA
ATOM     19  H   UNL     1       9.436   5.104  13.822  0.00  0.00    +0.000 HD
ENDBRANCH  14  18
ENDBRANCH   2   9
BRANCH   6  20
ATOM     20  C   UNL     1       0.518   7.168  20.635  0.00  0.00    +0.000 C 
BRANCH  20  21
ATOM     21  C   UNL     1       0.250   8.545  21.201  0.00  0.00    +0.000 A 
ATOM     22  C   UNL     1       0.581   9.692  20.463  0.00  0.00    +0.000 A 
ATOM     23  C   UNL     1       0.290  10.965  20.956  0.00  0.00    +0.000 A 
ATOM     24  C   UNL     1      -0.334  11.107  22.194  0.00  0.00    +0.000 A 
ATOM     25  C   UNL     1      -0.661   9.976  22.940  0.00  0.00    +0.000 A 
ATOM     26  C   UNL     1      -0.372   8.702  22.446  0.00  0.00    +0.000 A 
ENDBRANCH  20  21
ENDBRANCH   6  20
TORSDOF 4
ENDMDL
MODEL 6
REMARK VINA RESULT:      -6.5      3.039      4.489
REMARK  Name = 
REMARK  4 active torsions:
REMARK  status: ('A' for Active; 'I' for Inactive)
REMARK    1  A    between atoms: C_2  and  C_3
REMARK    2  A    between atoms: C_8  and  O_9
REMARK    3  A    between atoms: C_16  and  C_17
REMARK    4  A    between atoms: C_17  and  C_18
REMARK                            x       y       z     vdW  Elec       q    Type
REMARK                         _______ _______ _______ _____ _____    ______ ____
ROOT
ATOM      1  O   UNL     1       3.357   2.724  19.214  0.00  0.00    +0.000 OA
ATOM      2  C   UNL     1       3.355   3.849  18.701  0.00  0.00    +0.000 C 
ATOM      3  N   UNL     1       2.464   4.832  19.170  0.00  0.00    +0.000 N 
ATOM      4  C   UNL     1       2.200   6.117  18.519  0.00  0.00    +0.000 C 
ATOM      5  C   UNL     1       2.630   7.245  19.449  0.00  0.00    +0.000 C 
ATOM      6  C   UNL     1       1.849   7.180  20.776  0.00  0.00    +0.000 C 
ATOM      7  C   UNL     1       2.038   5.778  21.404  0.00  0.00    +0.000 C 
ATOM      8  C   UNL     1       1.748   4.630  20.424  0.00  0.00    +0.000 C 
ENDROOT
BRANCH   2   9
ATOM      9  C   UNL     1       4.273   4.207  17.613  0.00  0.00    +0.000 A 
ATOM     10  N   UNL     1       4.102   3.832  16.361  0.00  0.00    +0.000 NA
ATOM     11  C   UNL     1       5.178   4.228  15.597  0.00  0.00    +0.000 A 
ATOM     12  C   UNL     1       5.371   3.906  14.239  0.00  0.00    +0.000 A 
ATOM     13  C   UNL     1       6.500   4.380  13.569  0.00  0.00    +0.000 A 
ATOM     14  C   UNL     1       7.421   5.168  14.247  0.00  0.00    +0.000 A 
ATOM     15  C   UNL     1       7.267   5.492  15.596  0.00  0.00    +0.000 A 
ATOM     16  C   UNL     1       6.132   5.002  16.259  0.00  0.00    +0.000 A 
ATOM     17  S   UNL     1       5.647   5.189  17.905  0.00  0.00    +0.000 S 
BRANCH  14  18
ATOM     18  O   UNL     1       8.526   5.655  13.610  0.00  0.00    +0.000 OA
ATOM     19  H   UNL     1       9.279   5.070  13.795  0.00  0.00    +0.000 HD
ENDBRANCH  14  18
ENDBRANCH   2   9
BRANCH   6  20
ATOM     20  C   UNL     1       0.345   7.509  20.614  0.00  0.00    +0.000 C 
BRANCH  20  21
ATOM     21  C   UNL     1      -0.087   8.846  21.175  0.00  0.00    +0.000 A 
ATOM     22  C   UNL     1      -0.365   8.983  22.544  0.00  0.00    +0.000 A 
ATOM     23  C   UNL     1      -0.716  10.225  23.079  0.00  0.00    +0.000 A 
ATOM     24  C   UNL     1      -0.795  11.343  22.250  0.00  0.00    +0.000 A 
ATOM     25  C   UNL     1      -0.529  11.217  20.889  0.00  0.00    +0.000 A 
ATOM     26  C   UNL     1      -0.176   9.976  20.353  0.00  0.00    +0.000 A 
ENDBRANCH  20  21
ENDBRANCH   6  20
TORSDOF 4
ENDMDL
MODEL 7
REMARK VINA RESULT:      -6.5      3.707      9.655
REMARK  Name = 
REMARK  4 active torsions:
REMARK  status: ('A' for Active; 'I' for Inactive)
REMARK    1  A    between atoms: C_2  and  C_3
REMARK    2  A    between atoms: C_8  and  O_9
REMARK    3  A    between atoms: C_16  and  C_17
REMARK    4  A    between atoms: C_17  and  C_18
REMARK                            x       y       z     vdW  Elec       q    Type
REMARK                         _______ _______ _______ _____ _____    ______ ____
ROOT
ATOM      1  O   UNL     1       2.719   4.793  20.824  0.00  0.00    +0.000 OA
ATOM      2  C   UNL     1       2.961   5.584  19.905  0.00  0.00    +0.000 C 
ATOM      3  N   UNL     1       3.873   5.227  18.894  0.00  0.00    +0.000 N 
ATOM      4  C   UNL     1       4.416   6.137  17.884  0.00  0.00    +0.000 C 
ATOM      5  C   UNL     1       3.977   5.668  16.501  0.00  0.00    +0.000 C 
ATOM      6  C   UNL     1       4.488   4.240  16.226  0.00  0.00    +0.000 C 
ATOM      7  C   UNL     1       4.006   3.305  17.360  0.00  0.00    +0.000 C 
ATOM      8  C   UNL     1       4.317   3.844  18.766  0.00  0.00    +0.000 C 
ENDROOT
BRANCH   2   9
ATOM      9  C   UNL     1       2.311   6.897  19.820  0.00  0.00    +0.000 A 
ATOM     10  N   UNL     1       2.331   7.653  18.740  0.00  0.00    +0.000 NA
ATOM     11  C   UNL     1       1.731   8.865  18.998  0.00  0.00    +0.000 A 
ATOM     12  C   UNL     1       1.667   9.948  18.099  0.00  0.00    +0.000 A 
ATOM     13  C   UNL     1       1.017  11.124  18.476  0.00  0.00    +0.000 A 
ATOM     14  C   UNL     1       0.437  11.215  19.735  0.00  0.00    +0.000 A 
ATOM     15  C   UNL     1       0.496  10.167  20.655  0.00  0.00    +0.000 A 
ATOM     16  C   UNL     1       1.159   8.994  20.265  0.00  0.00    +0.000 A 
ATOM     17  S   UNL     1       1.434   7.536  21.147  0.00  0.00    +0.000 S 
BRANCH  14  18
ATOM     18  O   UNL     1      -0.215  12.351  20.122  0.00  0.00    +0.000 OA
ATOM     19  H   UNL     1      -0.840  12.128  20.831  0.00  0.00    +0.000 HD
ENDBRANCH  14  18
ENDBRANCH   2   9
BRANCH   6  20
ATOM     20  C   UNL     1       6.026   4.165  16.069  0.00  0.00    +0.000 C 
BRANCH  20  21
ATOM     21  C   UNL     1       6.537   4.276  14.650  0.00  0.00    +0.000 A 
ATOM     22  C   UNL     1       5.985   3.481  13.634  0.00  0.00    +0.000 A 
ATOM     23  C   UNL     1       6.416   3.614  12.312  0.00  0.00    +0.000 A 
ATOM     24  C   UNL     1       7.405   4.542  11.992  0.00  0.00    +0.000 A 
ATOM     25  C   UNL     1       7.967   5.331  12.993  0.00  0.00    +0.000 A 
ATOM     26  C   UNL     1       7.535   5.200  14.315  0.00  0.00    +0.000 A 
ENDBRANCH  20  21
ENDBRANCH   6  20
TORSDOF 4
ENDMDL
MODEL 8
REMARK VINA RESULT:      -6.4      3.288      9.195
REMARK  Name = 
REMARK  4 active torsions:
REMARK  status: ('A' for Active; 'I' for Inactive)
REMARK    1  A    between atoms: C_2  and  C_3
REMARK    2  A    between atoms: C_8  and  O_9
REMARK    3  A    between atoms: C_16  and  C_17
REMARK    4  A    between atoms: C_17  and  C_18
REMARK                            x       y       z     vdW  Elec       q    Type
REMARK                         _______ _______ _______ _____ _____    ______ ____
ROOT
ATOM      1  O   UNL     1      -0.311   7.858  21.935  0.00  0.00    +0.000 OA
ATOM      2  C   UNL     1       0.492   8.300  21.105  0.00  0.00    +0.000 C 
ATOM      3  N   UNL     1       1.509   7.468  20.600  0.00  0.00    +0.000 N 
ATOM      4  C   UNL     1       2.647   7.916  19.794  0.00  0.00    +0.000 C 
ATOM      5  C   UNL     1       2.573   7.262  18.419  0.00  0.00    +0.000 C 
ATOM      6  C   UNL     1       2.614   5.726  18.546  0.00  0.00    +0.000 C 
ATOM      7  C   UNL     1       1.478   5.269  19.492  0.00  0.00    +0.000 C 
ATOM      8  C   UNL     1       1.456   6.029  20.827  0.00  0.00    +0.000 C 
ENDROOT
BRANCH   2   9
ATOM      9  C   UNL     1       0.414   9.679  20.608  0.00  0.00    +0.000 A 
ATOM     10  N   UNL     1       0.997  10.702  21.201  0.00  0.00    +0.000 NA
ATOM     11  C   UNL     1       0.655  11.876  20.566  0.00  0.00    +0.000 A 
ATOM     12  C   UNL     1       1.019  13.167  20.996  0.00  0.00    +0.000 A 
ATOM     13  C   UNL     1       0.621  14.281  20.255  0.00  0.00    +0.000 A 
ATOM     14  C   UNL     1      -0.129  14.106  19.100  0.00  0.00    +0.000 A 
ATOM     15  C   UNL     1      -0.520  12.841  18.656  0.00  0.00    +0.000 A 
ATOM     16  C   UNL     1      -0.119  11.731  19.414  0.00  0.00    +0.000 A 
ATOM     17  S   UNL     1      -0.440  10.052  19.170  0.00  0.00    +0.000 S 
BRANCH  14  18
ATOM     18  O   UNL     1      -0.520  15.179  18.352  0.00  0.00    +0.000 OA
ATOM     19  H   UNL     1       0.224  15.460  17.793  0.00  0.00    +0.000 HD
ENDBRANCH  14  18
ENDBRANCH   2   9
BRANCH   6  20
ATOM     20  C   UNL     1       3.982   5.193  19.035  0.00  0.00    +0.000 C 
BRANCH  20  21
ATOM     21  C   UNL     1       4.980   4.879  17.943  0.00  0.00    +0.000 A 
ATOM     22  C   UNL     1       4.538   4.496  16.667  0.00  0.00    +0.000 A 
ATOM     23  C   UNL     1       5.452   4.254  15.639  0.00  0.00    +0.000 A 
ATOM     24  C   UNL     1       6.819   4.389  15.877  0.00  0.00    +0.000 A 
ATOM     25  C   UNL     1       7.270   4.761  17.141  0.00  0.00    +0.000 A 
ATOM     26  C   UNL     1       6.356   5.005  18.169  0.00  0.00    +0.000 A 
ENDBRANCH  20  21
ENDBRANCH   6  20
TORSDOF 4
ENDMDL
MODEL 9
REMARK VINA RESULT:      -6.3      2.982      4.006
REMARK  Name = 
REMARK  4 active torsions:
REMARK  status: ('A' for Active; 'I' for Inactive)
REMARK    1  A    between atoms: C_2  and  C_3
REMARK    2  A    between atoms: C_8  and  O_9
REMARK    3  A    between atoms: C_16  and  C_17
REMARK    4  A    between atoms: C_17  and  C_18
REMARK                            x       y       z     vdW  Elec       q    Type
REMARK                         _______ _______ _______ _____ _____    ______ ____
ROOT
ATOM      1  O   UNL     1       1.964   9.145  22.484  0.00  0.00    +0.000 OA
ATOM      2  C   UNL     1       1.380   8.848  21.436  0.00  0.00    +0.000 C 
ATOM      3  N   UNL     1       0.487   9.762  20.846  0.00  0.00    +0.000 N 
ATOM      4  C   UNL     1      -0.429   9.461  19.744  0.00  0.00    +0.000 C 
ATOM      5  C   UNL     1      -0.059  10.317  18.539  0.00  0.00    +0.000 C 
ATOM      6  C   UNL     1      -0.159  11.815  18.887  0.00  0.00    +0.000 C 
ATOM      7  C   UNL     1       0.724  12.105  20.124  0.00  0.00    +0.000 C 
ATOM      8  C   UNL     1       0.458  11.148  21.298  0.00  0.00    +0.000 C 
ENDROOT
BRANCH   2   9
ATOM      9  C   UNL     1       1.597   7.560  20.765  0.00  0.00    +0.000 A 
ATOM     10  N   UNL     1       1.142   6.411  21.226  0.00  0.00    +0.000 NA
ATOM     11  C   UNL     1       1.595   5.373  20.442  0.00  0.00    +0.000 A 
ATOM     12  C   UNL     1       1.383   4.005  20.704  0.00  0.00    +0.000 A 
ATOM     13  C   UNL     1       1.883   3.046  19.823  0.00  0.00    +0.000 A 
ATOM     14  C   UNL     1       2.585   3.449  18.695  0.00  0.00    +0.000 A 
ATOM     15  C   UNL     1       2.826   4.795  18.414  0.00  0.00    +0.000 A 
ATOM     16  C   UNL     1       2.323   5.748  19.312  0.00  0.00    +0.000 A 
ATOM     17  S   UNL     1       2.455   7.469  19.284  0.00  0.00    +0.000 S 
BRANCH  14  18
ATOM     18  O   UNL     1       3.074   2.529  17.811  0.00  0.00    +0.000 OA
ATOM     19  H   UNL     1       3.047   1.651  18.225  0.00  0.00    +0.000 HD
ENDBRANCH  14  18
ENDBRANCH   2   9
BRANCH   6  20
ATOM     20  C   UNL     1      -1.613  12.288  19.128  0.00  0.00    +0.000 C 
BRANCH  20  21
ATOM     21  C   UNL     1      -2.622  11.819  18.104  0.00  0.00    +0.000 A 
ATOM     22  C   UNL     1      -2.211  11.483  16.805  0.00  0.00    +0.000 A 
ATOM     23  C   UNL     1      -3.129  11.000  15.869  0.00  0.00    +0.000 A 
ATOM     24  C   UNL     1      -4.468  10.850  16.221  0.00  0.00    +0.000 A 
ATOM     25  C   UNL     1      -4.890  11.187  17.506  0.00  0.00    +0.000 A 
ATOM     26  C   UNL     1      -3.973  11.668  18.443  0.00  0.00    +0.000 A 
ENDBRANCH  20  21
ENDBRANCH   6  20
TORSDOF 4
ENDMDL
