MODEL 1
REMARK VINA RESULT:      -8.1      0.000      0.000
REMARK  Name = 
REMARK  6 active torsions:
REMARK  status: ('A' for Active; 'I' for Inactive)
REMARK    1  A    between atoms: C_2  and  C_3
REMARK    2  A    between atoms: C_3  and  N_4
REMARK    3  A    between atoms: C_8  and  C_9
REMARK    4  A    between atoms: C_9  and  N_10
REMARK    5  A    between atoms: C_11  and  C_13
REMARK    6  A    between atoms: C_16  and  C_17
REMARK                            x       y       z     vdW  Elec       q    Type
REMARK                         _______ _______ _______ _____ _____    ______ ____
ROOT
ATOM      1  N   UNL     1       3.793   5.502  19.718  0.00  0.00    +0.000 N 
ATOM      2  C   UNL     1       2.877   6.104  18.872  0.00  0.00    +0.000 C 
ATOM      3  O   UNL     1       2.641   5.706  17.739  0.00  0.00    +0.000 OA
ATOM      4  H   UNL     1       3.650   5.630  20.715  0.00  0.00    +0.000 HD
ENDROOT
BRANCH   2   5
ATOM      5  C   UNL     1       2.171   7.280  19.446  0.00  0.00    +0.000 A 
ATOM      6  C   UNL     1       1.746   7.242  20.775  0.00  0.00    +0.000 A 
ATOM      7  C   UNL     1       1.012   8.300  21.305  0.00  0.00    +0.000 A 
ATOM      8  C   UNL     1       0.696   9.442  20.542  0.00  0.00    +0.000 A 
ATOM      9  C   UNL     1       1.194   9.488  19.226  0.00  0.00    +0.000 A 
ATOM     10  C   UNL     1       1.925   8.422  18.677  0.00  0.00    +0.000 A 
BRANCH   8  11
ATOM     11  C   UNL     1      -0.184  10.489  21.114  0.00  0.00    +0.000 A 
ATOM     12  C   UNL     1      -0.508  10.503  22.485  0.00  0.00    +0.000 A 
ATOM     13  C   UNL     1      -1.459  11.386  23.006  0.00  0.00    +0.000 A 
ATOM     14  C   UNL     1      -2.086  12.300  22.172  0.00  0.00    +0.000 A 
ATOM     15  C   UNL     1      -1.751  12.345  20.821  0.00  0.00    +0.000 A 
ATOM     16  C   UNL     1      -0.811  11.449  20.299  0.00  0.00    +0.000 A 
ENDBRANCH   8  11
ENDBRANCH   2   5
BRANCH   1  17
ATOM     17  C   UNL     1       4.532   4.335  19.299  0.00  0.00    +0.000 C 
BRANCH  17  22
ATOM     18  N   UNL     1       6.516   4.659  17.707  0.00  0.00    +0.000 N 
ATOM     19  N   UNL     1       7.794   5.069  17.800  0.00  0.00    +0.000 NA
ATOM     20  N   UNL     1       7.965   5.411  19.066  0.00  0.00    +0.000 NA
ATOM     21  N   UNL     1       6.817   5.213  19.786  0.00  0.00    +0.000 NA
ATOM     22  C   UNL     1       5.918   4.734  18.944  0.00  0.00    +0.000 A 
BRANCH  18  23
ATOM     23  C   UNL     1       6.012   4.224  16.425  0.00  0.00    +0.000 C 
BRANCH  23  25
ATOM     24  N   UNL     1       7.536   5.321  14.373  0.00  0.00    +0.000 NA
ATOM     25  C   UNL     1       6.844   4.823  15.303  0.00  0.00    +0.000 C 
ENDBRANCH  23  25
ENDBRANCH  18  23
ENDBRANCH  17  22
ENDBRANCH   1  17
TORSDOF 6
ENDMDL
MODEL 2
REMARK VINA RESULT:      -7.9      1.731      2.999
REMARK  Name = 
REMARK  6 active torsions:
REMARK  status: ('A' for Active; 'I' for Inactive)
REMARK    1  A    between atoms: C_2  and  C_3
REMARK    2  A    between atoms: C_3  and  N_4
REMARK    3  A    between atoms: C_8  and  C_9
REMARK    4  A    between atoms: C_9  and  N_10
REMARK    5  A    between atoms: C_11  and  C_13
REMARK    6  A    between atoms: C_16  and  C_17
REMARK                            x       y       z     vdW  Elec       q    Type
REMARK                         _______ _______ _______ _____ _____    ______ ____
ROOT
ATOM      1  N   UNL     1       4.126   4.531  17.105  0.00  0.00    +0.000 N 
ATOM      2  C   UNL     1       4.011   4.520  18.484  0.00  0.00    +0.000 C 
ATOM      3  O   UNL     1       4.583   3.712  19.203  0.00  0.00    +0.000 OA
ATOM      4  H   UNL     1       3.961   5.417  16.637  0.00  0.00    +0.000 HD
ENDROOT
BRANCH   2   5
ATOM      5  C   UNL     1       3.142   5.585  19.050  0.00  0.00    +0.000 A 
ATOM      6  C   UNL     1       3.053   6.815  18.396  0.00  0.00    +0.000 A 
ATOM      7  C   UNL     1       2.309   7.852  18.954  0.00  0.00    +0.000 A 
ATOM      8  C   UNL     1       1.610   7.697  20.166  0.00  0.00    +0.000 A 
ATOM      9  C   UNL     1       1.659   6.427  20.773  0.00  0.00    +0.000 A 
ATOM     10  C   UNL     1       2.414   5.378  20.226  0.00  0.00    +0.000 A 
BRANCH   8  11
ATOM     11  C   UNL     1       0.927   8.863  20.778  0.00  0.00    +0.000 A 
ATOM     12  C   UNL     1       0.695   8.929  22.165  0.00  0.00    +0.000 A 
ATOM     13  C   UNL     1      -0.084   9.941  22.732  0.00  0.00    +0.000 A 
ATOM     14  C   UNL     1      -0.625  10.933  21.926  0.00  0.00    +0.000 A 
ATOM     15  C   UNL     1      -0.373  10.923  20.557  0.00  0.00    +0.000 A 
ATOM     16  C   UNL     1       0.395   9.899  19.990  0.00  0.00    +0.000 A 
ENDBRANCH   8  11
ENDBRANCH   2   5
BRANCH   1  17
ATOM     17  C   UNL     1       4.958   3.568  16.424  0.00  0.00    +0.000 C 
BRANCH  17  22
ATOM     18  N   UNL     1       6.954   5.138  16.067  0.00  0.00    +0.000 N 
ATOM     19  N   UNL     1       7.647   5.626  15.022  0.00  0.00    +0.000 NA
ATOM     20  N   UNL     1       7.117   5.060  13.951  0.00  0.00    +0.000 NA
ATOM     21  N   UNL     1       6.086   4.227  14.297  0.00  0.00    +0.000 NA
ATOM     22  C   UNL     1       5.976   4.285  15.613  0.00  0.00    +0.000 A 
BRANCH  18  23
ATOM     23  C   UNL     1       7.308   5.565  17.402  0.00  0.00    +0.000 C 
BRANCH  23  25
ATOM     24  N   UNL     1       7.653   8.324  17.467  0.00  0.00    +0.000 NA
ATOM     25  C   UNL     1       7.497   7.073  17.437  0.00  0.00    +0.000 C 
ENDBRANCH  23  25
ENDBRANCH  18  23
ENDBRANCH  17  22
ENDBRANCH   1  17
TORSDOF 6
ENDMDL
MODEL 3
REMARK VINA RESULT:      -7.9      1.284      1.829
REMARK  Name = 
REMARK  6 active torsions:
REMARK  status: ('A' for Active; 'I' for Inactive)
REMARK    1  A    between atoms: C_2  and  C_3
REMARK    2  A    between atoms: C_3  and  N_4
REMARK    3  A    between atoms: C_8  and  C_9
REMARK    4  A    between atoms: C_9  and  N_10
REMARK    5  A    between atoms: C_11  and  C_13
REMARK    6  A    between atoms: C_16  and  C_17
REMARK                            x       y       z     vdW  Elec       q    Type
REMARK                         _______ _______ _______ _____ _____    ______ ____
ROOT
ATOM      1  N   UNL     1       3.578   5.268  17.940  0.00  0.00    +0.000 N 
ATOM      2  C   UNL     1       3.134   5.627  19.201  0.00  0.00    +0.000 C 
ATOM      3  O   UNL     1       3.273   4.921  20.191  0.00  0.00    +0.000 OA
ATOM      4  H   UNL     1       3.779   6.024  17.292  0.00  0.00    +0.000 HD
ENDROOT
BRANCH   2   5
ATOM      5  C   UNL     1       2.479   6.959  19.281  0.00  0.00    +0.000 A 
ATOM      6  C   UNL     1       1.840   7.338  20.463  0.00  0.00    +0.000 A 
ATOM      7  C   UNL     1       1.152   8.547  20.529  0.00  0.00    +0.000 A 
ATOM      8  C   UNL     1       1.095   9.431  19.434  0.00  0.00    +0.000 A 
ATOM      9  C   UNL     1       1.805   9.060  18.276  0.00  0.00    +0.000 A 
ATOM     10  C   UNL     1       2.492   7.838  18.193  0.00  0.00    +0.000 A 
BRANCH   8  11
ATOM     11  C   UNL     1       0.256  10.652  19.515  0.00  0.00    +0.000 A 
ATOM     12  C   UNL     1       0.365  11.678  18.557  0.00  0.00    +0.000 A 
ATOM     13  C   UNL     1      -0.302  12.898  18.708  0.00  0.00    +0.000 A 
ATOM     14  C   UNL     1      -1.120  13.108  19.808  0.00  0.00    +0.000 A 
ATOM     15  C   UNL     1      -1.288  12.094  20.748  0.00  0.00    +0.000 A 
ATOM     16  C   UNL     1      -0.607  10.879  20.602  0.00  0.00    +0.000 A 
ENDBRANCH   8  11
ENDBRANCH   2   5
BRANCH   1  17
ATOM     17  C   UNL     1       4.255   4.012  17.722  0.00  0.00    +0.000 C 
BRANCH  17  22
ATOM     18  N   UNL     1       6.506   4.293  16.527  0.00  0.00    +0.000 N 
ATOM     19  N   UNL     1       7.790   4.483  16.882  0.00  0.00    +0.000 NA
ATOM     20  N   UNL     1       7.783   4.579  18.200  0.00  0.00    +0.000 NA
ATOM     21  N   UNL     1       6.513   4.441  18.694  0.00  0.00    +0.000 NA
ATOM     22  C   UNL     1       5.720   4.250  17.655  0.00  0.00    +0.000 A 
BRANCH  18  23
ATOM     23  C   UNL     1       6.180   4.159  15.126  0.00  0.00    +0.000 C 
BRANCH  23  25
ATOM     24  N   UNL     1       8.006   5.571  13.576  0.00  0.00    +0.000 NA
ATOM     25  C   UNL     1       7.177   4.931  14.279  0.00  0.00    +0.000 C 
ENDBRANCH  23  25
ENDBRANCH  18  23
ENDBRANCH  17  22
ENDBRANCH   1  17
TORSDOF 6
ENDMDL
MODEL 4
REMARK VINA RESULT:      -7.8      0.322      1.018
REMARK  Name = 
REMARK  6 active torsions:
REMARK  status: ('A' for Active; 'I' for Inactive)
REMARK    1  A    between atoms: C_2  and  C_3
REMARK    2  A    between atoms: C_3  and  N_4
REMARK    3  A    between atoms: C_8  and  C_9
REMARK    4  A    between atoms: C_9  and  N_10
REMARK    5  A    between atoms: C_11  and  C_13
REMARK    6  A    between atoms: C_16  and  C_17
REMARK                            x       y       z     vdW  Elec       q    Type
REMARK                         _______ _______ _______ _____ _____    ______ ____
ROOT
ATOM      1  N   UNL     1       3.579   5.340  19.601  0.00  0.00    +0.000 N 
ATOM      2  C   UNL     1       3.080   6.284  18.719  0.00  0.00    +0.000 C 
ATOM      3  O   UNL     1       3.236   6.224  17.506  0.00  0.00    +0.000 OA
ATOM      4  H   UNL     1       3.097   5.242  20.489  0.00  0.00    +0.000 HD
ENDROOT
BRANCH   2   5
ATOM      5  C   UNL     1       2.312   7.388  19.350  0.00  0.00    +0.000 A 
ATOM      6  C   UNL     1       1.953   7.292  20.696  0.00  0.00    +0.000 A 
ATOM      7  C   UNL     1       1.165   8.278  21.282  0.00  0.00    +0.000 A 
ATOM      8  C   UNL     1       0.725   9.405  20.560  0.00  0.00    +0.000 A 
ATOM      9  C   UNL     1       1.156   9.516  19.224  0.00  0.00    +0.000 A 
ATOM     10  C   UNL     1       1.942   8.522  18.619  0.00  0.00    +0.000 A 
BRANCH   8  11
ATOM     11  C   UNL     1      -0.207  10.369  21.195  0.00  0.00    +0.000 A 
ATOM     12  C   UNL     1      -0.592  11.554  20.539  0.00  0.00    +0.000 A 
ATOM     13  C   UNL     1      -1.339  12.543  21.185  0.00  0.00    +0.000 A 
ATOM     14  C   UNL     1      -1.747  12.355  22.498  0.00  0.00    +0.000 A 
ATOM     15  C   UNL     1      -1.425  11.172  23.159  0.00  0.00    +0.000 A 
ATOM     16  C   UNL     1      -0.663  10.191  22.514  0.00  0.00    +0.000 A 
ENDBRANCH   8  11
ENDBRANCH   2   5
BRANCH   1  17
ATOM     17  C   UNL     1       4.322   4.199  19.122  0.00  0.00    +0.000 C 
BRANCH  17  22
ATOM     18  N   UNL     1       6.488   4.470  17.775  0.00  0.00    +0.000 N 
ATOM     19  N   UNL     1       7.746   4.884  18.010  0.00  0.00    +0.000 NA
ATOM     20  N   UNL     1       7.761   5.271  19.274  0.00  0.00    +0.000 NA
ATOM     21  N   UNL     1       6.533   5.098  19.854  0.00  0.00    +0.000 NA
ATOM     22  C   UNL     1       5.743   4.587  18.926  0.00  0.00    +0.000 A 
BRANCH  18  23
ATOM     23  C   UNL     1       6.144   3.989  16.457  0.00  0.00    +0.000 C 
BRANCH  23  25
ATOM     24  N   UNL     1       7.547   5.410  14.521  0.00  0.00    +0.000 NA
ATOM     25  C   UNL     1       6.910   4.765  15.399  0.00  0.00    +0.000 C 
ENDBRANCH  23  25
ENDBRANCH  18  23
ENDBRANCH  17  22
ENDBRANCH   1  17
TORSDOF 6
ENDMDL
MODEL 5
REMARK VINA RESULT:      -7.8      2.115      2.791
REMARK  Name = 
REMARK  6 active torsions:
REMARK  status: ('A' for Active; 'I' for Inactive)
REMARK    1  A    between atoms: C_2  and  C_3
REMARK    2  A    between atoms: C_3  and  N_4
REMARK    3  A    between atoms: C_8  and  C_9
REMARK    4  A    between atoms: C_9  and  N_10
REMARK    5  A    between atoms: C_11  and  C_13
REMARK    6  A    between atoms: C_16  and  C_17
REMARK                            x       y       z     vdW  Elec       q    Type
REMARK                         _______ _______ _______ _____ _____    ______ ____
ROOT
ATOM      1  N   UNL     1       3.752   5.168  17.367  0.00  0.00    +0.000 N 
ATOM      2  C   UNL     1       3.701   5.729  18.632  0.00  0.00    +0.000 C 
ATOM      3  O   UNL     1       4.255   5.243  19.609  0.00  0.00    +0.000 OA
ATOM      4  H   UNL     1       3.621   5.797  16.580  0.00  0.00    +0.000 HD
ENDROOT
BRANCH   2   5
ATOM      5  C   UNL     1       2.929   6.996  18.726  0.00  0.00    +0.000 A 
ATOM      6  C   UNL     1       2.219   7.280  19.893  0.00  0.00    +0.000 A 
ATOM      7  C   UNL     1       1.425   8.422  19.969  0.00  0.00    +0.000 A 
ATOM      8  C   UNL     1       1.329   9.333  18.898  0.00  0.00    +0.000 A 
ATOM      9  C   UNL     1       2.108   9.061  17.757  0.00  0.00    +0.000 A 
ATOM     10  C   UNL     1       2.903   7.908  17.665  0.00  0.00    +0.000 A 
BRANCH   8  11
ATOM     11  C   UNL     1       0.383  10.472  18.983  0.00  0.00    +0.000 A 
ATOM     12  C   UNL     1      -1.009  10.266  19.013  0.00  0.00    +0.000 A 
ATOM     13  C   UNL     1      -1.912  11.330  18.932  0.00  0.00    +0.000 A 
ATOM     14  C   UNL     1      -1.441  12.633  18.852  0.00  0.00    +0.000 A 
ATOM     15  C   UNL     1      -0.070  12.874  18.872  0.00  0.00    +0.000 A 
ATOM     16  C   UNL     1       0.832  11.805  18.936  0.00  0.00    +0.000 A 
ENDBRANCH   8  11
ENDBRANCH   2   5
BRANCH   1  17
ATOM     17  C   UNL     1       4.488   3.950  17.127  0.00  0.00    +0.000 C 
BRANCH  17  22
ATOM     18  N   UNL     1       6.782   4.875  16.448  0.00  0.00    +0.000 N 
ATOM     19  N   UNL     1       7.508   4.973  15.319  0.00  0.00    +0.000 NA
ATOM     20  N   UNL     1       6.790   4.374  14.384  0.00  0.00    +0.000 NA
ATOM     21  N   UNL     1       5.610   3.905  14.897  0.00  0.00    +0.000 NA
ATOM     22  C   UNL     1       5.599   4.228  16.179  0.00  0.00    +0.000 A 
BRANCH  18  23
ATOM     23  C   UNL     1       7.312   5.434  17.670  0.00  0.00    +0.000 C 
BRANCH  23  25
ATOM     24  N   UNL     1       7.609   8.187  17.416  0.00  0.00    +0.000 NA
ATOM     25  C   UNL     1       7.475   6.939  17.532  0.00  0.00    +0.000 C 
ENDBRANCH  23  25
ENDBRANCH  18  23
ENDBRANCH  17  22
ENDBRANCH   1  17
TORSDOF 6
ENDMDL
MODEL 6
REMARK VINA RESULT:      -7.8      1.360      2.842
REMARK  Name = 
REMARK  6 active torsions:
REMARK  status: ('A' for Active; 'I' for Inactive)
REMARK    1  A    between atoms: C_2  and  C_3
REMARK    2  A    between atoms: C_3  and  N_4
REMARK    3  A    between atoms: C_8  and  C_9
REMARK    4  A    between atoms: C_9  and  N_10
REMARK    5  A    between atoms: C_11  and  C_13
REMARK    6  A    between atoms: C_16  and  C_17
REMARK                            x       y       z     vdW  Elec       q    Type
REMARK                         _______ _______ _______ _____ _____    ______ ____
ROOT
ATOM      1  N   UNL     1       3.988   4.806  17.434  0.00  0.00    +0.000 N 
ATOM      2  C   UNL     1       3.517   4.566  18.714  0.00  0.00    +0.000 C 
ATOM      3  O   UNL     1       3.737   3.533  19.332  0.00  0.00    +0.000 OA
ATOM      4  H   UNL     1       4.103   5.778  17.162  0.00  0.00    +0.000 HD
ENDROOT
BRANCH   2   5
ATOM      5  C   UNL     1       2.725   5.674  19.309  0.00  0.00    +0.000 A 
ATOM      6  C   UNL     1       2.726   6.926  18.691  0.00  0.00    +0.000 A 
ATOM      7  C   UNL     1       2.055   7.996  19.278  0.00  0.00    +0.000 A 
ATOM      8  C   UNL     1       1.342   7.856  20.484  0.00  0.00    +0.000 A 
ATOM      9  C   UNL     1       1.297   6.569  21.053  0.00  0.00    +0.000 A 
ATOM     10  C   UNL     1       1.978   5.485  20.477  0.00  0.00    +0.000 A 
BRANCH   8  11
ATOM     11  C   UNL     1       0.741   9.049  21.128  0.00  0.00    +0.000 A 
ATOM     12  C   UNL     1       0.233   8.994  22.440  0.00  0.00    +0.000 A 
ATOM     13  C   UNL     1      -0.476  10.061  22.999  0.00  0.00    +0.000 A 
ATOM     14  C   UNL     1      -0.666  11.225  22.269  0.00  0.00    +0.000 A 
ATOM     15  C   UNL     1      -0.131  11.330  20.987  0.00  0.00    +0.000 A 
ATOM     16  C   UNL     1       0.564  10.254  20.424  0.00  0.00    +0.000 A 
ENDBRANCH   8  11
ENDBRANCH   2   5
BRANCH   1  17
ATOM     17  C   UNL     1       4.793   3.826  16.746  0.00  0.00    +0.000 C 
BRANCH  17  22
ATOM     18  N   UNL     1       6.611   5.625  16.560  0.00  0.00    +0.000 N 
ATOM     19  N   UNL     1       7.579   5.958  15.686  0.00  0.00    +0.000 NA
ATOM     20  N   UNL     1       7.530   5.039  14.737  0.00  0.00    +0.000 NA
ATOM     21  N   UNL     1       6.535   4.131  14.985  0.00  0.00    +0.000 NA
ATOM     22  C   UNL     1       5.955   4.502  16.113  0.00  0.00    +0.000 A 
BRANCH  18  23
ATOM     23  C   UNL     1       6.416   6.445  17.734  0.00  0.00    +0.000 C 
BRANCH  23  25
ATOM     24  N   UNL     1       7.628   5.264  19.941  0.00  0.00    +0.000 NA
ATOM     25  C   UNL     1       7.079   5.800  18.940  0.00  0.00    +0.000 C 
ENDBRANCH  23  25
ENDBRANCH  18  23
ENDBRANCH  17  22
ENDBRANCH   1  17
TORSDOF 6
ENDMDL
MODEL 7
REMARK VINA RESULT:      -7.8      2.062      3.021
REMARK  Name = 
REMARK  6 active torsions:
REMARK  status: ('A' for Active; 'I' for Inactive)
REMARK    1  A    between atoms: C_2  and  C_3
REMARK    2  A    between atoms: C_3  and  N_4
REMARK    3  A    between atoms: C_8  and  C_9
REMARK    4  A    between atoms: C_9  and  N_10
REMARK    5  A    between atoms: C_11  and  C_13
REMARK    6  A    between atoms: C_16  and  C_17
REMARK                            x       y       z     vdW  Elec       q    Type
REMARK                         _______ _______ _______ _____ _____    ______ ____
ROOT
ATOM      1  N   UNL     1       3.754   5.322  17.321  0.00  0.00    +0.000 N 
ATOM      2  C   UNL     1       3.727   5.869  18.592  0.00  0.00    +0.000 C 
ATOM      3  O   UNL     1       4.401   5.447  19.523  0.00  0.00    +0.000 OA
ATOM      4  H   UNL     1       3.496   5.933  16.552  0.00  0.00    +0.000 HD
ENDROOT
BRANCH   2   5
ATOM      5  C   UNL     1       2.821   7.036  18.754  0.00  0.00    +0.000 A 
ATOM      6  C   UNL     1       2.617   7.899  17.676  0.00  0.00    +0.000 A 
ATOM      7  C   UNL     1       1.837   9.042  17.834  0.00  0.00    +0.000 A 
ATOM      8  C   UNL     1       1.214   9.354  19.057  0.00  0.00    +0.000 A 
ATOM      9  C   UNL     1       1.377   8.434  20.110  0.00  0.00    +0.000 A 
ATOM     10  C   UNL     1       2.170   7.285  19.967  0.00  0.00    +0.000 A 
BRANCH   8  11
ATOM     11  C   UNL     1       0.488  10.639  19.208  0.00  0.00    +0.000 A 
ATOM     12  C   UNL     1      -0.675  10.914  18.463  0.00  0.00    +0.000 A 
ATOM     13  C   UNL     1      -1.275  12.176  18.477  0.00  0.00    +0.000 A 
ATOM     14  C   UNL     1      -0.743  13.188  19.263  0.00  0.00    +0.000 A 
ATOM     15  C   UNL     1       0.377  12.934  20.050  0.00  0.00    +0.000 A 
ATOM     16  C   UNL     1       0.986  11.673  20.022  0.00  0.00    +0.000 A 
ENDBRANCH   8  11
ENDBRANCH   2   5
BRANCH   1  17
ATOM     17  C   UNL     1       4.609   4.199  17.016  0.00  0.00    +0.000 C 
BRANCH  17  22
ATOM     18  N   UNL     1       6.819   5.334  16.381  0.00  0.00    +0.000 N 
ATOM     19  N   UNL     1       7.508   5.582  15.252  0.00  0.00    +0.000 NA
ATOM     20  N   UNL     1       6.808   5.023  14.279  0.00  0.00    +0.000 NA
ATOM     21  N   UNL     1       5.674   4.432  14.771  0.00  0.00    +0.000 NA
ATOM     22  C   UNL     1       5.674   4.636  16.076  0.00  0.00    +0.000 A 
BRANCH  18  23
ATOM     23  C   UNL     1       7.342   5.815  17.639  0.00  0.00    +0.000 C 
BRANCH  23  25
ATOM     24  N   UNL     1       7.795   8.555  17.506  0.00  0.00    +0.000 NA
ATOM     25  C   UNL     1       7.590   7.312  17.567  0.00  0.00    +0.000 C 
ENDBRANCH  23  25
ENDBRANCH  18  23
ENDBRANCH  17  22
ENDBRANCH   1  17
TORSDOF 6
ENDMDL
MODEL 8
REMARK VINA RESULT:      -7.7      2.262      4.065
REMARK  Name = 
REMARK  6 active torsions:
REMARK  status: ('A' for Active; 'I' for Inactive)
REMARK    1  A    between atoms: C_2  and  C_3
REMARK    2  A    between atoms: C_3  and  N_4
REMARK    3  A    between atoms: C_8  and  C_9
REMARK    4  A    between atoms: C_9  and  N_10
REMARK    5  A    between atoms: C_11  and  C_13
REMARK    6  A    between atoms: C_16  and  C_17
REMARK                            x       y       z     vdW  Elec       q    Type
REMARK                         _______ _______ _______ _____ _____    ______ ____
ROOT
ATOM      1  N   UNL     1       5.073   4.370  16.066  0.00  0.00    +0.000 N 
ATOM      2  C   UNL     1       5.278   4.772  17.375  0.00  0.00    +0.000 C 
ATOM      3  O   UNL     1       6.237   4.418  18.047  0.00  0.00    +0.000 OA
ATOM      4  H   UNL     1       4.515   4.984  15.479  0.00  0.00    +0.000 HD
ENDROOT
BRANCH   2   5
ATOM      5  C   UNL     1       4.247   5.695  17.916  0.00  0.00    +0.000 A 
ATOM      6  C   UNL     1       3.998   6.904  17.264  0.00  0.00    +0.000 A 
ATOM      7  C   UNL     1       3.094   7.817  17.802  0.00  0.00    +0.000 A 
ATOM      8  C   UNL     1       2.389   7.551  18.992  0.00  0.00    +0.000 A 
ATOM      9  C   UNL     1       2.605   6.298  19.595  0.00  0.00    +0.000 A 
ATOM     10  C   UNL     1       3.521   5.374  19.069  0.00  0.00    +0.000 A 
BRANCH   8  11
ATOM     11  C   UNL     1       1.525   8.600  19.586  0.00  0.00    +0.000 A 
ATOM     12  C   UNL     1       1.089   8.518  20.922  0.00  0.00    +0.000 A 
ATOM     13  C   UNL     1       0.150   9.411  21.445  0.00  0.00    +0.000 A 
ATOM     14  C   UNL     1      -0.353  10.431  20.650  0.00  0.00    +0.000 A 
ATOM     15  C   UNL     1       0.096  10.570  19.339  0.00  0.00    +0.000 A 
ATOM     16  C   UNL     1       1.024   9.664  18.814  0.00  0.00    +0.000 A 
ENDBRANCH   8  11
ENDBRANCH   2   5
BRANCH   1  17
ATOM     17  C   UNL     1       6.011   3.494  15.405  0.00  0.00    +0.000 C 
BRANCH  17  22
ATOM     18  N   UNL     1       6.708   3.886  12.968  0.00  0.00    +0.000 N 
ATOM     19  N   UNL     1       7.451   4.781  12.290  0.00  0.00    +0.000 NA
ATOM     20  N   UNL     1       7.843   5.669  13.188  0.00  0.00    +0.000 NA
ATOM     21  N   UNL     1       7.371   5.347  14.433  0.00  0.00    +0.000 NA
ATOM     22  C   UNL     1       6.676   4.231  14.299  0.00  0.00    +0.000 A 
BRANCH  18  23
ATOM     23  C   UNL     1       6.118   2.779  12.251  0.00  0.00    +0.000 C 
BRANCH  23  25
ATOM     24  N   UNL     1       3.737   3.572  11.053  0.00  0.00    +0.000 NA
ATOM     25  C   UNL     1       4.817   3.212  11.596  0.00  0.00    +0.000 C 
ENDBRANCH  23  25
ENDBRANCH  18  23
ENDBRANCH  17  22
ENDBRANCH   1  17
TORSDOF 6
ENDMDL
MODEL 9
REMARK VINA RESULT:      -7.7      1.332      2.755
REMARK  Name = 
REMARK  6 active torsions:
REMARK  status: ('A' for Active; 'I' for Inactive)
REMARK    1  A    between atoms: C_2  and  C_3
REMARK    2  A    between atoms: C_3  and  N_4
REMARK    3  A    between atoms: C_8  and  C_9
REMARK    4  A    between atoms: C_9  and  N_10
REMARK    5  A    between atoms: C_11  and  C_13
REMARK    6  A    between atoms: C_16  and  C_17
REMARK                            x       y       z     vdW  Elec       q    Type
REMARK                         _______ _______ _______ _____ _____    ______ ____
ROOT
ATOM      1  N   UNL     1       3.971   5.057  17.434  0.00  0.00    +0.000 N 
ATOM      2  C   UNL     1       3.121   4.737  18.479  0.00  0.00    +0.000 C 
ATOM      3  O   UNL     1       2.877   3.588  18.823  0.00  0.00    +0.000 OA
ATOM      4  H   UNL     1       4.413   5.971  17.465  0.00  0.00    +0.000 HD
ENDROOT
BRANCH   2   5
ATOM      5  C   UNL     1       2.525   5.902  19.183  0.00  0.00    +0.000 A 
ATOM      6  C   UNL     1       1.904   5.712  20.419  0.00  0.00    +0.000 A 
ATOM      7  C   UNL     1       1.270   6.777  21.054  0.00  0.00    +0.000 A 
ATOM      8  C   UNL     1       1.250   8.070  20.497  0.00  0.00    +0.000 A 
ATOM      9  C   UNL     1       1.941   8.253  19.284  0.00  0.00    +0.000 A 
ATOM     10  C   UNL     1       2.574   7.186  18.629  0.00  0.00    +0.000 A 
BRANCH   8  11
ATOM     11  C   UNL     1       0.464   9.143  21.154  0.00  0.00    +0.000 A 
ATOM     12  C   UNL     1       0.224  10.372  20.509  0.00  0.00    +0.000 A 
ATOM     13  C   UNL     1      -0.375  11.446  21.174  0.00  0.00    +0.000 A 
ATOM     14  C   UNL     1      -0.777  11.305  22.495  0.00  0.00    +0.000 A 
ATOM     15  C   UNL     1      -0.599  10.087  23.145  0.00  0.00    +0.000 A 
ATOM     16  C   UNL     1       0.015   9.018  22.481  0.00  0.00    +0.000 A 
ENDBRANCH   8  11
ENDBRANCH   2   5
BRANCH   1  17
ATOM     17  C   UNL     1       4.639   4.024  16.680  0.00  0.00    +0.000 C 
BRANCH  17  22
ATOM     18  N   UNL     1       6.621   5.637  16.474  0.00  0.00    +0.000 N 
ATOM     19  N   UNL     1       7.594   5.891  15.580  0.00  0.00    +0.000 NA
ATOM     20  N   UNL     1       7.427   5.003  14.614  0.00  0.00    +0.000 NA
ATOM     21  N   UNL     1       6.353   4.193  14.874  0.00  0.00    +0.000 NA
ATOM     22  C   UNL     1       5.844   4.595  16.025  0.00  0.00    +0.000 A 
BRANCH  18  23
ATOM     23  C   UNL     1       6.542   6.446  17.670  0.00  0.00    +0.000 C 
BRANCH  23  25
ATOM     24  N   UNL     1       7.972   5.250  19.733  0.00  0.00    +0.000 NA
ATOM     25  C   UNL     1       7.323   5.793  18.798  0.00  0.00    +0.000 C 
ENDBRANCH  23  25
ENDBRANCH  18  23
ENDBRANCH  17  22
ENDBRANCH   1  17
TORSDOF 6
ENDMDL
