MODEL 1
REMARK VINA RESULT:      -6.8      0.000      0.000
REMARK  Name = 
REMARK  4 active torsions:
REMARK  status: ('A' for Active; 'I' for Inactive)
REMARK    1  A    between atoms: C_1  and  N_2
REMARK    2  A    between atoms: N_2  and  C_3
REMARK    3  A    between atoms: N_2  and  C_4
REMARK    4  A    between atoms: C_9  and  N_10
REMARK                            x       y       z     vdW  Elec       q    Type
REMARK                         _______ _______ _______ _____ _____    ______ ____
ROOT
ATOM      1  C   UNL     1       2.416   6.734  19.794  0.00  0.00    +0.000 A 
ATOM      2  C   UNL     1       1.807   5.711  20.528  0.00  0.00    +0.000 A 
ATOM      3  C   UNL     1       2.317   4.417  20.520  0.00  0.00    +0.000 A 
ATOM      4  F   UNL     1       1.707   3.469  21.246  0.00  0.00    +0.000 F 
ATOM      5  C   UNL     1       3.448   4.088  19.788  0.00  0.00    +0.000 A 
ATOM      6  C   UNL     1       4.113   5.072  19.056  0.00  0.00    +0.000 A 
ATOM      7  C   UNL     1       3.573   6.375  19.066  0.00  0.00    +0.000 A 
ENDROOT
BRANCH   6   8
ATOM      8  N   UNL     1       5.303   4.778  18.333  0.00  0.00    +0.000 N 
ATOM      9  C   UNL     1       6.588   5.001  18.783  0.00  0.00    +0.000 C 
ATOM     10  O   UNL     1       6.965   5.435  19.865  0.00  0.00    +0.000 OA
ATOM     11  C   UNL     1       7.565   4.577  17.700  0.00  0.00    +0.000 C 
ATOM     12  N   UNL     1       6.672   4.142  16.677  0.00  0.00    +0.000 N 
ATOM     13  C   UNL     1       5.351   4.265  17.052  0.00  0.00    +0.000 C 
ATOM     14  O   UNL     1       4.446   3.983  16.282  0.00  0.00    +0.000 OA
ATOM     15  H   UNL     1       6.919   3.843  15.743  0.00  0.00    +0.000 HD
ENDBRANCH   6   8
BRANCH   1  17
ATOM     16  C   UNL     1       1.066   8.522  20.856  0.00  0.00    +0.000 C 
ATOM     17  N   UNL     1       1.891   8.026  19.758  0.00  0.00    +0.000 N 
ATOM     18  C   UNL     1       1.770   8.713  18.475  0.00  0.00    +0.000 C 
ENDBRANCH   1  17
TORSDOF 2
ENDMDL
MODEL 2
REMARK VINA RESULT:      -6.7      3.848      5.443
REMARK  Name = 
REMARK  4 active torsions:
REMARK  status: ('A' for Active; 'I' for Inactive)
REMARK    1  A    between atoms: C_1  and  N_2
REMARK    2  A    between atoms: N_2  and  C_3
REMARK    3  A    between atoms: N_2  and  C_4
REMARK    4  A    between atoms: C_9  and  N_10
REMARK                            x       y       z     vdW  Elec       q    Type
REMARK                         _______ _______ _______ _____ _____    ______ ____
ROOT
ATOM      1  C   UNL     1       6.609   5.213  17.329  0.00  0.00    +0.000 A 
ATOM      2  C   UNL     1       6.913   4.841  16.015  0.00  0.00    +0.000 A 
ATOM      3  C   UNL     1       6.093   3.967  15.307  0.00  0.00    +0.000 A 
ATOM      4  F   UNL     1       6.416   3.645  14.046  0.00  0.00    +0.000 F 
ATOM      5  C   UNL     1       4.945   3.432  15.871  0.00  0.00    +0.000 A 
ATOM      6  C   UNL     1       4.578   3.786  17.169  0.00  0.00    +0.000 A 
ATOM      7  C   UNL     1       5.429   4.663  17.876  0.00  0.00    +0.000 A 
ENDROOT
BRANCH   6   8
ATOM      8  N   UNL     1       3.382   3.292  17.761  0.00  0.00    +0.000 N 
ATOM      9  C   UNL     1       2.246   4.037  18.010  0.00  0.00    +0.000 C 
ATOM     10  O   UNL     1       2.018   5.211  17.748  0.00  0.00    +0.000 OA
ATOM     11  C   UNL     1       1.213   3.142  18.672  0.00  0.00    +0.000 C 
ATOM     12  N   UNL     1       1.922   1.907  18.746  0.00  0.00    +0.000 N 
ATOM     13  C   UNL     1       3.190   2.003  18.215  0.00  0.00    +0.000 C 
ATOM     14  O   UNL     1       3.957   1.053  18.236  0.00  0.00    +0.000 OA
ATOM     15  H   UNL     1       1.610   1.055  19.193  0.00  0.00    +0.000 HD
ENDBRANCH   6   8
BRANCH   1  17
ATOM     16  C   UNL     1       7.789   5.731  19.447  0.00  0.00    +0.000 C 
ATOM     17  N   UNL     1       7.444   6.054  18.066  0.00  0.00    +0.000 N 
ATOM     18  C   UNL     1       7.606   7.444  17.650  0.00  0.00    +0.000 C 
ENDBRANCH   1  17
TORSDOF 2
ENDMDL
MODEL 3
REMARK VINA RESULT:      -6.7      3.585      5.805
REMARK  Name = 
REMARK  4 active torsions:
REMARK  status: ('A' for Active; 'I' for Inactive)
REMARK    1  A    between atoms: C_1  and  N_2
REMARK    2  A    between atoms: N_2  and  C_3
REMARK    3  A    between atoms: N_2  and  C_4
REMARK    4  A    between atoms: C_9  and  N_10
REMARK                            x       y       z     vdW  Elec       q    Type
REMARK                         _______ _______ _______ _____ _____    ______ ____
ROOT
ATOM      1  C   UNL     1       6.244   4.239  15.708  0.00  0.00    +0.000 A 
ATOM      2  C   UNL     1       7.118   4.736  16.681  0.00  0.00    +0.000 A 
ATOM      3  C   UNL     1       6.758   4.767  18.024  0.00  0.00    +0.000 A 
ATOM      4  F   UNL     1       7.631   5.241  18.924  0.00  0.00    +0.000 F 
ATOM      5  C   UNL     1       5.522   4.307  18.455  0.00  0.00    +0.000 A 
ATOM      6  C   UNL     1       4.619   3.777  17.534  0.00  0.00    +0.000 A 
ATOM      7  C   UNL     1       4.996   3.767  16.174  0.00  0.00    +0.000 A 
ENDROOT
BRANCH   6   8
ATOM      8  N   UNL     1       3.362   3.254  17.948  0.00  0.00    +0.000 N 
ATOM      9  C   UNL     1       2.198   3.984  18.087  0.00  0.00    +0.000 C 
ATOM     10  O   UNL     1       1.996   5.169  17.852  0.00  0.00    +0.000 OA
ATOM     11  C   UNL     1       1.097   3.057  18.573  0.00  0.00    +0.000 C 
ATOM     12  N   UNL     1       1.801   1.822  18.679  0.00  0.00    +0.000 N 
ATOM     13  C   UNL     1       3.125   1.945  18.315  0.00  0.00    +0.000 C 
ATOM     14  O   UNL     1       3.891   0.996  18.388  0.00  0.00    +0.000 OA
ATOM     15  H   UNL     1       1.443   0.949  19.043  0.00  0.00    +0.000 HD
ENDBRANCH   6   8
BRANCH   1  17
ATOM     16  C   UNL     1       7.561   5.183  13.832  0.00  0.00    +0.000 C 
ATOM     17  N   UNL     1       6.574   4.242  14.353  0.00  0.00    +0.000 N 
ATOM     18  C   UNL     1       5.647   3.653  13.390  0.00  0.00    +0.000 C 
ENDBRANCH   1  17
TORSDOF 2
ENDMDL
MODEL 4
REMARK VINA RESULT:      -6.7      3.371      5.848
REMARK  Name = 
REMARK  4 active torsions:
REMARK  status: ('A' for Active; 'I' for Inactive)
REMARK    1  A    between atoms: C_1  and  N_2
REMARK    2  A    between atoms: N_2  and  C_3
REMARK    3  A    between atoms: N_2  and  C_4
REMARK    4  A    between atoms: C_9  and  N_10
REMARK                            x       y       z     vdW  Elec       q    Type
REMARK                         _______ _______ _______ _____ _____    ______ ____
ROOT
ATOM      1  C   UNL     1       6.313   4.278  15.588  0.00  0.00    +0.000 A 
ATOM      2  C   UNL     1       7.281   4.667  16.519  0.00  0.00    +0.000 A 
ATOM      3  C   UNL     1       6.984   4.744  17.876  0.00  0.00    +0.000 A 
ATOM      4  F   UNL     1       7.945   5.112  18.736  0.00  0.00    +0.000 F 
ATOM      5  C   UNL     1       5.721   4.438  18.361  0.00  0.00    +0.000 A 
ATOM      6  C   UNL     1       4.722   4.019  17.482  0.00  0.00    +0.000 A 
ATOM      7  C   UNL     1       5.039   3.961  16.108  0.00  0.00    +0.000 A 
ENDROOT
BRANCH   6   8
ATOM      8  N   UNL     1       3.430   3.652  17.952  0.00  0.00    +0.000 N 
ATOM      9  C   UNL     1       3.018   2.366  18.235  0.00  0.00    +0.000 C 
ATOM     10  O   UNL     1       3.656   1.321  18.190  0.00  0.00    +0.000 OA
ATOM     11  C   UNL     1       1.566   2.407  18.681  0.00  0.00    +0.000 C 
ATOM     12  N   UNL     1       1.286   3.801  18.585  0.00  0.00    +0.000 N 
ATOM     13  C   UNL     1       2.379   4.523  18.155  0.00  0.00    +0.000 C 
ATOM     14  O   UNL     1       2.307   5.728  17.970  0.00  0.00    +0.000 OA
ATOM     15  H   UNL     1       0.391   4.251  18.728  0.00  0.00    +0.000 HD
ENDBRANCH   6   8
BRANCH   1  17
ATOM     16  C   UNL     1       7.577   5.134  13.634  0.00  0.00    +0.000 C 
ATOM     17  N   UNL     1       6.584   4.238  14.219  0.00  0.00    +0.000 N 
ATOM     18  C   UNL     1       5.598   3.657  13.312  0.00  0.00    +0.000 C 
ENDBRANCH   1  17
TORSDOF 2
ENDMDL
MODEL 5
REMARK VINA RESULT:      -6.7      3.690      5.425
REMARK  Name = 
REMARK  4 active torsions:
REMARK  status: ('A' for Active; 'I' for Inactive)
REMARK    1  A    between atoms: C_1  and  N_2
REMARK    2  A    between atoms: N_2  and  C_3
REMARK    3  A    between atoms: N_2  and  C_4
REMARK    4  A    between atoms: C_9  and  N_10
REMARK                            x       y       z     vdW  Elec       q    Type
REMARK                         _______ _______ _______ _____ _____    ______ ____
ROOT
ATOM      1  C   UNL     1       6.632   5.333  17.317  0.00  0.00    +0.000 A 
ATOM      2  C   UNL     1       6.904   4.911  16.012  0.00  0.00    +0.000 A 
ATOM      3  C   UNL     1       6.039   4.057  15.336  0.00  0.00    +0.000 A 
ATOM      4  F   UNL     1       6.334   3.686  14.082  0.00  0.00    +0.000 F 
ATOM      5  C   UNL     1       4.872   3.592  15.924  0.00  0.00    +0.000 A 
ATOM      6  C   UNL     1       4.535   3.999  17.215  0.00  0.00    +0.000 A 
ATOM      7  C   UNL     1       5.432   4.854  17.890  0.00  0.00    +0.000 A 
ENDROOT
BRANCH   6   8
ATOM      8  N   UNL     1       3.323   3.577  17.831  0.00  0.00    +0.000 N 
ATOM      9  C   UNL     1       3.037   2.288  18.235  0.00  0.00    +0.000 C 
ATOM     10  O   UNL     1       3.746   1.290  18.195  0.00  0.00    +0.000 OA
ATOM     11  C   UNL     1       1.634   2.260  18.816  0.00  0.00    +0.000 C 
ATOM     12  N   UNL     1       1.241   3.622  18.658  0.00  0.00    +0.000 N 
ATOM     13  C   UNL     1       2.232   4.385  18.078  0.00  0.00    +0.000 C 
ATOM     14  O   UNL     1       2.052   5.566  17.824  0.00  0.00    +0.000 OA
ATOM     15  H   UNL     1       0.332   4.017  18.858  0.00  0.00    +0.000 HD
ENDBRANCH   6   8
BRANCH   1  17
ATOM     16  C   UNL     1       7.923   5.806  19.381  0.00  0.00    +0.000 C 
ATOM     17  N   UNL     1       7.512   6.154  18.024  0.00  0.00    +0.000 N 
ATOM     18  C   UNL     1       7.668   7.549  17.620  0.00  0.00    +0.000 C 
ENDBRANCH   1  17
TORSDOF 2
ENDMDL
MODEL 6
REMARK VINA RESULT:      -6.6      3.649      5.407
REMARK  Name = 
REMARK  4 active torsions:
REMARK  status: ('A' for Active; 'I' for Inactive)
REMARK    1  A    between atoms: C_1  and  N_2
REMARK    2  A    between atoms: N_2  and  C_3
REMARK    3  A    between atoms: N_2  and  C_4
REMARK    4  A    between atoms: C_9  and  N_10
REMARK                            x       y       z     vdW  Elec       q    Type
REMARK                         _______ _______ _______ _____ _____    ______ ____
ROOT
ATOM      1  C   UNL     1       6.156   5.486  17.607  0.00  0.00    +0.000 A 
ATOM      2  C   UNL     1       6.234   5.176  16.246  0.00  0.00    +0.000 A 
ATOM      3  C   UNL     1       5.329   4.301  15.653  0.00  0.00    +0.000 A 
ATOM      4  F   UNL     1       5.435   4.040  14.342  0.00  0.00    +0.000 F 
ATOM      5  C   UNL     1       4.313   3.704  16.384  0.00  0.00    +0.000 A 
ATOM      6  C   UNL     1       4.170   3.995  17.741  0.00  0.00    +0.000 A 
ATOM      7  C   UNL     1       5.106   4.873  18.327  0.00  0.00    +0.000 A 
ENDROOT
BRANCH   6   8
ATOM      8  N   UNL     1       3.110   3.435  18.509  0.00  0.00    +0.000 N 
ATOM      9  C   UNL     1       1.764   3.647  18.288  0.00  0.00    +0.000 C 
ATOM     10  O   UNL     1       1.218   4.291  17.402  0.00  0.00    +0.000 OA
ATOM     11  C   UNL     1       0.973   2.893  19.344  0.00  0.00    +0.000 C 
ATOM     12  N   UNL     1       2.023   2.307  20.111  0.00  0.00    +0.000 N 
ATOM     13  C   UNL     1       3.269   2.630  19.619  0.00  0.00    +0.000 C 
ATOM     14  O   UNL     1       4.287   2.253  20.179  0.00  0.00    +0.000 OA
ATOM     15  H   UNL     1       1.924   1.774  20.965  0.00  0.00    +0.000 HD
ENDBRANCH   6   8
BRANCH   1  17
ATOM     16  C   UNL     1       7.575   7.518  17.538  0.00  0.00    +0.000 C 
ATOM     17  N   UNL     1       7.083   6.327  18.224  0.00  0.00    +0.000 N 
ATOM     18  C   UNL     1       7.894   5.812  19.324  0.00  0.00    +0.000 C 
ENDBRANCH   1  17
TORSDOF 2
ENDMDL
MODEL 7
REMARK VINA RESULT:      -6.6      2.168      3.654
REMARK  Name = 
REMARK  4 active torsions:
REMARK  status: ('A' for Active; 'I' for Inactive)
REMARK    1  A    between atoms: C_1  and  N_2
REMARK    2  A    between atoms: N_2  and  C_3
REMARK    3  A    between atoms: N_2  and  C_4
REMARK    4  A    between atoms: C_9  and  N_10
REMARK                            x       y       z     vdW  Elec       q    Type
REMARK                         _______ _______ _______ _____ _____    ______ ____
ROOT
ATOM      1  C   UNL     1       2.478   4.059  19.256  0.00  0.00    +0.000 A 
ATOM      2  C   UNL     1       2.055   5.373  19.483  0.00  0.00    +0.000 A 
ATOM      3  C   UNL     1       2.806   6.457  19.041  0.00  0.00    +0.000 A 
ATOM      4  F   UNL     1       2.357   7.700  19.271  0.00  0.00    +0.000 F 
ATOM      5  C   UNL     1       4.000   6.282  18.358  0.00  0.00    +0.000 A 
ATOM      6  C   UNL     1       4.460   4.995  18.080  0.00  0.00    +0.000 A 
ATOM      7  C   UNL     1       3.691   3.908  18.548  0.00  0.00    +0.000 A 
ENDROOT
BRANCH   6   8
ATOM      8  N   UNL     1       5.657   4.781  17.341  0.00  0.00    +0.000 N 
ATOM      9  C   UNL     1       5.726   4.541  15.983  0.00  0.00    +0.000 C 
ATOM     10  O   UNL     1       4.823   4.508  15.157  0.00  0.00    +0.000 OA
ATOM     11  C   UNL     1       7.181   4.340  15.597  0.00  0.00    +0.000 C 
ATOM     12  N   UNL     1       7.825   4.483  16.861  0.00  0.00    +0.000 N 
ATOM     13  C   UNL     1       6.928   4.737  17.877  0.00  0.00    +0.000 C 
ATOM     14  O   UNL     1       7.298   4.842  19.036  0.00  0.00    +0.000 OA
ATOM     15  H   UNL     1       8.808   4.348  17.060  0.00  0.00    +0.000 HD
ENDBRANCH   6   8
BRANCH   1  17
ATOM     16  C   UNL     1       0.836   2.244  18.855  0.00  0.00    +0.000 C 
ATOM     17  N   UNL     1       1.757   2.962  19.731  0.00  0.00    +0.000 N 
ATOM     18  C   UNL     1       1.565   2.803  21.170  0.00  0.00    +0.000 C 
ENDBRANCH   1  17
TORSDOF 2
ENDMDL
MODEL 8
REMARK VINA RESULT:      -6.6      2.359      3.495
REMARK  Name = 
REMARK  4 active torsions:
REMARK  status: ('A' for Active; 'I' for Inactive)
REMARK    1  A    between atoms: C_1  and  N_2
REMARK    2  A    between atoms: N_2  and  C_3
REMARK    3  A    between atoms: N_2  and  C_4
REMARK    4  A    between atoms: C_9  and  N_10
REMARK                            x       y       z     vdW  Elec       q    Type
REMARK                         _______ _______ _______ _____ _____    ______ ____
ROOT
ATOM      1  C   UNL     1       3.194   4.212  19.804  0.00  0.00    +0.000 A 
ATOM      2  C   UNL     1       3.121   3.105  18.952  0.00  0.00    +0.000 A 
ATOM      3  C   UNL     1       4.050   2.919  17.933  0.00  0.00    +0.000 A 
ATOM      4  F   UNL     1       3.949   1.838  17.146  0.00  0.00    +0.000 F 
ATOM      5  C   UNL     1       5.084   3.819  17.721  0.00  0.00    +0.000 A 
ATOM      6  C   UNL     1       5.221   4.928  18.555  0.00  0.00    +0.000 A 
ATOM      7  C   UNL     1       4.262   5.107  19.574  0.00  0.00    +0.000 A 
ENDROOT
BRANCH   6   8
ATOM      8  N   UNL     1       6.298   5.846  18.395  0.00  0.00    +0.000 N 
ATOM      9  C   UNL     1       6.432   6.748  17.358  0.00  0.00    +0.000 C 
ATOM     10  O   UNL     1       5.670   6.974  16.426  0.00  0.00    +0.000 OA
ATOM     11  C   UNL     1       7.729   7.516  17.547  0.00  0.00    +0.000 C 
ATOM     12  N   UNL     1       8.233   6.921  18.740  0.00  0.00    +0.000 N 
ATOM     13  C   UNL     1       7.393   5.943  19.229  0.00  0.00    +0.000 C 
ATOM     14  O   UNL     1       7.689   5.294  20.220  0.00  0.00    +0.000 OA
ATOM     15  H   UNL     1       9.128   7.101  19.176  0.00  0.00    +0.000 HD
ENDBRANCH   6   8
BRANCH   1  17
ATOM     16  C   UNL     1       1.657   3.313  21.531  0.00  0.00    +0.000 C 
ATOM     17  N   UNL     1       2.244   4.434  20.802  0.00  0.00    +0.000 N 
ATOM     18  C   UNL     1       1.507   5.695  20.819  0.00  0.00    +0.000 C 
ENDBRANCH   1  17
TORSDOF 2
ENDMDL
MODEL 9
REMARK VINA RESULT:      -6.6      3.602      5.182
REMARK  Name = 
REMARK  4 active torsions:
REMARK  status: ('A' for Active; 'I' for Inactive)
REMARK    1  A    between atoms: C_1  and  N_2
REMARK    2  A    between atoms: N_2  and  C_3
REMARK    3  A    between atoms: N_2  and  C_4
REMARK    4  A    between atoms: C_9  and  N_10
REMARK                            x       y       z     vdW  Elec       q    Type
REMARK                         _______ _______ _______ _____ _____    ______ ____
ROOT
ATOM      1  C   UNL     1       6.169   5.522  17.631  0.00  0.00    +0.000 A 
ATOM      2  C   UNL     1       6.253   5.177  16.278  0.00  0.00    +0.000 A 
ATOM      3  C   UNL     1       5.336   4.305  15.699  0.00  0.00    +0.000 A 
ATOM      4  F   UNL     1       5.448   4.009  14.396  0.00  0.00    +0.000 F 
ATOM      5  C   UNL     1       4.303   3.745  16.436  0.00  0.00    +0.000 A 
ATOM      6  C   UNL     1       4.154   4.071  17.783  0.00  0.00    +0.000 A 
ATOM      7  C   UNL     1       5.101   4.947  18.356  0.00  0.00    +0.000 A 
ENDROOT
BRANCH   6   8
ATOM      8  N   UNL     1       3.078   3.551  18.556  0.00  0.00    +0.000 N 
ATOM      9  C   UNL     1       3.209   2.744  19.668  0.00  0.00    +0.000 C 
ATOM     10  O   UNL     1       4.228   2.359  20.229  0.00  0.00    +0.000 OA
ATOM     11  C   UNL     1       1.823   2.390  20.179  0.00  0.00    +0.000 C 
ATOM     12  N   UNL     1       0.998   3.066  19.233  0.00  0.00    +0.000 N 
ATOM     13  C   UNL     1       1.738   3.740  18.285  0.00  0.00    +0.000 C 
ATOM     14  O   UNL     1       1.196   4.337  17.368  0.00  0.00    +0.000 OA
ATOM     15  H   UNL     1      -0.011   3.026  19.171  0.00  0.00    +0.000 HD
ENDBRANCH   6   8
BRANCH   1  17
ATOM     16  C   UNL     1       7.582   7.558  17.548  0.00  0.00    +0.000 C 
ATOM     17  N   UNL     1       7.106   6.361  18.235  0.00  0.00    +0.000 N 
ATOM     18  C   UNL     1       7.941   5.839  19.314  0.00  0.00    +0.000 C 
ENDBRANCH   1  17
TORSDOF 2
ENDMDL
