MODEL 1
REMARK VINA RESULT:      -6.9      0.000      0.000
REMARK  Name = 
REMARK  12 active torsions:
REMARK  status: ('A' for Active; 'I' for Inactive)
REMARK    1  A    between atoms: C_1  and  C_2
REMARK    2  A    between atoms: C_2  and  C_3
REMARK    3  A    between atoms: C_3  and  O_4
REMARK    4  A    between atoms: O_4  and  C_5
REMARK    5  A    between atoms: C_5  and  C_7
REMARK    6  A    between atoms: C_10  and  N_11
REMARK    7  A    between atoms: C_12  and  C_14
REMARK    8  A    between atoms: C_14  and  C_15
REMARK    9  A    between atoms: C_15  and  C_16
REMARK   10  A    between atoms: C_16  and  O_18
REMARK   11  A    between atoms: O_18  and  C_19
REMARK   12  A    between atoms: C_19  and  C_20
REMARK                            x       y       z     vdW  Elec       q    Type
REMARK                         _______ _______ _______ _____ _____    ______ ____
ROOT
ATOM      1  C   UNL     1       6.207   4.865  15.187  0.00  0.00    +0.000 A 
ATOM      2  C   UNL     1       5.578   6.080  15.468  0.00  0.00    +0.000 A 
ATOM      3  C   UNL     1       4.843   6.247  16.641  0.00  0.00    +0.000 A 
ATOM      4  C   UNL     1       4.709   5.206  17.565  0.00  0.00    +0.000 A 
ATOM      5  C   UNL     1       5.338   3.982  17.283  0.00  0.00    +0.000 A 
ATOM      6  C   UNL     1       6.082   3.813  16.103  0.00  0.00    +0.000 A 
ENDROOT
BRANCH   4   7
ATOM      7  N   UNL     1       3.969   5.324  18.766  0.00  0.00    +0.000 N 
ATOM      8  C   UNL     1       2.671   5.800  18.888  0.00  0.00    +0.000 C 
ATOM      9  O   UNL     1       1.957   6.215  17.980  0.00  0.00    +0.000 OA
ATOM     10  H   UNL     1       4.407   4.955  19.601  0.00  0.00    +0.000 HD
BRANCH   8  11
ATOM     11  C   UNL     1       2.120   5.773  20.304  0.00  0.00    +0.000 C 
BRANCH  11  12
ATOM     12  C   UNL     1       1.258   4.527  20.495  0.00  0.00    +0.000 C 
BRANCH  12  13
ATOM     13  C   UNL     1       2.097   3.408  21.055  0.00  0.00    +0.000 C 
ATOM     14  O   UNL     1       2.224   3.177  22.251  0.00  0.00    +0.000 OA
BRANCH  13  15
ATOM     15  O   UNL     1       2.729   2.750  20.048  0.00  0.00    +0.000 OA
BRANCH  15  16
ATOM     16  C   UNL     1       1.872   1.984  19.191  0.00  0.00    +0.000 C 
ATOM     17  C   UNL     1       2.240   2.303  17.752  0.00  0.00    +0.000 C 
ENDBRANCH  15  16
ENDBRANCH  13  15
ENDBRANCH  12  13
ENDBRANCH  11  12
ENDBRANCH   8  11
ENDBRANCH   4   7
BRANCH   1  18
ATOM     18  C   UNL     1       6.923   4.744  13.887  0.00  0.00    +0.000 C 
ATOM     19  O   UNL     1       7.742   5.558  13.494  0.00  0.00    +0.000 OA
BRANCH  18  20
ATOM     20  O   UNL     1       6.455   3.683  13.184  0.00  0.00    +0.000 OA
BRANCH  20  21
ATOM     21  C   UNL     1       5.104   3.800  12.714  0.00  0.00    +0.000 C 
BRANCH  21  23
ATOM     22  C   UNL     1       3.510   3.274  10.863  0.00  0.00    +0.000 C 
ATOM     23  C   UNL     1       4.861   2.943  11.479  0.00  0.00    +0.000 C 
ENDBRANCH  21  23
ENDBRANCH  20  21
ENDBRANCH  18  20
ENDBRANCH   1  18
TORSDOF 10
ENDMDL
MODEL 2
REMARK VINA RESULT:      -6.8      0.999      1.270
REMARK  Name = 
REMARK  12 active torsions:
REMARK  status: ('A' for Active; 'I' for Inactive)
REMARK    1  A    between atoms: C_1  and  C_2
REMARK    2  A    between atoms: C_2  and  C_3
REMARK    3  A    between atoms: C_3  and  O_4
REMARK    4  A    between atoms: O_4  and  C_5
REMARK    5  A    between atoms: C_5  and  C_7
REMARK    6  A    between atoms: C_10  and  N_11
REMARK    7  A    between atoms: C_12  and  C_14
REMARK    8  A    between atoms: C_14  and  C_15
REMARK    9  A    between atoms: C_15  and  C_16
REMARK   10  A    between atoms: C_16  and  O_18
REMARK   11  A    between atoms: O_18  and  C_19
REMARK   12  A    between atoms: C_19  and  C_20
REMARK                            x       y       z     vdW  Elec       q    Type
REMARK                         _______ _______ _______ _____ _____    ______ ____
ROOT
ATOM      1  C   UNL     1       6.336   5.016  15.506  0.00  0.00    +0.000 A 
ATOM      2  C   UNL     1       5.120   4.335  15.587  0.00  0.00    +0.000 A 
ATOM      3  C   UNL     1       4.323   4.431  16.727  0.00  0.00    +0.000 A 
ATOM      4  C   UNL     1       4.718   5.206  17.822  0.00  0.00    +0.000 A 
ATOM      5  C   UNL     1       5.943   5.889  17.745  0.00  0.00    +0.000 A 
ATOM      6  C   UNL     1       6.746   5.797  16.595  0.00  0.00    +0.000 A 
ENDROOT
BRANCH   4   7
ATOM      7  N   UNL     1       3.949   5.330  19.003  0.00  0.00    +0.000 N 
ATOM      8  C   UNL     1       2.759   6.032  19.140  0.00  0.00    +0.000 C 
ATOM      9  O   UNL     1       2.188   6.676  18.267  0.00  0.00    +0.000 OA
ATOM     10  H   UNL     1       4.263   4.792  19.802  0.00  0.00    +0.000 HD
BRANCH   8  11
ATOM     11  C   UNL     1       2.136   5.954  20.524  0.00  0.00    +0.000 C 
BRANCH  11  12
ATOM     12  C   UNL     1       1.148   4.791  20.576  0.00  0.00    +0.000 C 
BRANCH  12  13
ATOM     13  C   UNL     1       1.854   3.543  21.038  0.00  0.00    +0.000 C 
ATOM     14  O   UNL     1       2.223   3.349  22.190  0.00  0.00    +0.000 OA
BRANCH  13  15
ATOM     15  O   UNL     1       2.069   2.711  19.985  0.00  0.00    +0.000 OA
BRANCH  15  16
ATOM     16  C   UNL     1       3.406   2.205  19.873  0.00  0.00    +0.000 C 
ATOM     17  C   UNL     1       3.528   1.493  18.537  0.00  0.00    +0.000 C 
ENDBRANCH  15  16
ENDBRANCH  13  15
ENDBRANCH  12  13
ENDBRANCH  11  12
ENDBRANCH   8  11
ENDBRANCH   4   7
BRANCH   1  18
ATOM     18  C   UNL     1       7.159   4.816  14.281  0.00  0.00    +0.000 C 
ATOM     19  O   UNL     1       7.970   5.633  13.878  0.00  0.00    +0.000 OA
BRANCH  18  20
ATOM     20  O   UNL     1       6.796   3.673  13.647  0.00  0.00    +0.000 OA
BRANCH  20  21
ATOM     21  C   UNL     1       6.574   3.795  12.234  0.00  0.00    +0.000 C 
BRANCH  21  23
ATOM     22  C   UNL     1       5.926   1.560  11.323  0.00  0.00    +0.000 C 
ATOM     23  C   UNL     1       5.416   2.922  11.770  0.00  0.00    +0.000 C 
ENDBRANCH  21  23
ENDBRANCH  20  21
ENDBRANCH  18  20
ENDBRANCH   1  18
TORSDOF 10
ENDMDL
MODEL 3
REMARK VINA RESULT:      -6.4      1.173      1.632
REMARK  Name = 
REMARK  12 active torsions:
REMARK  status: ('A' for Active; 'I' for Inactive)
REMARK    1  A    between atoms: C_1  and  C_2
REMARK    2  A    between atoms: C_2  and  C_3
REMARK    3  A    between atoms: C_3  and  O_4
REMARK    4  A    between atoms: O_4  and  C_5
REMARK    5  A    between atoms: C_5  and  C_7
REMARK    6  A    between atoms: C_10  and  N_11
REMARK    7  A    between atoms: C_12  and  C_14
REMARK    8  A    between atoms: C_14  and  C_15
REMARK    9  A    between atoms: C_15  and  C_16
REMARK   10  A    between atoms: C_16  and  O_18
REMARK   11  A    between atoms: O_18  and  C_19
REMARK   12  A    between atoms: C_19  and  C_20
REMARK                            x       y       z     vdW  Elec       q    Type
REMARK                         _______ _______ _______ _____ _____    ______ ____
ROOT
ATOM      1  C   UNL     1       5.983   4.987  14.904  0.00  0.00    +0.000 A 
ATOM      2  C   UNL     1       5.522   3.868  15.600  0.00  0.00    +0.000 A 
ATOM      3  C   UNL     1       4.648   4.008  16.678  0.00  0.00    +0.000 A 
ATOM      4  C   UNL     1       4.212   5.270  17.096  0.00  0.00    +0.000 A 
ATOM      5  C   UNL     1       4.678   6.397  16.400  0.00  0.00    +0.000 A 
ATOM      6  C   UNL     1       5.556   6.258  15.311  0.00  0.00    +0.000 A 
ENDROOT
BRANCH   4   7
ATOM      7  N   UNL     1       3.332   5.465  18.186  0.00  0.00    +0.000 N 
ATOM      8  C   UNL     1       3.659   5.383  19.533  0.00  0.00    +0.000 C 
ATOM      9  O   UNL     1       4.760   5.111  20.000  0.00  0.00    +0.000 OA
ATOM     10  H   UNL     1       2.392   5.765  17.956  0.00  0.00    +0.000 HD
BRANCH   8  11
ATOM     11  C   UNL     1       2.510   5.682  20.480  0.00  0.00    +0.000 C 
BRANCH  11  12
ATOM     12  C   UNL     1       2.173   4.431  21.289  0.00  0.00    +0.000 C 
BRANCH  12  13
ATOM     13  C   UNL     1       1.384   3.471  20.437  0.00  0.00    +0.000 C 
ATOM     14  O   UNL     1       0.258   3.696  20.012  0.00  0.00    +0.000 OA
BRANCH  13  15
ATOM     15  O   UNL     1       2.080   2.315  20.270  0.00  0.00    +0.000 OA
BRANCH  15  16
ATOM     16  C   UNL     1       2.197   1.866  18.914  0.00  0.00    +0.000 C 
ATOM     17  C   UNL     1       3.631   1.419  18.689  0.00  0.00    +0.000 C 
ENDBRANCH  15  16
ENDBRANCH  13  15
ENDBRANCH  12  13
ENDBRANCH  11  12
ENDBRANCH   8  11
ENDBRANCH   4   7
BRANCH   1  18
ATOM     18  C   UNL     1       6.961   4.761  13.804  0.00  0.00    +0.000 C 
ATOM     19  O   UNL     1       7.775   5.597  13.450  0.00  0.00    +0.000 OA
BRANCH  18  20
ATOM     20  O   UNL     1       6.736   3.565  13.207  0.00  0.00    +0.000 OA
BRANCH  20  21
ATOM     21  C   UNL     1       6.058   3.623  11.943  0.00  0.00    +0.000 C 
BRANCH  21  23
ATOM     22  C   UNL     1       3.889   3.370  10.728  0.00  0.00    +0.000 C 
ATOM     23  C   UNL     1       4.571   3.329  12.088  0.00  0.00    +0.000 C 
ENDBRANCH  21  23
ENDBRANCH  20  21
ENDBRANCH  18  20
ENDBRANCH   1  18
TORSDOF 10
ENDMDL
MODEL 4
REMARK VINA RESULT:      -6.4      0.696      1.277
REMARK  Name = 
REMARK  12 active torsions:
REMARK  status: ('A' for Active; 'I' for Inactive)
REMARK    1  A    between atoms: C_1  and  C_2
REMARK    2  A    between atoms: C_2  and  C_3
REMARK    3  A    between atoms: C_3  and  O_4
REMARK    4  A    between atoms: O_4  and  C_5
REMARK    5  A    between atoms: C_5  and  C_7
REMARK    6  A    between atoms: C_10  and  N_11
REMARK    7  A    between atoms: C_12  and  C_14
REMARK    8  A    between atoms: C_14  and  C_15
REMARK    9  A    between atoms: C_15  and  C_16
REMARK   10  A    between atoms: C_16  and  O_18
REMARK   11  A    between atoms: O_18  and  C_19
REMARK   12  A    between atoms: C_19  and  C_20
REMARK                            x       y       z     vdW  Elec       q    Type
REMARK                         _______ _______ _______ _____ _____    ______ ____
ROOT
ATOM      1  C   UNL     1       6.150   5.107  15.353  0.00  0.00    +0.000 A 
ATOM      2  C   UNL     1       6.094   4.102  16.322  0.00  0.00    +0.000 A 
ATOM      3  C   UNL     1       5.356   4.280  17.492  0.00  0.00    +0.000 A 
ATOM      4  C   UNL     1       4.657   5.468  17.732  0.00  0.00    +0.000 A 
ATOM      5  C   UNL     1       4.715   6.481  16.761  0.00  0.00    +0.000 A 
ATOM      6  C   UNL     1       5.455   6.303  15.580  0.00  0.00    +0.000 A 
ENDROOT
BRANCH   4   7
ATOM      7  N   UNL     1       3.900   5.699  18.905  0.00  0.00    +0.000 N 
ATOM      8  C   UNL     1       2.641   6.280  18.971  0.00  0.00    +0.000 C 
ATOM      9  O   UNL     1       1.984   6.706  18.027  0.00  0.00    +0.000 OA
ATOM     10  H   UNL     1       4.288   5.336  19.768  0.00  0.00    +0.000 HD
BRANCH   8  11
ATOM     11  C   UNL     1       2.057   6.361  20.371  0.00  0.00    +0.000 C 
BRANCH  11  12
ATOM     12  C   UNL     1       2.314   5.050  21.112  0.00  0.00    +0.000 C 
BRANCH  12  13
ATOM     13  C   UNL     1       1.640   3.915  20.385  0.00  0.00    +0.000 C 
ATOM     14  O   UNL     1       0.428   3.810  20.250  0.00  0.00    +0.000 OA
BRANCH  13  15
ATOM     15  O   UNL     1       2.567   3.013  19.969  0.00  0.00    +0.000 OA
BRANCH  15  16
ATOM     16  C   UNL     1       2.066   1.977  19.113  0.00  0.00    +0.000 C 
ATOM     17  C   UNL     1       2.410   2.344  17.680  0.00  0.00    +0.000 C 
ENDBRANCH  15  16
ENDBRANCH  13  15
ENDBRANCH  12  13
ENDBRANCH  11  12
ENDBRANCH   8  11
ENDBRANCH   4   7
BRANCH   1  18
ATOM     18  C   UNL     1       7.007   4.868  14.159  0.00  0.00    +0.000 C 
ATOM     19  O   UNL     1       7.894   5.627  13.808  0.00  0.00    +0.000 OA
BRANCH  18  20
ATOM     20  O   UNL     1       6.587   3.768  13.486  0.00  0.00    +0.000 OA
BRANCH  20  21
ATOM     21  C   UNL     1       5.294   3.876  12.872  0.00  0.00    +0.000 C 
BRANCH  21  23
ATOM     22  C   UNL     1       3.830   3.186  10.968  0.00  0.00    +0.000 C 
ATOM     23  C   UNL     1       5.171   2.971  11.654  0.00  0.00    +0.000 C 
ENDBRANCH  21  23
ENDBRANCH  20  21
ENDBRANCH  18  20
ENDBRANCH   1  18
TORSDOF 10
ENDMDL
MODEL 5
REMARK VINA RESULT:      -6.4      1.142      1.256
REMARK  Name = 
REMARK  12 active torsions:
REMARK  status: ('A' for Active; 'I' for Inactive)
REMARK    1  A    between atoms: C_1  and  C_2
REMARK    2  A    between atoms: C_2  and  C_3
REMARK    3  A    between atoms: C_3  and  O_4
REMARK    4  A    between atoms: O_4  and  C_5
REMARK    5  A    between atoms: C_5  and  C_7
REMARK    6  A    between atoms: C_10  and  N_11
REMARK    7  A    between atoms: C_12  and  C_14
REMARK    8  A    between atoms: C_14  and  C_15
REMARK    9  A    between atoms: C_15  and  C_16
REMARK   10  A    between atoms: C_16  and  O_18
REMARK   11  A    between atoms: O_18  and  C_19
REMARK   12  A    between atoms: C_19  and  C_20
REMARK                            x       y       z     vdW  Elec       q    Type
REMARK                         _______ _______ _______ _____ _____    ______ ____
ROOT
ATOM      1  C   UNL     1       6.101   4.879  14.995  0.00  0.00    +0.000 A 
ATOM      2  C   UNL     1       5.672   6.168  15.322  0.00  0.00    +0.000 A 
ATOM      3  C   UNL     1       4.751   6.374  16.349  0.00  0.00    +0.000 A 
ATOM      4  C   UNL     1       4.228   5.300  17.076  0.00  0.00    +0.000 A 
ATOM      5  C   UNL     1       4.655   4.003  16.747  0.00  0.00    +0.000 A 
ATOM      6  C   UNL     1       5.585   3.794  15.715  0.00  0.00    +0.000 A 
ENDROOT
BRANCH   4   7
ATOM      7  N   UNL     1       3.287   5.456  18.122  0.00  0.00    +0.000 N 
ATOM      8  C   UNL     1       3.552   5.395  19.483  0.00  0.00    +0.000 C 
ATOM      9  O   UNL     1       4.640   5.177  20.005  0.00  0.00    +0.000 OA
ATOM     10  H   UNL     1       2.346   5.710  17.845  0.00  0.00    +0.000 HD
BRANCH   8  11
ATOM     11  C   UNL     1       2.345   5.642  20.372  0.00  0.00    +0.000 C 
BRANCH  11  12
ATOM     12  C   UNL     1       2.037   4.383  21.181  0.00  0.00    +0.000 C 
BRANCH  12  13
ATOM     13  C   UNL     1       1.350   3.369  20.303  0.00  0.00    +0.000 C 
ATOM     14  O   UNL     1       0.226   3.513  19.839  0.00  0.00    +0.000 OA
BRANCH  13  15
ATOM     15  O   UNL     1       2.132   2.267  20.163  0.00  0.00    +0.000 OA
BRANCH  15  16
ATOM     16  C   UNL     1       2.354   1.847  18.810  0.00  0.00    +0.000 C 
ATOM     17  C   UNL     1       3.789   1.363  18.698  0.00  0.00    +0.000 C 
ENDBRANCH  15  16
ENDBRANCH  13  15
ENDBRANCH  12  13
ENDBRANCH  11  12
ENDBRANCH   8  11
ENDBRANCH   4   7
BRANCH   1  18
ATOM     18  C   UNL     1       7.039   4.735  13.847  0.00  0.00    +0.000 C 
ATOM     19  O   UNL     1       7.965   5.500  13.639  0.00  0.00    +0.000 OA
BRANCH  18  20
ATOM     20  O   UNL     1       6.645   3.721  13.037  0.00  0.00    +0.000 OA
BRANCH  20  21
ATOM     21  C   UNL     1       5.603   4.044  12.104  0.00  0.00    +0.000 C 
BRANCH  21  23
ATOM     22  C   UNL     1       3.631   3.197  10.824  0.00  0.00    +0.000 C 
ATOM     23  C   UNL     1       4.835   2.803  11.668  0.00  0.00    +0.000 C 
ENDBRANCH  21  23
ENDBRANCH  20  21
ENDBRANCH  18  20
ENDBRANCH   1  18
TORSDOF 10
ENDMDL
MODEL 6
REMARK VINA RESULT:      -6.4      1.826      3.382
REMARK  Name = 
REMARK  12 active torsions:
REMARK  status: ('A' for Active; 'I' for Inactive)
REMARK    1  A    between atoms: C_1  and  C_2
REMARK    2  A    between atoms: C_2  and  C_3
REMARK    3  A    between atoms: C_3  and  O_4
REMARK    4  A    between atoms: O_4  and  C_5
REMARK    5  A    between atoms: C_5  and  C_7
REMARK    6  A    between atoms: C_10  and  N_11
REMARK    7  A    between atoms: C_12  and  C_14
REMARK    8  A    between atoms: C_14  and  C_15
REMARK    9  A    between atoms: C_15  and  C_16
REMARK   10  A    between atoms: C_16  and  O_18
REMARK   11  A    between atoms: O_18  and  C_19
REMARK   12  A    between atoms: C_19  and  C_20
REMARK                            x       y       z     vdW  Elec       q    Type
REMARK                         _______ _______ _______ _____ _____    ______ ____
ROOT
ATOM      1  C   UNL     1       5.895   4.830  15.321  0.00  0.00    +0.000 A 
ATOM      2  C   UNL     1       5.481   3.661  15.964  0.00  0.00    +0.000 A 
ATOM      3  C   UNL     1       4.595   3.715  17.040  0.00  0.00    +0.000 A 
ATOM      4  C   UNL     1       4.101   4.937  17.509  0.00  0.00    +0.000 A 
ATOM      5  C   UNL     1       4.520   6.113  16.867  0.00  0.00    +0.000 A 
ATOM      6  C   UNL     1       5.409   6.061  15.780  0.00  0.00    +0.000 A 
ENDROOT
BRANCH   4   7
ATOM      7  N   UNL     1       3.207   5.044  18.601  0.00  0.00    +0.000 N 
ATOM      8  C   UNL     1       1.898   4.586  18.640  0.00  0.00    +0.000 C 
ATOM      9  O   UNL     1       1.292   4.030  17.729  0.00  0.00    +0.000 OA
ATOM     10  H   UNL     1       3.589   5.426  19.458  0.00  0.00    +0.000 HD
BRANCH   8  11
ATOM     11  C   UNL     1       1.191   4.807  19.967  0.00  0.00    +0.000 C 
BRANCH  11  12
ATOM     12  C   UNL     1       1.986   5.801  20.812  0.00  0.00    +0.000 C 
BRANCH  12  13
ATOM     13  C   UNL     1       1.650   7.209  20.392  0.00  0.00    +0.000 C 
ATOM     14  O   UNL     1       2.127   7.764  19.410  0.00  0.00    +0.000 OA
BRANCH  13  15
ATOM     15  O   UNL     1       0.802   7.774  21.291  0.00  0.00    +0.000 OA
BRANCH  15  16
ATOM     16  C   UNL     1       1.323   8.917  21.982  0.00  0.00    +0.000 C 
ATOM     17  C   UNL     1       0.464  10.116  21.621  0.00  0.00    +0.000 C 
ENDBRANCH  15  16
ENDBRANCH  13  15
ENDBRANCH  12  13
ENDBRANCH  11  12
ENDBRANCH   8  11
ENDBRANCH   4   7
BRANCH   1  18
ATOM     18  C   UNL     1       6.888   4.697  14.219  0.00  0.00    +0.000 C 
ATOM     19  O   UNL     1       7.682   5.574  13.923  0.00  0.00    +0.000 OA
BRANCH  18  20
ATOM     20  O   UNL     1       6.700   3.533  13.549  0.00  0.00    +0.000 OA
BRANCH  20  21
ATOM     21  C   UNL     1       6.663   3.642  12.119  0.00  0.00    +0.000 C 
BRANCH  21  23
ATOM     22  C   UNL     1       4.261   3.252  11.551  0.00  0.00    +0.000 C 
ATOM     23  C   UNL     1       5.665   2.668  11.506  0.00  0.00    +0.000 C 
ENDBRANCH  21  23
ENDBRANCH  20  21
ENDBRANCH  18  20
ENDBRANCH   1  18
TORSDOF 10
ENDMDL
MODEL 7
REMARK VINA RESULT:      -6.3      3.743      7.495
REMARK  Name = 
REMARK  12 active torsions:
REMARK  status: ('A' for Active; 'I' for Inactive)
REMARK    1  A    between atoms: C_1  and  C_2
REMARK    2  A    between atoms: C_2  and  C_3
REMARK    3  A    between atoms: C_3  and  O_4
REMARK    4  A    between atoms: O_4  and  C_5
REMARK    5  A    between atoms: C_5  and  C_7
REMARK    6  A    between atoms: C_10  and  N_11
REMARK    7  A    between atoms: C_12  and  C_14
REMARK    8  A    between atoms: C_14  and  C_15
REMARK    9  A    between atoms: C_15  and  C_16
REMARK   10  A    between atoms: C_16  and  O_18
REMARK   11  A    between atoms: O_18  and  C_19
REMARK   12  A    between atoms: C_19  and  C_20
REMARK                            x       y       z     vdW  Elec       q    Type
REMARK                         _______ _______ _______ _____ _____    ______ ____
ROOT
ATOM      1  C   UNL     1       1.411   9.210  19.227  0.00  0.00    +0.000 A 
ATOM      2  C   UNL     1       1.585   8.138  20.105  0.00  0.00    +0.000 A 
ATOM      3  C   UNL     1       2.369   7.042  19.747  0.00  0.00    +0.000 A 
ATOM      4  C   UNL     1       3.000   6.982  18.500  0.00  0.00    +0.000 A 
ATOM      5  C   UNL     1       2.824   8.057  17.614  0.00  0.00    +0.000 A 
ATOM      6  C   UNL     1       2.037   9.164  17.974  0.00  0.00    +0.000 A 
ENDROOT
BRANCH   4   7
ATOM      7  N   UNL     1       3.800   5.890  18.087  0.00  0.00    +0.000 N 
ATOM      8  C   UNL     1       3.343   4.672  17.604  0.00  0.00    +0.000 C 
ATOM      9  O   UNL     1       2.172   4.332  17.472  0.00  0.00    +0.000 OA
ATOM     10  H   UNL     1       4.801   6.046  18.076  0.00  0.00    +0.000 HD
BRANCH   8  11
ATOM     11  C   UNL     1       4.441   3.702  17.199  0.00  0.00    +0.000 C 
BRANCH  11  12
ATOM     12  C   UNL     1       5.122   4.200  15.926  0.00  0.00    +0.000 C 
BRANCH  12  13
ATOM     13  C   UNL     1       6.553   4.564  16.223  0.00  0.00    +0.000 C 
ATOM     14  O   UNL     1       7.431   4.647  15.373  0.00  0.00    +0.000 OA
BRANCH  13  15
ATOM     15  O   UNL     1       6.727   4.720  17.562  0.00  0.00    +0.000 OA
BRANCH  15  16
ATOM     16  C   UNL     1       7.381   5.934  17.952  0.00  0.00    +0.000 C 
ATOM     17  C   UNL     1       7.897   5.756  19.370  0.00  0.00    +0.000 C 
ENDBRANCH  15  16
ENDBRANCH  13  15
ENDBRANCH  12  13
ENDBRANCH  11  12
ENDBRANCH   8  11
ENDBRANCH   4   7
BRANCH   1  18
ATOM     18  C   UNL     1       0.511  10.316  19.657  0.00  0.00    +0.000 C 
ATOM     19  O   UNL     1       0.917  11.385  20.079  0.00  0.00    +0.000 OA
BRANCH  18  20
ATOM     20  O   UNL     1      -0.785   9.917  19.614  0.00  0.00    +0.000 OA
BRANCH  20  21
ATOM     21  C   UNL     1      -1.619  10.624  18.684  0.00  0.00    +0.000 C 
BRANCH  21  23
ATOM     22  C   UNL     1      -3.041   9.915  16.756  0.00  0.00    +0.000 C 
ATOM     23  C   UNL     1      -1.627   9.957  17.315  0.00  0.00    +0.000 C 
ENDBRANCH  21  23
ENDBRANCH  20  21
ENDBRANCH  18  20
ENDBRANCH   1  18
TORSDOF 10
ENDMDL
MODEL 8
REMARK VINA RESULT:      -6.3      3.854      7.167
REMARK  Name = 
REMARK  12 active torsions:
REMARK  status: ('A' for Active; 'I' for Inactive)
REMARK    1  A    between atoms: C_1  and  C_2
REMARK    2  A    between atoms: C_2  and  C_3
REMARK    3  A    between atoms: C_3  and  O_4
REMARK    4  A    between atoms: O_4  and  C_5
REMARK    5  A    between atoms: C_5  and  C_7
REMARK    6  A    between atoms: C_10  and  N_11
REMARK    7  A    between atoms: C_12  and  C_14
REMARK    8  A    between atoms: C_14  and  C_15
REMARK    9  A    between atoms: C_15  and  C_16
REMARK   10  A    between atoms: C_16  and  O_18
REMARK   11  A    between atoms: O_18  and  C_19
REMARK   12  A    between atoms: C_19  and  C_20
REMARK                            x       y       z     vdW  Elec       q    Type
REMARK                         _______ _______ _______ _____ _____    ______ ____
ROOT
ATOM      1  C   UNL     1       0.900   9.562  19.616  0.00  0.00    +0.000 A 
ATOM      2  C   UNL     1       1.366   9.494  18.301  0.00  0.00    +0.000 A 
ATOM      3  C   UNL     1       2.167   8.431  17.883  0.00  0.00    +0.000 A 
ATOM      4  C   UNL     1       2.529   7.408  18.765  0.00  0.00    +0.000 A 
ATOM      5  C   UNL     1       2.064   7.477  20.088  0.00  0.00    +0.000 A 
ATOM      6  C   UNL     1       1.254   8.544  20.511  0.00  0.00    +0.000 A 
ENDROOT
BRANCH   4   7
ATOM      7  N   UNL     1       3.344   6.313  18.391  0.00  0.00    +0.000 N 
ATOM      8  C   UNL     1       2.910   5.116  17.838  0.00  0.00    +0.000 C 
ATOM      9  O   UNL     1       1.749   4.802  17.599  0.00  0.00    +0.000 OA
ATOM     10  H   UNL     1       4.344   6.451  18.468  0.00  0.00    +0.000 HD
BRANCH   8  11
ATOM     11  C   UNL     1       4.023   4.138  17.500  0.00  0.00    +0.000 C 
BRANCH  11  12
ATOM     12  C   UNL     1       4.546   3.494  18.783  0.00  0.00    +0.000 C 
BRANCH  12  13
ATOM     13  C   UNL     1       3.722   2.276  19.113  0.00  0.00    +0.000 C 
ATOM     14  O   UNL     1       3.616   1.300  18.382  0.00  0.00    +0.000 OA
BRANCH  13  15
ATOM     15  O   UNL     1       3.080   2.455  20.297  0.00  0.00    +0.000 OA
BRANCH  15  16
ATOM     16  C   UNL     1       1.648   2.470  20.216  0.00  0.00    +0.000 C 
ATOM     17  C   UNL     1       1.156   3.762  20.844  0.00  0.00    +0.000 C 
ENDBRANCH  15  16
ENDBRANCH  13  15
ENDBRANCH  12  13
ENDBRANCH  11  12
ENDBRANCH   8  11
ENDBRANCH   4   7
BRANCH   1  18
ATOM     18  C   UNL     1       0.101  10.758  20.003  0.00  0.00    +0.000 C 
ATOM     19  O   UNL     1       0.564  11.701  20.622  0.00  0.00    +0.000 OA
BRANCH  18  20
ATOM     20  O   UNL     1      -1.202  10.586  19.670  0.00  0.00    +0.000 OA
BRANCH  20  21
ATOM     21  C   UNL     1      -1.693  11.448  18.632  0.00  0.00    +0.000 C 
BRANCH  21  23
ATOM     22  C   UNL     1      -3.302   9.832  17.610  0.00  0.00    +0.000 C 
ATOM     23  C   UNL     1      -2.052  10.667  17.375  0.00  0.00    +0.000 C 
ENDBRANCH  21  23
ENDBRANCH  20  21
ENDBRANCH  18  20
ENDBRANCH   1  18
TORSDOF 10
ENDMDL
MODEL 9
REMARK VINA RESULT:      -6.2      2.876      4.226
REMARK  Name = 
REMARK  12 active torsions:
REMARK  status: ('A' for Active; 'I' for Inactive)
REMARK    1  A    between atoms: C_1  and  C_2
REMARK    2  A    between atoms: C_2  and  C_3
REMARK    3  A    between atoms: C_3  and  O_4
REMARK    4  A    between atoms: O_4  and  C_5
REMARK    5  A    between atoms: C_5  and  C_7
REMARK    6  A    between atoms: C_10  and  N_11
REMARK    7  A    between atoms: C_12  and  C_14
REMARK    8  A    between atoms: C_14  and  C_15
REMARK    9  A    between atoms: C_15  and  C_16
REMARK   10  A    between atoms: C_16  and  O_18
REMARK   11  A    between atoms: O_18  and  C_19
REMARK   12  A    between atoms: C_19  and  C_20
REMARK                            x       y       z     vdW  Elec       q    Type
REMARK                         _______ _______ _______ _____ _____    ______ ____
ROOT
ATOM      1  C   UNL     1       5.500   5.243  15.936  0.00  0.00    +0.000 A 
ATOM      2  C   UNL     1       4.693   4.300  16.576  0.00  0.00    +0.000 A 
ATOM      3  C   UNL     1       3.739   4.696  17.513  0.00  0.00    +0.000 A 
ATOM      4  C   UNL     1       3.566   6.044  17.843  0.00  0.00    +0.000 A 
ATOM      5  C   UNL     1       4.378   6.994  17.202  0.00  0.00    +0.000 A 
ATOM      6  C   UNL     1       5.338   6.598  16.255  0.00  0.00    +0.000 A 
ENDROOT
BRANCH   4   7
ATOM      7  N   UNL     1       2.617   6.496  18.791  0.00  0.00    +0.000 N 
ATOM      8  C   UNL     1       2.368   5.936  20.036  0.00  0.00    +0.000 C 
ATOM      9  O   UNL     1       2.916   4.948  20.514  0.00  0.00    +0.000 OA
ATOM     10  H   UNL     1       2.128   7.353  18.563  0.00  0.00    +0.000 HD
BRANCH   8  11
ATOM     11  C   UNL     1       1.316   6.663  20.856  0.00  0.00    +0.000 C 
BRANCH  11  12
ATOM     12  C   UNL     1       1.428   8.168  20.616  0.00  0.00    +0.000 C 
BRANCH  12  13
ATOM     13  C   UNL     1       1.101   8.911  21.885  0.00  0.00    +0.000 C 
ATOM     14  O   UNL     1       1.942   9.334  22.670  0.00  0.00    +0.000 OA
BRANCH  13  15
ATOM     15  O   UNL     1      -0.246   8.982  22.051  0.00  0.00    +0.000 OA
BRANCH  15  16
ATOM     16  C   UNL     1      -0.684   9.854  23.100  0.00  0.00    +0.000 C 
ATOM     17  C   UNL     1      -0.910  11.233  22.502  0.00  0.00    +0.000 C 
ENDBRANCH  15  16
ENDBRANCH  13  15
ENDBRANCH  12  13
ENDBRANCH  11  12
ENDBRANCH   8  11
ENDBRANCH   4   7
BRANCH   1  18
ATOM     18  C   UNL     1       6.536   4.738  14.993  0.00  0.00    +0.000 C 
ATOM     19  O   UNL     1       7.573   5.335  14.756  0.00  0.00    +0.000 OA
BRANCH  18  20
ATOM     20  O   UNL     1       6.108   3.608  14.378  0.00  0.00    +0.000 OA
BRANCH  20  21
ATOM     21  C   UNL     1       5.550   3.791  13.068  0.00  0.00    +0.000 C 
BRANCH  21  23
ATOM     22  C   UNL     1       5.813   1.886  11.473  0.00  0.00    +0.000 C 
ATOM     23  C   UNL     1       6.432   3.176  11.990  0.00  0.00    +0.000 C 
ENDBRANCH  21  23
ENDBRANCH  20  21
ENDBRANCH  18  20
ENDBRANCH   1  18
TORSDOF 10
ENDMDL
