MODEL 1
REMARK VINA RESULT:      -8.5      0.000      0.000
REMARK  Name = 
REMARK  3 active torsions:
REMARK  status: ('A' for Active; 'I' for Inactive)
REMARK    1  A    between atoms: C_1  and  C_2
REMARK    2  A    between atoms: C_10  and  C_11
REMARK    3  A    between atoms: N_21  and  C_22
REMARK                            x       y       z     vdW  Elec       q    Type
REMARK                         _______ _______ _______ _____ _____    ______ ____
ROOT
ATOM      1  C   UNL     1       1.808   9.796  18.367  0.00  0.00    +0.000 C 
ATOM      2  C   UNL     1       2.190   8.378  18.684  0.00  0.00    +0.000 A 
ATOM      3  C   UNL     1       1.735   7.789  19.869  0.00  0.00    +0.000 A 
ATOM      4  C   UNL     1       2.068   6.469  20.188  0.00  0.00    +0.000 A 
ATOM      5  C   UNL     1       2.866   5.705  19.329  0.00  0.00    +0.000 A 
ATOM      6  C   UNL     1       3.325   6.304  18.137  0.00  0.00    +0.000 A 
ATOM      7  C   UNL     1       2.994   7.628  17.811  0.00  0.00    +0.000 A 
ATOM      8  N   UNL     1       4.112   5.505  17.295  0.00  0.00    +0.000 N 
ATOM      9  N   UNL     1       4.653   5.872  16.107  0.00  0.00    +0.000 NA
ATOM     10  C   UNL     1       5.266   4.734  15.719  0.00  0.00    +0.000 A 
ATOM     11  N   UNL     1       5.144   3.699  16.617  0.00  0.00    +0.000 NA
ATOM     12  C   UNL     1       4.422   4.212  17.585  0.00  0.00    +0.000 A 
ATOM     13  C   UNL     1       3.984   3.554  18.783  0.00  0.00    +0.000 A 
ATOM     14  O   UNL     1       4.261   2.384  19.043  0.00  0.00    +0.000 OA
ATOM     15  N   UNL     1       3.207   4.348  19.643  0.00  0.00    +0.000 N 
ATOM     16  C   UNL     1       2.738   3.750  20.885  0.00  0.00    +0.000 C 
ENDROOT
BRANCH  10  17
ATOM     17  C   UNL     1       5.988   4.531  14.462  0.00  0.00    +0.000 A 
ATOM     18  C   UNL     1       7.175   5.212  14.167  0.00  0.00    +0.000 A 
ATOM     19  C   UNL     1       7.823   5.007  12.942  0.00  0.00    +0.000 A 
ATOM     20  C   UNL     1       7.293   4.123  12.001  0.00  0.00    +0.000 A 
ATOM     21  C   UNL     1       6.121   3.430  12.286  0.00  0.00    +0.000 A 
ATOM     22  C   UNL     1       5.477   3.630  13.508  0.00  0.00    +0.000 A 
ENDBRANCH  10  17
TORSDOF 1
ENDMDL
MODEL 2
REMARK VINA RESULT:      -8.4      0.544      1.163
REMARK  Name = 
REMARK  3 active torsions:
REMARK  status: ('A' for Active; 'I' for Inactive)
REMARK    1  A    between atoms: C_1  and  C_2
REMARK    2  A    between atoms: C_10  and  C_11
REMARK    3  A    between atoms: N_21  and  C_22
REMARK                            x       y       z     vdW  Elec       q    Type
REMARK                         _______ _______ _______ _____ _____    ______ ____
ROOT
ATOM      1  C   UNL     1       1.662   9.286  19.033  0.00  0.00    +0.000 C 
ATOM      2  C   UNL     1       2.052   7.848  19.221  0.00  0.00    +0.000 A 
ATOM      3  C   UNL     1       1.612   7.155  20.354  0.00  0.00    +0.000 A 
ATOM      4  C   UNL     1       1.952   5.813  20.552  0.00  0.00    +0.000 A 
ATOM      5  C   UNL     1       2.743   5.131  19.621  0.00  0.00    +0.000 A 
ATOM      6  C   UNL     1       3.188   5.834  18.481  0.00  0.00    +0.000 A 
ATOM      7  C   UNL     1       2.849   7.181  18.276  0.00  0.00    +0.000 A 
ATOM      8  N   UNL     1       3.968   5.115  17.564  0.00  0.00    +0.000 N 
ATOM      9  N   UNL     1       4.495   5.588  16.408  0.00  0.00    +0.000 NA
ATOM     10  C   UNL     1       5.108   4.491  15.915  0.00  0.00    +0.000 A 
ATOM     11  N   UNL     1       4.998   3.380  16.720  0.00  0.00    +0.000 NA
ATOM     12  C   UNL     1       4.285   3.804  17.736  0.00  0.00    +0.000 A 
ATOM     13  C   UNL     1       3.863   3.041  18.876  0.00  0.00    +0.000 A 
ATOM     14  O   UNL     1       4.146   1.854  19.030  0.00  0.00    +0.000 OA
ATOM     15  N   UNL     1       3.092   3.753  19.811  0.00  0.00    +0.000 N 
ATOM     16  C   UNL     1       2.639   3.046  21.000  0.00  0.00    +0.000 C 
ENDROOT
BRANCH  10  17
ATOM     17  C   UNL     1       5.817   4.401  14.638  0.00  0.00    +0.000 A 
ATOM     18  C   UNL     1       5.354   3.603  13.584  0.00  0.00    +0.000 A 
ATOM     19  C   UNL     1       6.075   3.526  12.386  0.00  0.00    +0.000 A 
ATOM     20  C   UNL     1       7.263   4.240  12.227  0.00  0.00    +0.000 A 
ATOM     21  C   UNL     1       7.728   5.047  13.261  0.00  0.00    +0.000 A 
ATOM     22  C   UNL     1       7.008   5.129  14.454  0.00  0.00    +0.000 A 
ENDBRANCH  10  17
TORSDOF 1
ENDMDL
MODEL 3
REMARK VINA RESULT:      -8.0      2.534      7.270
REMARK  Name = 
REMARK  3 active torsions:
REMARK  status: ('A' for Active; 'I' for Inactive)
REMARK    1  A    between atoms: C_1  and  C_2
REMARK    2  A    between atoms: C_10  and  C_11
REMARK    3  A    between atoms: N_21  and  C_22
REMARK                            x       y       z     vdW  Elec       q    Type
REMARK                         _______ _______ _______ _____ _____    ______ ____
ROOT
ATOM      1  C   UNL     1       5.466   6.439  15.294  0.00  0.00    +0.000 C 
ATOM      2  C   UNL     1       4.861   5.742  16.479  0.00  0.00    +0.000 A 
ATOM      3  C   UNL     1       5.151   4.392  16.709  0.00  0.00    +0.000 A 
ATOM      4  C   UNL     1       4.609   3.718  17.807  0.00  0.00    +0.000 A 
ATOM      5  C   UNL     1       3.762   4.379  18.705  0.00  0.00    +0.000 A 
ATOM      6  C   UNL     1       3.471   5.738  18.469  0.00  0.00    +0.000 A 
ATOM      7  C   UNL     1       4.012   6.421  17.368  0.00  0.00    +0.000 A 
ATOM      8  N   UNL     1       2.629   6.370  19.395  0.00  0.00    +0.000 N 
ATOM      9  N   UNL     1       2.222   7.663  19.366  0.00  0.00    +0.000 NA
ATOM     10  C   UNL     1       1.474   7.744  20.486  0.00  0.00    +0.000 A 
ATOM     11  N   UNL     1       1.387   6.562  21.186  0.00  0.00    +0.000 NA
ATOM     12  C   UNL     1       2.115   5.730  20.480  0.00  0.00    +0.000 A 
ATOM     13  C   UNL     1       2.377   4.348  20.768  0.00  0.00    +0.000 A 
ATOM     14  O   UNL     1       1.916   3.770  21.750  0.00  0.00    +0.000 OA
ATOM     15  N   UNL     1       3.207   3.698  19.839  0.00  0.00    +0.000 N 
ATOM     16  C   UNL     1       3.505   2.291  20.059  0.00  0.00    +0.000 C 
ENDROOT
BRANCH  10  17
ATOM     17  C   UNL     1       0.809   8.945  20.994  0.00  0.00    +0.000 A 
ATOM     18  C   UNL     1       0.720  10.121  20.240  0.00  0.00    +0.000 A 
ATOM     19  C   UNL     1       0.096  11.257  20.771  0.00  0.00    +0.000 A 
ATOM     20  C   UNL     1      -0.442  11.231  22.058  0.00  0.00    +0.000 A 
ATOM     21  C   UNL     1      -0.372  10.065  22.814  0.00  0.00    +0.000 A 
ATOM     22  C   UNL     1       0.245   8.931  22.284  0.00  0.00    +0.000 A 
ENDBRANCH  10  17
TORSDOF 1
ENDMDL
MODEL 4
REMARK VINA RESULT:      -8.0      2.533      7.267
REMARK  Name = 
REMARK  3 active torsions:
REMARK  status: ('A' for Active; 'I' for Inactive)
REMARK    1  A    between atoms: C_1  and  C_2
REMARK    2  A    between atoms: C_10  and  C_11
REMARK    3  A    between atoms: N_21  and  C_22
REMARK                            x       y       z     vdW  Elec       q    Type
REMARK                         _______ _______ _______ _____ _____    ______ ____
ROOT
ATOM      1  C   UNL     1       5.451   6.391  15.313  0.00  0.00    +0.000 C 
ATOM      2  C   UNL     1       4.832   5.674  16.478  0.00  0.00    +0.000 A 
ATOM      3  C   UNL     1       5.101   4.315  16.675  0.00  0.00    +0.000 A 
ATOM      4  C   UNL     1       4.544   3.621  17.754  0.00  0.00    +0.000 A 
ATOM      5  C   UNL     1       3.703   4.272  18.664  0.00  0.00    +0.000 A 
ATOM      6  C   UNL     1       3.432   5.641  18.461  0.00  0.00    +0.000 A 
ATOM      7  C   UNL     1       3.988   6.343  17.380  0.00  0.00    +0.000 A 
ATOM      8  N   UNL     1       2.595   6.262  19.400  0.00  0.00    +0.000 N 
ATOM      9  N   UNL     1       2.207   7.561  19.400  0.00  0.00    +0.000 NA
ATOM     10  C   UNL     1       1.455   7.624  20.519  0.00  0.00    +0.000 A 
ATOM     11  N   UNL     1       1.348   6.427  21.189  0.00  0.00    +0.000 NA
ATOM     12  C   UNL     1       2.068   5.602  20.466  0.00  0.00    +0.000 A 
ATOM     13  C   UNL     1       2.308   4.210  20.720  0.00  0.00    +0.000 A 
ATOM     14  O   UNL     1       1.834   3.615  21.686  0.00  0.00    +0.000 OA
ATOM     15  N   UNL     1       3.133   3.571  19.779  0.00  0.00    +0.000 N 
ATOM     16  C   UNL     1       3.410   2.155  19.966  0.00  0.00    +0.000 C 
ENDROOT
BRANCH  10  17
ATOM     17  C   UNL     1       0.805   8.822  21.054  0.00  0.00    +0.000 A 
ATOM     18  C   UNL     1       0.318   8.881  22.365  0.00  0.00    +0.000 A 
ATOM     19  C   UNL     1      -0.320  10.038  22.831  0.00  0.00    +0.000 A 
ATOM     20  C   UNL     1      -0.480  11.143  21.995  0.00  0.00    +0.000 A 
ATOM     21  C   UNL     1       0.010  11.103  20.694  0.00  0.00    +0.000 A 
ATOM     22  C   UNL     1       0.650   9.952  20.229  0.00  0.00    +0.000 A 
ENDBRANCH  10  17
TORSDOF 1
ENDMDL
MODEL 5
REMARK VINA RESULT:      -7.8      2.539      6.753
REMARK  Name = 
REMARK  3 active torsions:
REMARK  status: ('A' for Active; 'I' for Inactive)
REMARK    1  A    between atoms: C_1  and  C_2
REMARK    2  A    between atoms: C_10  and  C_11
REMARK    3  A    between atoms: N_21  and  C_22
REMARK                            x       y       z     vdW  Elec       q    Type
REMARK                         _______ _______ _______ _____ _____    ______ ____
ROOT
ATOM      1  C   UNL     1       1.507   2.859  21.613  0.00  0.00    +0.000 C 
ATOM      2  C   UNL     1       2.310   3.477  20.506  0.00  0.00    +0.000 A 
ATOM      3  C   UNL     1       3.263   2.706  19.830  0.00  0.00    +0.000 A 
ATOM      4  C   UNL     1       4.022   3.251  18.790  0.00  0.00    +0.000 A 
ATOM      5  C   UNL     1       3.846   4.584  18.399  0.00  0.00    +0.000 A 
ATOM      6  C   UNL     1       2.887   5.358  19.085  0.00  0.00    +0.000 A 
ATOM      7  C   UNL     1       2.122   4.817  20.130  0.00  0.00    +0.000 A 
ATOM      8  N   UNL     1       2.730   6.686  18.659  0.00  0.00    +0.000 N 
ATOM      9  N   UNL     1       1.871   7.601  19.170  0.00  0.00    +0.000 NA
ATOM     10  C   UNL     1       2.108   8.672  18.383  0.00  0.00    +0.000 A 
ATOM     11  N   UNL     1       3.080   8.462  17.432  0.00  0.00    +0.000 NA
ATOM     12  C   UNL     1       3.447   7.219  17.632  0.00  0.00    +0.000 A 
ATOM     13  C   UNL     1       4.435   6.478  16.902  0.00  0.00    +0.000 A 
ATOM     14  O   UNL     1       5.080   6.959  15.972  0.00  0.00    +0.000 OA
ATOM     15  N   UNL     1       4.614   5.151  17.329  0.00  0.00    +0.000 N 
ATOM     16  C   UNL     1       5.610   4.342  16.642  0.00  0.00    +0.000 C 
ENDROOT
BRANCH  10  17
ATOM     17  C   UNL     1       1.417   9.960  18.450  0.00  0.00    +0.000 A 
ATOM     18  C   UNL     1       2.111  11.176  18.469  0.00  0.00    +0.000 A 
ATOM     19  C   UNL     1       1.413  12.388  18.558  0.00  0.00    +0.000 A 
ATOM     20  C   UNL     1       0.020  12.398  18.632  0.00  0.00    +0.000 A 
ATOM     21  C   UNL     1      -0.683  11.198  18.603  0.00  0.00    +0.000 A 
ATOM     22  C   UNL     1       0.011   9.990  18.509  0.00  0.00    +0.000 A 
ENDBRANCH  10  17
TORSDOF 1
ENDMDL
MODEL 6
REMARK VINA RESULT:      -7.8      2.542      6.823
REMARK  Name = 
REMARK  3 active torsions:
REMARK  status: ('A' for Active; 'I' for Inactive)
REMARK    1  A    between atoms: C_1  and  C_2
REMARK    2  A    between atoms: C_10  and  C_11
REMARK    3  A    between atoms: N_21  and  C_22
REMARK                            x       y       z     vdW  Elec       q    Type
REMARK                         _______ _______ _______ _____ _____    ______ ____
ROOT
ATOM      1  C   UNL     1       1.659   2.874  21.699  0.00  0.00    +0.000 C 
ATOM      2  C   UNL     1       2.436   3.498  20.575  0.00  0.00    +0.000 A 
ATOM      3  C   UNL     1       3.396   2.741  19.895  0.00  0.00    +0.000 A 
ATOM      4  C   UNL     1       4.131   3.291  18.841  0.00  0.00    +0.000 A 
ATOM      5  C   UNL     1       3.922   4.616  18.440  0.00  0.00    +0.000 A 
ATOM      6  C   UNL     1       2.955   5.377  19.129  0.00  0.00    +0.000 A 
ATOM      7  C   UNL     1       2.215   4.830  20.189  0.00  0.00    +0.000 A 
ATOM      8  N   UNL     1       2.765   6.696  18.692  0.00  0.00    +0.000 N 
ATOM      9  N   UNL     1       1.893   7.599  19.205  0.00  0.00    +0.000 NA
ATOM     10  C   UNL     1       2.098   8.666  18.405  0.00  0.00    +0.000 A 
ATOM     11  N   UNL     1       3.063   8.468  17.444  0.00  0.00    +0.000 NA
ATOM     12  C   UNL     1       3.458   7.234  17.652  0.00  0.00    +0.000 A 
ATOM     13  C   UNL     1       4.453   6.507  16.917  0.00  0.00    +0.000 A 
ATOM     14  O   UNL     1       5.077   6.992  15.975  0.00  0.00    +0.000 OA
ATOM     15  N   UNL     1       4.665   5.188  17.354  0.00  0.00    +0.000 N 
ATOM     16  C   UNL     1       5.670   4.394  16.663  0.00  0.00    +0.000 C 
ENDROOT
BRANCH  10  17
ATOM     17  C   UNL     1       1.380   9.940  18.468  0.00  0.00    +0.000 A 
ATOM     18  C   UNL     1      -0.018  10.006  18.513  0.00  0.00    +0.000 A 
ATOM     19  C   UNL     1      -0.667  11.246  18.549  0.00  0.00    +0.000 A 
ATOM     20  C   UNL     1       0.070  12.431  18.538  0.00  0.00    +0.000 A 
ATOM     21  C   UNL     1       1.460  12.381  18.506  0.00  0.00    +0.000 A 
ATOM     22  C   UNL     1       2.109  11.145  18.475  0.00  0.00    +0.000 A 
ENDBRANCH  10  17
TORSDOF 1
ENDMDL
MODEL 7
REMARK VINA RESULT:      -7.6      3.096      8.152
REMARK  Name = 
REMARK  3 active torsions:
REMARK  status: ('A' for Active; 'I' for Inactive)
REMARK    1  A    between atoms: C_1  and  C_2
REMARK    2  A    between atoms: C_10  and  C_11
REMARK    3  A    between atoms: N_21  and  C_22
REMARK                            x       y       z     vdW  Elec       q    Type
REMARK                         _______ _______ _______ _____ _____    ______ ____
ROOT
ATOM      1  C   UNL     1       1.927   2.177  21.939  0.00  0.00    +0.000 C 
ATOM      2  C   UNL     1       2.333   3.209  20.927  0.00  0.00    +0.000 A 
ATOM      3  C   UNL     1       3.148   2.839  19.851  0.00  0.00    +0.000 A 
ATOM      4  C   UNL     1       3.537   3.776  18.889  0.00  0.00    +0.000 A 
ATOM      5  C   UNL     1       3.119   5.109  18.979  0.00  0.00    +0.000 A 
ATOM      6  C   UNL     1       2.299   5.478  20.067  0.00  0.00    +0.000 A 
ATOM      7  C   UNL     1       1.906   4.542  21.036  0.00  0.00    +0.000 A 
ATOM      8  N   UNL     1       1.890   6.819  20.118  0.00  0.00    +0.000 N 
ATOM      9  N   UNL     1       1.104   7.387  21.065  0.00  0.00    +0.000 NA
ATOM     10  C   UNL     1       1.004   8.656  20.616  0.00  0.00    +0.000 A 
ATOM     11  N   UNL     1       1.703   8.895  19.455  0.00  0.00    +0.000 NA
ATOM     12  C   UNL     1       2.243   7.733  19.174  0.00  0.00    +0.000 A 
ATOM     13  C   UNL     1       3.076   7.413  18.050  0.00  0.00    +0.000 A 
ATOM     14  O   UNL     1       3.392   8.239  17.194  0.00  0.00    +0.000 OA
ATOM     15  N   UNL     1       3.505   6.076  17.994  0.00  0.00    +0.000 N 
ATOM     16  C   UNL     1       4.364   5.682  16.887  0.00  0.00    +0.000 C 
ENDROOT
BRANCH  10  17
ATOM     17  C   UNL     1       0.220   9.728  21.230  0.00  0.00    +0.000 A 
ATOM     18  C   UNL     1      -0.046  10.931  20.565  0.00  0.00    +0.000 A 
ATOM     19  C   UNL     1      -0.780  11.942  21.198  0.00  0.00    +0.000 A 
ATOM     20  C   UNL     1      -1.254  11.765  22.498  0.00  0.00    +0.000 A 
ATOM     21  C   UNL     1      -1.008  10.570  23.167  0.00  0.00    +0.000 A 
ATOM     22  C   UNL     1      -0.280   9.559  22.536  0.00  0.00    +0.000 A 
ENDBRANCH  10  17
TORSDOF 1
ENDMDL
MODEL 8
REMARK VINA RESULT:      -7.6      3.060      8.131
REMARK  Name = 
REMARK  3 active torsions:
REMARK  status: ('A' for Active; 'I' for Inactive)
REMARK    1  A    between atoms: C_1  and  C_2
REMARK    2  A    between atoms: C_10  and  C_11
REMARK    3  A    between atoms: N_21  and  C_22
REMARK                            x       y       z     vdW  Elec       q    Type
REMARK                         _______ _______ _______ _____ _____    ______ ____
ROOT
ATOM      1  C   UNL     1       2.225   2.130  21.814  0.00  0.00    +0.000 C 
ATOM      2  C   UNL     1       2.582   3.192  20.814  0.00  0.00    +0.000 A 
ATOM      3  C   UNL     1       3.404   2.871  19.729  0.00  0.00    +0.000 A 
ATOM      4  C   UNL     1       3.749   3.836  18.778  0.00  0.00    +0.000 A 
ATOM      5  C   UNL     1       3.277   5.150  18.889  0.00  0.00    +0.000 A 
ATOM      6  C   UNL     1       2.450   5.470  19.986  0.00  0.00    +0.000 A 
ATOM      7  C   UNL     1       2.101   4.505  20.944  0.00  0.00    +0.000 A 
ATOM      8  N   UNL     1       1.987   6.792  20.058  0.00  0.00    +0.000 N 
ATOM      9  N   UNL     1       1.185   7.315  21.018  0.00  0.00    +0.000 NA
ATOM     10  C   UNL     1       1.030   8.584  20.587  0.00  0.00    +0.000 A 
ATOM     11  N   UNL     1       1.712   8.868  19.426  0.00  0.00    +0.000 NA
ATOM     12  C   UNL     1       2.297   7.733  19.126  0.00  0.00    +0.000 A 
ATOM     13  C   UNL     1       3.134   7.463  17.992  0.00  0.00    +0.000 A 
ATOM     14  O   UNL     1       3.411   8.312  17.147  0.00  0.00    +0.000 OA
ATOM     15  N   UNL     1       3.618   6.145  17.915  0.00  0.00    +0.000 N 
ATOM     16  C   UNL     1       4.485   5.802  16.797  0.00  0.00    +0.000 C 
ENDROOT
BRANCH  10  17
ATOM     17  C   UNL     1       0.207   9.615  21.222  0.00  0.00    +0.000 A 
ATOM     18  C   UNL     1      -0.170   9.541  22.568  0.00  0.00    +0.000 A 
ATOM     19  C   UNL     1      -0.979  10.536  23.131  0.00  0.00    +0.000 A 
ATOM     20  C   UNL     1      -1.421  11.611  22.359  0.00  0.00    +0.000 A 
ATOM     21  C   UNL     1      -1.044  11.704  21.023  0.00  0.00    +0.000 A 
ATOM     22  C   UNL     1      -0.233  10.715  20.461  0.00  0.00    +0.000 A 
ENDBRANCH  10  17
TORSDOF 1
ENDMDL
MODEL 9
REMARK VINA RESULT:      -7.6      2.570      6.711
REMARK  Name = 
REMARK  3 active torsions:
REMARK  status: ('A' for Active; 'I' for Inactive)
REMARK    1  A    between atoms: C_1  and  C_2
REMARK    2  A    between atoms: C_10  and  C_11
REMARK    3  A    between atoms: N_21  and  C_22
REMARK                            x       y       z     vdW  Elec       q    Type
REMARK                         _______ _______ _______ _____ _____    ______ ____
ROOT
ATOM      1  C   UNL     1       0.673   2.085  18.937  0.00  0.00    +0.000 C 
ATOM      2  C   UNL     1       1.805   2.911  18.398  0.00  0.00    +0.000 A 
ATOM      3  C   UNL     1       2.937   2.274  17.876  0.00  0.00    +0.000 A 
ATOM      4  C   UNL     1       4.005   3.016  17.361  0.00  0.00    +0.000 A 
ATOM      5  C   UNL     1       3.967   4.415  17.356  0.00  0.00    +0.000 A 
ATOM      6  C   UNL     1       2.825   5.053  17.886  0.00  0.00    +0.000 A 
ATOM      7  C   UNL     1       1.750   4.314  18.405  0.00  0.00    +0.000 A 
ATOM      8  N   UNL     1       2.818   6.455  17.854  0.00  0.00    +0.000 N 
ATOM      9  N   UNL     1       1.830   7.267  18.304  0.00  0.00    +0.000 NA
ATOM     10  C   UNL     1       2.317   8.489  18.001  0.00  0.00    +0.000 A 
ATOM     11  N   UNL     1       3.559   8.464  17.409  0.00  0.00    +0.000 NA
ATOM     12  C   UNL     1       3.841   7.185  17.334  0.00  0.00    +0.000 A 
ATOM     13  C   UNL     1       5.025   6.590  16.784  0.00  0.00    +0.000 A 
ATOM     14  O   UNL     1       5.948   7.250  16.310  0.00  0.00    +0.000 OA
ATOM     15  N   UNL     1       5.053   5.185  16.824  0.00  0.00    +0.000 N 
ATOM     16  C   UNL     1       6.230   4.512  16.295  0.00  0.00    +0.000 C 
ENDROOT
BRANCH  10  17
ATOM     17  C   UNL     1       1.638   9.766  18.223  0.00  0.00    +0.000 A 
ATOM     18  C   UNL     1       2.328  10.984  18.232  0.00  0.00    +0.000 A 
ATOM     19  C   UNL     1       1.645  12.183  18.471  0.00  0.00    +0.000 A 
ATOM     20  C   UNL     1       0.269  12.179  18.705  0.00  0.00    +0.000 A 
ATOM     21  C   UNL     1      -0.432  10.978  18.686  0.00  0.00    +0.000 A 
ATOM     22  C   UNL     1       0.247   9.782  18.443  0.00  0.00    +0.000 A 
ENDBRANCH  10  17
TORSDOF 1
ENDMDL
