MODEL 1
REMARK VINA RESULT:      -7.3      0.000      0.000
REMARK  Name = 
REMARK  5 active torsions:
REMARK  status: ('A' for Active; 'I' for Inactive)
REMARK    1  A    between atoms: C_1  and  C_2
REMARK    2  A    between atoms: C_2  and  C_3
REMARK    3  A    between atoms: C_2  and  C_4
REMARK    4  A    between atoms: C_4  and  C_5
REMARK    5  A    between atoms: N_16  and  O_17
REMARK                            x       y       z     vdW  Elec       q    Type
REMARK                         _______ _______ _______ _____ _____    ______ ____
ROOT
ATOM      1  C   UNL     1       3.934   4.537  17.815  0.00  0.00    +0.000 A 
ATOM      2  N   UNL     1       3.640   5.832  17.499  0.00  0.00    +0.000 NA
ATOM      3  C   UNL     1       2.935   6.621  18.317  0.00  0.00    +0.000 A 
ATOM      4  C   UNL     1       2.657   7.923  17.926  0.00  0.00    +0.000 A 
ATOM      5  C   UNL     1       1.938   8.802  18.742  0.00  0.00    +0.000 A 
ATOM      6  C   UNL     1       1.477   8.377  19.984  0.00  0.00    +0.000 A 
ATOM      7  C   UNL     1       1.728   7.071  20.401  0.00  0.00    +0.000 A 
ATOM      8  C   UNL     1       2.456   6.192  19.566  0.00  0.00    +0.000 A 
ATOM      9  C   UNL     1       2.736   4.849  19.930  0.00  0.00    +0.000 A 
ATOM     10  C   UNL     1       2.438   4.045  21.073  0.00  0.00    +0.000 A 
ATOM     11  C   UNL     1       2.960   2.791  20.851  0.00  0.00    +0.000 A 
ATOM     12  N   UNL     1       3.554   2.808  19.626  0.00  0.00    +0.000 N 
ATOM     13  C   UNL     1       3.459   4.047  19.038  0.00  0.00    +0.000 A 
ENDROOT
BRANCH  12  14
ATOM     14  O   UNL     1       4.150   1.698  19.038  0.00  0.00    +0.000 OA
ATOM     15  H   UNL     1       5.085   1.952  19.080  0.00  0.00    +0.000 HD
ENDBRANCH  12  14
BRANCH   1  16
ATOM     16  C   UNL     1       4.733   3.767  16.794  0.00  0.00    +0.000 C 
BRANCH  16  18
ATOM     17  C   UNL     1       7.150   4.584  16.847  0.00  0.00    +0.000 C 
ATOM     18  C   UNL     1       5.818   4.605  16.091  0.00  0.00    +0.000 C 
ATOM     19  C   UNL     1       6.038   4.082  14.667  0.00  0.00    +0.000 C 
ENDBRANCH  16  18
ENDBRANCH   1  16
TORSDOF 3
ENDMDL
MODEL 2
REMARK VINA RESULT:      -7.3      3.395      4.493
REMARK  Name = 
REMARK  5 active torsions:
REMARK  status: ('A' for Active; 'I' for Inactive)
REMARK    1  A    between atoms: C_1  and  C_2
REMARK    2  A    between atoms: C_2  and  C_3
REMARK    3  A    between atoms: C_2  and  C_4
REMARK    4  A    between atoms: C_4  and  C_5
REMARK    5  A    between atoms: N_16  and  O_17
REMARK                            x       y       z     vdW  Elec       q    Type
REMARK                         _______ _______ _______ _____ _____    ______ ____
ROOT
ATOM      1  C   UNL     1       5.339   4.781  16.078  0.00  0.00    +0.000 A 
ATOM      2  N   UNL     1       4.315   3.900  16.277  0.00  0.00    +0.000 NA
ATOM      3  C   UNL     1       4.000   3.440  17.492  0.00  0.00    +0.000 A 
ATOM      4  C   UNL     1       2.958   2.532  17.621  0.00  0.00    +0.000 A 
ATOM      5  C   UNL     1       2.570   2.025  18.865  0.00  0.00    +0.000 A 
ATOM      6  C   UNL     1       3.236   2.427  20.018  0.00  0.00    +0.000 A 
ATOM      7  C   UNL     1       4.296   3.327  19.922  0.00  0.00    +0.000 A 
ATOM      8  C   UNL     1       4.679   3.833  18.658  0.00  0.00    +0.000 A 
ATOM      9  C   UNL     1       5.753   4.745  18.493  0.00  0.00    +0.000 A 
ATOM     10  C   UNL     1       6.672   5.373  19.389  0.00  0.00    +0.000 A 
ATOM     11  C   UNL     1       7.520   6.157  18.640  0.00  0.00    +0.000 A 
ATOM     12  N   UNL     1       7.151   6.023  17.336  0.00  0.00    +0.000 N 
ATOM     13  C   UNL     1       6.068   5.188  17.202  0.00  0.00    +0.000 A 
ENDROOT
BRANCH  12  14
ATOM     14  O   UNL     1       7.815   6.633  16.278  0.00  0.00    +0.000 OA
ATOM     15  H   UNL     1       7.394   6.194  15.523  0.00  0.00    +0.000 HD
ENDBRANCH  12  14
BRANCH   1  16
ATOM     16  C   UNL     1       5.581   5.210  14.653  0.00  0.00    +0.000 C 
BRANCH  16  18
ATOM     17  C   UNL     1       5.708   3.479  12.781  0.00  0.00    +0.000 C 
ATOM     18  C   UNL     1       6.483   4.247  13.857  0.00  0.00    +0.000 C 
ATOM     19  C   UNL     1       7.623   5.029  13.196  0.00  0.00    +0.000 C 
ENDBRANCH  16  18
ENDBRANCH   1  16
TORSDOF 3
ENDMDL
MODEL 3
REMARK VINA RESULT:      -7.2      1.886      5.197
REMARK  Name = 
REMARK  5 active torsions:
REMARK  status: ('A' for Active; 'I' for Inactive)
REMARK    1  A    between atoms: C_1  and  C_2
REMARK    2  A    between atoms: C_2  and  C_3
REMARK    3  A    between atoms: C_2  and  C_4
REMARK    4  A    between atoms: C_4  and  C_5
REMARK    5  A    between atoms: N_16  and  O_17
REMARK                            x       y       z     vdW  Elec       q    Type
REMARK                         _______ _______ _______ _____ _____    ______ ____
ROOT
ATOM      1  C   UNL     1       3.646   4.363  19.146  0.00  0.00    +0.000 A 
ATOM      2  N   UNL     1       4.444   3.705  18.255  0.00  0.00    +0.000 NA
ATOM      3  C   UNL     1       4.895   4.287  17.139  0.00  0.00    +0.000 A 
ATOM      4  C   UNL     1       5.689   3.554  16.268  0.00  0.00    +0.000 A 
ATOM      5  C   UNL     1       6.204   4.110  15.093  0.00  0.00    +0.000 A 
ATOM      6  C   UNL     1       5.923   5.433  14.768  0.00  0.00    +0.000 A 
ATOM      7  C   UNL     1       5.118   6.192  15.615  0.00  0.00    +0.000 A 
ATOM      8  C   UNL     1       4.602   5.619  16.800  0.00  0.00    +0.000 A 
ATOM      9  C   UNL     1       3.771   6.337  17.699  0.00  0.00    +0.000 A 
ATOM     10  C   UNL     1       3.250   7.667  17.724  0.00  0.00    +0.000 A 
ATOM     11  C   UNL     1       2.475   7.792  18.855  0.00  0.00    +0.000 A 
ATOM     12  N   UNL     1       2.507   6.596  19.505  0.00  0.00    +0.000 N 
ATOM     13  C   UNL     1       3.299   5.687  18.846  0.00  0.00    +0.000 A 
ENDROOT
BRANCH  12  14
ATOM     14  O   UNL     1       1.796   6.328  20.668  0.00  0.00    +0.000 OA
ATOM     15  H   UNL     1       1.059   6.952  20.577  0.00  0.00    +0.000 HD
ENDBRANCH  12  14
BRANCH   1  16
ATOM     16  C   UNL     1       3.210   3.578  20.357  0.00  0.00    +0.000 C 
BRANCH  16  18
ATOM     17  C   UNL     1       1.463   2.098  19.229  0.00  0.00    +0.000 C 
ATOM     18  C   UNL     1       1.733   3.142  20.318  0.00  0.00    +0.000 C 
ATOM     19  C   UNL     1       1.324   2.568  21.679  0.00  0.00    +0.000 C 
ENDBRANCH  16  18
ENDBRANCH   1  16
TORSDOF 3
ENDMDL
MODEL 4
REMARK VINA RESULT:      -7.1      2.028      5.201
REMARK  Name = 
REMARK  5 active torsions:
REMARK  status: ('A' for Active; 'I' for Inactive)
REMARK    1  A    between atoms: C_1  and  C_2
REMARK    2  A    between atoms: C_2  and  C_3
REMARK    3  A    between atoms: C_2  and  C_4
REMARK    4  A    between atoms: C_4  and  C_5
REMARK    5  A    between atoms: N_16  and  O_17
REMARK                            x       y       z     vdW  Elec       q    Type
REMARK                         _______ _______ _______ _____ _____    ______ ____
ROOT
ATOM      1  C   UNL     1       3.303   5.003  19.563  0.00  0.00    +0.000 A 
ATOM      2  N   UNL     1       4.115   4.254  18.760  0.00  0.00    +0.000 NA
ATOM      3  C   UNL     1       4.594   4.719  17.601  0.00  0.00    +0.000 A 
ATOM      4  C   UNL     1       5.400   3.898  16.826  0.00  0.00    +0.000 A 
ATOM      5  C   UNL     1       5.944   4.331  15.612  0.00  0.00    +0.000 A 
ATOM      6  C   UNL     1       5.679   5.616  15.150  0.00  0.00    +0.000 A 
ATOM      7  C   UNL     1       4.862   6.461  15.899  0.00  0.00    +0.000 A 
ATOM      8  C   UNL     1       4.318   6.012  17.124  0.00  0.00    +0.000 A 
ATOM      9  C   UNL     1       3.473   6.821  17.928  0.00  0.00    +0.000 A 
ATOM     10  C   UNL     1       2.962   8.150  17.810  0.00  0.00    +0.000 A 
ATOM     11  C   UNL     1       2.164   8.392  18.905  0.00  0.00    +0.000 A 
ATOM     12  N   UNL     1       2.174   7.266  19.672  0.00  0.00    +0.000 N 
ATOM     13  C   UNL     1       2.973   6.292  19.125  0.00  0.00    +0.000 A 
ENDROOT
BRANCH  12  14
ATOM     14  O   UNL     1       1.437   7.120  20.841  0.00  0.00    +0.000 OA
ATOM     15  H   UNL     1       1.171   8.039  21.002  0.00  0.00    +0.000 HD
ENDBRANCH  12  14
BRANCH   1  16
ATOM     16  C   UNL     1       2.837   4.346  20.836  0.00  0.00    +0.000 C 
BRANCH  16  18
ATOM     17  C   UNL     1       1.522   2.448  21.926  0.00  0.00    +0.000 C 
ATOM     18  C   UNL     1       1.991   3.078  20.610  0.00  0.00    +0.000 C 
ATOM     19  C   UNL     1       0.769   3.415  19.749  0.00  0.00    +0.000 C 
ENDBRANCH  16  18
ENDBRANCH   1  16
TORSDOF 3
ENDMDL
MODEL 5
REMARK VINA RESULT:      -7.0      2.299      4.103
REMARK  Name = 
REMARK  5 active torsions:
REMARK  status: ('A' for Active; 'I' for Inactive)
REMARK    1  A    between atoms: C_1  and  C_2
REMARK    2  A    between atoms: C_2  and  C_3
REMARK    3  A    between atoms: C_2  and  C_4
REMARK    4  A    between atoms: C_4  and  C_5
REMARK    5  A    between atoms: N_16  and  O_17
REMARK                            x       y       z     vdW  Elec       q    Type
REMARK                         _______ _______ _______ _____ _____    ______ ____
ROOT
ATOM      1  C   UNL     1       5.001   4.319  16.719  0.00  0.00    +0.000 A 
ATOM      2  N   UNL     1       4.411   3.141  17.074  0.00  0.00    +0.000 NA
ATOM      3  C   UNL     1       3.286   3.098  17.796  0.00  0.00    +0.000 A 
ATOM      4  C   UNL     1       2.748   1.866  18.138  0.00  0.00    +0.000 A 
ATOM      5  C   UNL     1       1.567   1.755  18.877  0.00  0.00    +0.000 A 
ATOM      6  C   UNL     1       0.897   2.900  19.295  0.00  0.00    +0.000 A 
ATOM      7  C   UNL     1       1.418   4.154  18.980  0.00  0.00    +0.000 A 
ATOM      8  C   UNL     1       2.614   4.253  18.232  0.00  0.00    +0.000 A 
ATOM      9  C   UNL     1       3.198   5.499  17.886  0.00  0.00    +0.000 A 
ATOM     10  C   UNL     1       2.848   6.864  18.127  0.00  0.00    +0.000 A 
ATOM     11  C   UNL     1       3.819   7.653  17.556  0.00  0.00    +0.000 A 
ATOM     12  N   UNL     1       4.737   6.823  16.988  0.00  0.00    +0.000 N 
ATOM     13  C   UNL     1       4.388   5.504  17.148  0.00  0.00    +0.000 A 
ENDROOT
BRANCH  12  14
ATOM     14  O   UNL     1       5.894   7.264  16.357  0.00  0.00    +0.000 OA
ATOM     15  H   UNL     1       6.561   6.720  16.803  0.00  0.00    +0.000 HD
ENDBRANCH  12  14
BRANCH   1  16
ATOM     16  C   UNL     1       6.267   4.212  15.908  0.00  0.00    +0.000 C 
BRANCH  16  18
ATOM     17  C   UNL     1       7.465   5.109  13.841  0.00  0.00    +0.000 C 
ATOM     18  C   UNL     1       6.121   4.705  14.456  0.00  0.00    +0.000 C 
ATOM     19  C   UNL     1       5.483   3.609  13.596  0.00  0.00    +0.000 C 
ENDBRANCH  16  18
ENDBRANCH   1  16
TORSDOF 3
ENDMDL
MODEL 6
REMARK VINA RESULT:      -7.0      1.557      4.186
REMARK  Name = 
REMARK  5 active torsions:
REMARK  status: ('A' for Active; 'I' for Inactive)
REMARK    1  A    between atoms: C_1  and  C_2
REMARK    2  A    between atoms: C_2  and  C_3
REMARK    3  A    between atoms: C_2  and  C_4
REMARK    4  A    between atoms: C_4  and  C_5
REMARK    5  A    between atoms: N_16  and  O_17
REMARK                            x       y       z     vdW  Elec       q    Type
REMARK                         _______ _______ _______ _____ _____    ______ ____
ROOT
ATOM      1  C   UNL     1       2.875   5.364  19.681  0.00  0.00    +0.000 A 
ATOM      2  N   UNL     1       2.077   6.376  20.131  0.00  0.00    +0.000 NA
ATOM      3  C   UNL     1       1.990   7.549  19.496  0.00  0.00    +0.000 A 
ATOM      4  C   UNL     1       1.173   8.541  20.019  0.00  0.00    +0.000 A 
ATOM      5  C   UNL     1       1.029   9.784  19.394  0.00  0.00    +0.000 A 
ATOM      6  C   UNL     1       1.717  10.055  18.216  0.00  0.00    +0.000 A 
ATOM      7  C   UNL     1       2.557   9.084  17.673  0.00  0.00    +0.000 A 
ATOM      8  C   UNL     1       2.696   7.832  18.314  0.00  0.00    +0.000 A 
ATOM      9  C   UNL     1       3.540   6.807  17.815  0.00  0.00    +0.000 A 
ATOM     10  C   UNL     1       4.402   6.691  16.681  0.00  0.00    +0.000 A 
ATOM     11  C   UNL     1       4.991   5.448  16.726  0.00  0.00    +0.000 A 
ATOM     12  N   UNL     1       4.521   4.816  17.837  0.00  0.00    +0.000 N 
ATOM     13  C   UNL     1       3.621   5.599  18.519  0.00  0.00    +0.000 A 
ENDROOT
BRANCH  12  14
ATOM     14  O   UNL     1       4.934   3.551  18.240  0.00  0.00    +0.000 OA
ATOM     15  H   UNL     1       5.675   3.780  18.821  0.00  0.00    +0.000 HD
ENDBRANCH  12  14
BRANCH   1  16
ATOM     16  C   UNL     1       2.874   4.100  20.502  0.00  0.00    +0.000 C 
BRANCH  16  18
ATOM     17  C   UNL     1       0.875   2.889  19.477  0.00  0.00    +0.000 C 
ATOM     18  C   UNL     1       1.470   3.514  20.743  0.00  0.00    +0.000 C 
ATOM     19  C   UNL     1       1.531   2.452  21.847  0.00  0.00    +0.000 C 
ENDBRANCH  16  18
ENDBRANCH   1  16
TORSDOF 3
ENDMDL
MODEL 7
REMARK VINA RESULT:      -6.9      2.636      4.590
REMARK  Name = 
REMARK  5 active torsions:
REMARK  status: ('A' for Active; 'I' for Inactive)
REMARK    1  A    between atoms: C_1  and  C_2
REMARK    2  A    between atoms: C_2  and  C_3
REMARK    3  A    between atoms: C_2  and  C_4
REMARK    4  A    between atoms: C_4  and  C_5
REMARK    5  A    between atoms: N_16  and  O_17
REMARK                            x       y       z     vdW  Elec       q    Type
REMARK                         _______ _______ _______ _____ _____    ______ ____
ROOT
ATOM      1  C   UNL     1       5.525   6.291  17.223  0.00  0.00    +0.000 A 
ATOM      2  N   UNL     1       4.442   6.281  18.054  0.00  0.00    +0.000 NA
ATOM      3  C   UNL     1       3.565   5.272  18.067  0.00  0.00    +0.000 A 
ATOM      4  C   UNL     1       2.476   5.334  18.924  0.00  0.00    +0.000 A 
ATOM      5  C   UNL     1       1.532   4.305  18.995  0.00  0.00    +0.000 A 
ATOM      6  C   UNL     1       1.669   3.179  18.190  0.00  0.00    +0.000 A 
ATOM      7  C   UNL     1       2.745   3.092  17.308  0.00  0.00    +0.000 A 
ATOM      8  C   UNL     1       3.692   4.139  17.244  0.00  0.00    +0.000 A 
ATOM      9  C   UNL     1       4.803   4.113  16.363  0.00  0.00    +0.000 A 
ATOM     10  C   UNL     1       5.282   3.179  15.392  0.00  0.00    +0.000 A 
ATOM     11  C   UNL     1       6.416   3.711  14.822  0.00  0.00    +0.000 A 
ATOM     12  N   UNL     1       6.635   4.922  15.405  0.00  0.00    +0.000 N 
ATOM     13  C   UNL     1       5.689   5.198  16.362  0.00  0.00    +0.000 A 
ENDROOT
BRANCH  12  14
ATOM     14  O   UNL     1       7.669   5.778  15.045  0.00  0.00    +0.000 OA
ATOM     15  H   UNL     1       7.836   6.224  15.890  0.00  0.00    +0.000 HD
ENDBRANCH  12  14
BRANCH   1  16
ATOM     16  C   UNL     1       6.425   7.497  17.316  0.00  0.00    +0.000 C 
BRANCH  16  18
ATOM     17  C   UNL     1       8.501   8.435  18.466  0.00  0.00    +0.000 C 
ATOM     18  C   UNL     1       7.822   7.189  17.889  0.00  0.00    +0.000 C 
ATOM     19  C   UNL     1       7.712   6.122  18.984  0.00  0.00    +0.000 C 
ENDBRANCH  16  18
ENDBRANCH   1  16
TORSDOF 3
ENDMDL
MODEL 8
REMARK VINA RESULT:      -6.8      1.802      4.831
REMARK  Name = 
REMARK  5 active torsions:
REMARK  status: ('A' for Active; 'I' for Inactive)
REMARK    1  A    between atoms: C_1  and  C_2
REMARK    2  A    between atoms: C_2  and  C_3
REMARK    3  A    between atoms: C_2  and  C_4
REMARK    4  A    between atoms: C_4  and  C_5
REMARK    5  A    between atoms: N_16  and  O_17
REMARK                            x       y       z     vdW  Elec       q    Type
REMARK                         _______ _______ _______ _____ _____    ______ ____
ROOT
ATOM      1  C   UNL     1       2.376   5.673  19.325  0.00  0.00    +0.000 A 
ATOM      2  N   UNL     1       3.374   6.368  18.705  0.00  0.00    +0.000 NA
ATOM      3  C   UNL     1       4.117   5.831  17.732  0.00  0.00    +0.000 A 
ATOM      4  C   UNL     1       5.126   6.588  17.156  0.00  0.00    +0.000 A 
ATOM      5  C   UNL     1       5.928   6.088  16.124  0.00  0.00    +0.000 A 
ATOM      6  C   UNL     1       5.725   4.796  15.650  0.00  0.00    +0.000 A 
ATOM      7  C   UNL     1       4.728   4.005  16.217  0.00  0.00    +0.000 A 
ATOM      8  C   UNL     1       3.925   4.521  17.259  0.00  0.00    +0.000 A 
ATOM      9  C   UNL     1       2.900   3.763  17.882  0.00  0.00    +0.000 A 
ATOM     10  C   UNL     1       2.397   2.436  17.707  0.00  0.00    +0.000 A 
ATOM     11  C   UNL     1       1.391   2.244  18.626  0.00  0.00    +0.000 A 
ATOM     12  N   UNL     1       1.271   3.395  19.345  0.00  0.00    +0.000 N 
ATOM     13  C   UNL     1       2.157   4.352  18.912  0.00  0.00    +0.000 A 
ENDROOT
BRANCH  12  14
ATOM     14  O   UNL     1       0.384   3.558  20.402  0.00  0.00    +0.000 OA
ATOM     15  H   UNL     1       0.997   3.782  21.119  0.00  0.00    +0.000 HD
ENDBRANCH  12  14
BRANCH   1  16
ATOM     16  C   UNL     1       1.625   6.407  20.407  0.00  0.00    +0.000 C 
BRANCH  16  18
ATOM     17  C   UNL     1       1.403   8.604  19.127  0.00  0.00    +0.000 C 
ATOM     18  C   UNL     1       1.876   7.927  20.417  0.00  0.00    +0.000 C 
ATOM     19  C   UNL     1       1.159   8.564  21.613  0.00  0.00    +0.000 C 
ENDBRANCH  16  18
ENDBRANCH   1  16
TORSDOF 3
ENDMDL
MODEL 9
REMARK VINA RESULT:      -6.8      2.492      3.477
REMARK  Name = 
REMARK  5 active torsions:
REMARK  status: ('A' for Active; 'I' for Inactive)
REMARK    1  A    between atoms: C_1  and  C_2
REMARK    2  A    between atoms: C_2  and  C_3
REMARK    3  A    between atoms: C_2  and  C_4
REMARK    4  A    between atoms: C_4  and  C_5
REMARK    5  A    between atoms: N_16  and  O_17
REMARK                            x       y       z     vdW  Elec       q    Type
REMARK                         _______ _______ _______ _____ _____    ______ ____
ROOT
ATOM      1  C   UNL     1       5.154   3.797  16.540  0.00  0.00    +0.000 A 
ATOM      2  N   UNL     1       3.818   3.597  16.734  0.00  0.00    +0.000 NA
ATOM      3  C   UNL     1       3.194   3.996  17.847  0.00  0.00    +0.000 A 
ATOM      4  C   UNL     1       1.837   3.745  17.988  0.00  0.00    +0.000 A 
ATOM      5  C   UNL     1       1.124   4.151  19.120  0.00  0.00    +0.000 A 
ATOM      6  C   UNL     1       1.775   4.824  20.148  0.00  0.00    +0.000 A 
ATOM      7  C   UNL     1       3.141   5.081  20.044  0.00  0.00    +0.000 A 
ATOM      8  C   UNL     1       3.852   4.665  18.894  0.00  0.00    +0.000 A 
ATOM      9  C   UNL     1       5.243   4.889  18.732  0.00  0.00    +0.000 A 
ATOM     10  C   UNL     1       6.251   5.510  19.533  0.00  0.00    +0.000 A 
ATOM     11  C   UNL     1       7.445   5.411  18.856  0.00  0.00    +0.000 A 
ATOM     12  N   UNL     1       7.198   4.756  17.688  0.00  0.00    +0.000 N 
ATOM     13  C   UNL     1       5.867   4.437  17.562  0.00  0.00    +0.000 A 
ENDROOT
BRANCH  12  14
ATOM     14  O   UNL     1       8.180   4.427  16.762  0.00  0.00    +0.000 OA
ATOM     15  H   UNL     1       8.956   4.847  17.165  0.00  0.00    +0.000 HD
ENDBRANCH  12  14
BRANCH   1  16
ATOM     16  C   UNL     1       5.722   3.290  15.239  0.00  0.00    +0.000 C 
BRANCH  16  18
ATOM     17  C   UNL     1       7.025   4.961  13.818  0.00  0.00    +0.000 C 
ATOM     18  C   UNL     1       5.663   4.315  14.091  0.00  0.00    +0.000 C 
ATOM     19  C   UNL     1       5.162   3.636  12.811  0.00  0.00    +0.000 C 
ENDBRANCH  16  18
ENDBRANCH   1  16
TORSDOF 3
ENDMDL
