MODEL 1
REMARK VINA RESULT:      -8.2      0.000      0.000
REMARK  Name = 
REMARK  8 active torsions:
REMARK  status: ('A' for Active; 'I' for Inactive)
REMARK    1  A    between atoms: O_1  and  C_2
REMARK    2  A    between atoms: C_2  and  C_3
REMARK    3  A    between atoms: C_2  and  C_12
REMARK    4  A    between atoms: C_2  and  C_18
REMARK    5  A    between atoms: C_4  and  C_5
REMARK    6  A    between atoms: C_12  and  N_13
REMARK    7  A    between atoms: C_21  and  O_22
REMARK    8  A    between atoms: O_22  and  C_23
REMARK                            x       y       z     vdW  Elec       q    Type
REMARK                         _______ _______ _______ _____ _____    ______ ____
ROOT
ATOM      1  C   UNL     1       2.987   5.982  18.923  0.00  0.00    +0.000 C 
ENDROOT
BRANCH   1   2
ATOM      2  C   UNL     1       2.369   7.390  18.895  0.00  0.00    +0.000 A 
ATOM      3  C   UNL     1       2.511   8.199  17.741  0.00  0.00    +0.000 A 
ATOM      4  C   UNL     1       1.984   9.496  17.670  0.00  0.00    +0.000 A 
ATOM      5  C   UNL     1       1.296  10.023  18.755  0.00  0.00    +0.000 A 
ATOM      6  C   UNL     1       1.056   9.212  19.864  0.00  0.00    +0.000 A 
ATOM      7  C   UNL     1       1.615   7.932  19.954  0.00  0.00    +0.000 A 
ATOM      8 CL   UNL     1       1.342   7.115  21.456  0.00  0.00    +0.000 Cl
BRANCH   5   9
ATOM      9  O   UNL     1       0.873  11.333  18.666  0.00  0.00    +0.000 OA
BRANCH   9  10
ATOM     10  C   UNL     1      -0.431  11.620  19.015  0.00  0.00    +0.000 A 
ATOM     11  C   UNL     1      -1.534  11.237  18.241  0.00  0.00    +0.000 A 
ATOM     12  C   UNL     1      -2.815  11.676  18.578  0.00  0.00    +0.000 A 
ATOM     13  C   UNL     1      -3.004  12.423  19.735  0.00  0.00    +0.000 A 
ATOM     14 CL   UNL     1      -4.580  12.978  20.138  0.00  0.00    +0.000 Cl
ATOM     15  C   UNL     1      -1.923  12.725  20.565  0.00  0.00    +0.000 A 
ATOM     16  C   UNL     1      -0.632  12.326  20.203  0.00  0.00    +0.000 A 
ENDBRANCH   9  10
ENDBRANCH   5   9
ENDBRANCH   1   2
BRANCH   1  17
ATOM     17  O   UNL     1       4.067   5.966  19.877  0.00  0.00    +0.000 OA
ATOM     18  H   UNL     1       4.041   5.115  20.348  0.00  0.00    +0.000 HD
ENDBRANCH   1  17
BRANCH   1  19
ATOM     19  C   UNL     1       3.635   5.670  17.573  0.00  0.00    +0.000 C 
ATOM     20  C   UNL     1       4.909   5.274  17.406  0.00  0.00    +0.000 C 
BRANCH  20  21
ATOM     21  C   UNL     1       5.545   5.012  16.109  0.00  0.00    +0.000 A 
ATOM     22  C   UNL     1       6.872   5.364  15.822  0.00  0.00    +0.000 A 
ATOM     23  C   UNL     1       7.426   5.079  14.569  0.00  0.00    +0.000 A 
ATOM     24  C   UNL     1       6.661   4.431  13.603  0.00  0.00    +0.000 A 
ATOM     25 CL   UNL     1       7.327   4.112  12.049  0.00  0.00    +0.000 Cl
ATOM     26  C   UNL     1       5.356   4.039  13.887  0.00  0.00    +0.000 A 
ATOM     27  C   UNL     1       4.804   4.323  15.138  0.00  0.00    +0.000 A 
ENDBRANCH  20  21
ENDBRANCH   1  19
BRANCH   1  28
ATOM     28  C   UNL     1       1.988   4.855  19.310  0.00  0.00    +0.000 C 
BRANCH  28  29
ATOM     29  N   UNL     1       2.493   3.892  20.272  0.00  0.00    +0.000 N 
ATOM     30  C   UNL     1       1.952   3.559  21.471  0.00  0.00    +0.000 A 
ATOM     31  N   UNL     1       2.601   2.536  21.978  0.00  0.00    +0.000 NA
ATOM     32  C   UNL     1       3.527   2.255  21.013  0.00  0.00    +0.000 A 
ATOM     33  N   UNL     1       3.484   3.042  19.937  0.00  0.00    +0.000 NA
ENDBRANCH  28  29
ENDBRANCH   1  28
TORSDOF 8
ENDMDL
MODEL 2
REMARK VINA RESULT:      -8.1      0.896      1.419
REMARK  Name = 
REMARK  8 active torsions:
REMARK  status: ('A' for Active; 'I' for Inactive)
REMARK    1  A    between atoms: O_1  and  C_2
REMARK    2  A    between atoms: C_2  and  C_3
REMARK    3  A    between atoms: C_2  and  C_12
REMARK    4  A    between atoms: C_2  and  C_18
REMARK    5  A    between atoms: C_4  and  C_5
REMARK    6  A    between atoms: C_12  and  N_13
REMARK    7  A    between atoms: C_21  and  O_22
REMARK    8  A    between atoms: O_22  and  C_23
REMARK                            x       y       z     vdW  Elec       q    Type
REMARK                         _______ _______ _______ _____ _____    ______ ____
ROOT
ATOM      1  C   UNL     1       3.121   5.831  18.841  0.00  0.00    +0.000 C 
ENDROOT
BRANCH   1   2
ATOM      2  C   UNL     1       2.459   7.220  18.853  0.00  0.00    +0.000 A 
ATOM      3  C   UNL     1       2.585   8.070  17.728  0.00  0.00    +0.000 A 
ATOM      4  C   UNL     1       2.019   9.352  17.695  0.00  0.00    +0.000 A 
ATOM      5  C   UNL     1       1.306   9.822  18.790  0.00  0.00    +0.000 A 
ATOM      6  C   UNL     1       1.083   8.968  19.870  0.00  0.00    +0.000 A 
ATOM      7  C   UNL     1       1.681   7.703  19.923  0.00  0.00    +0.000 A 
ATOM      8 CL   UNL     1       1.422   6.828  21.395  0.00  0.00    +0.000 Cl
BRANCH   5   9
ATOM      9  O   UNL     1       0.844  11.120  18.741  0.00  0.00    +0.000 OA
BRANCH   9  10
ATOM     10  C   UNL     1      -0.520  11.323  18.680  0.00  0.00    +0.000 A 
ATOM     11  C   UNL     1      -1.204  12.197  19.533  0.00  0.00    +0.000 A 
ATOM     12  C   UNL     1      -2.598  12.254  19.511  0.00  0.00    +0.000 A 
ATOM     13  C   UNL     1      -3.302  11.502  18.577  0.00  0.00    +0.000 A 
ATOM     14 CL   UNL     1      -5.020  11.558  18.563  0.00  0.00    +0.000 Cl
ATOM     15  C   UNL     1      -2.622  10.702  17.657  0.00  0.00    +0.000 A 
ATOM     16  C   UNL     1      -1.227  10.609  17.710  0.00  0.00    +0.000 A 
ENDBRANCH   9  10
ENDBRANCH   5   9
ENDBRANCH   1   2
BRANCH   1  17
ATOM     17  O   UNL     1       4.222   5.831  19.770  0.00  0.00    +0.000 OA
ATOM     18  H   UNL     1       3.936   5.369  20.577  0.00  0.00    +0.000 HD
ENDBRANCH   1  17
BRANCH   1  19
ATOM     19  C   UNL     1       3.745   5.564  17.470  0.00  0.00    +0.000 C 
ATOM     20  C   UNL     1       5.016   5.171  17.270  0.00  0.00    +0.000 C 
BRANCH  20  21
ATOM     21  C   UNL     1       5.630   4.952  15.955  0.00  0.00    +0.000 A 
ATOM     22  C   UNL     1       6.931   5.372  15.638  0.00  0.00    +0.000 A 
ATOM     23  C   UNL     1       7.466   5.125  14.368  0.00  0.00    +0.000 A 
ATOM     24  C   UNL     1       6.709   4.449  13.415  0.00  0.00    +0.000 A 
ATOM     25 CL   UNL     1       7.349   4.177  11.843  0.00  0.00    +0.000 Cl
ATOM     26  C   UNL     1       5.432   3.990  13.729  0.00  0.00    +0.000 A 
ATOM     27  C   UNL     1       4.899   4.236  14.996  0.00  0.00    +0.000 A 
ENDBRANCH  20  21
ENDBRANCH   1  19
BRANCH   1  28
ATOM     28  C   UNL     1       2.165   4.667  19.229  0.00  0.00    +0.000 C 
BRANCH  28  29
ATOM     29  N   UNL     1       2.772   3.347  19.218  0.00  0.00    +0.000 N 
ATOM     30  C   UNL     1       2.610   2.370  18.291  0.00  0.00    +0.000 A 
ATOM     31  N   UNL     1       3.446   1.387  18.537  0.00  0.00    +0.000 NA
ATOM     32  C   UNL     1       4.133   1.839  19.628  0.00  0.00    +0.000 A 
ATOM     33  N   UNL     1       3.774   3.046  20.068  0.00  0.00    +0.000 NA
ENDBRANCH  28  29
ENDBRANCH   1  28
TORSDOF 8
ENDMDL
MODEL 3
REMARK VINA RESULT:      -8.1      2.230      2.722
REMARK  Name = 
REMARK  8 active torsions:
REMARK  status: ('A' for Active; 'I' for Inactive)
REMARK    1  A    between atoms: O_1  and  C_2
REMARK    2  A    between atoms: C_2  and  C_3
REMARK    3  A    between atoms: C_2  and  C_12
REMARK    4  A    between atoms: C_2  and  C_18
REMARK    5  A    between atoms: C_4  and  C_5
REMARK    6  A    between atoms: C_12  and  N_13
REMARK    7  A    between atoms: C_21  and  O_22
REMARK    8  A    between atoms: O_22  and  C_23
REMARK                            x       y       z     vdW  Elec       q    Type
REMARK                         _______ _______ _______ _____ _____    ______ ____
ROOT
ATOM      1  C   UNL     1       2.936   6.072  18.971  0.00  0.00    +0.000 C 
ENDROOT
BRANCH   1   2
ATOM      2  C   UNL     1       2.312   7.478  18.917  0.00  0.00    +0.000 A 
ATOM      3  C   UNL     1       2.470   8.275  17.758  0.00  0.00    +0.000 A 
ATOM      4  C   UNL     1       1.940   9.569  17.664  0.00  0.00    +0.000 A 
ATOM      5  C   UNL     1       1.231  10.104  18.732  0.00  0.00    +0.000 A 
ATOM      6  C   UNL     1       0.976   9.304  19.845  0.00  0.00    +0.000 A 
ATOM      7  C   UNL     1       1.539   8.028  19.958  0.00  0.00    +0.000 A 
ATOM      8 CL   UNL     1       1.243   7.224  21.463  0.00  0.00    +0.000 Cl
BRANCH   5   9
ATOM      9  O   UNL     1       0.805  11.412  18.623  0.00  0.00    +0.000 OA
BRANCH   9  10
ATOM     10  C   UNL     1       1.682  12.414  18.986  0.00  0.00    +0.000 A 
ATOM     11  C   UNL     1       2.475  13.109  18.064  0.00  0.00    +0.000 A 
ATOM     12  C   UNL     1       3.439  14.015  18.509  0.00  0.00    +0.000 A 
ATOM     13  C   UNL     1       3.550  14.288  19.868  0.00  0.00    +0.000 A 
ATOM     14 CL   UNL     1       4.751  15.389  20.416  0.00  0.00    +0.000 Cl
ATOM     15  C   UNL     1       2.696  13.672  20.785  0.00  0.00    +0.000 A 
ATOM     16  C   UNL     1       1.762  12.730  20.343  0.00  0.00    +0.000 A 
ENDBRANCH   9  10
ENDBRANCH   5   9
ENDBRANCH   1   2
BRANCH   1  17
ATOM     17  O   UNL     1       4.012   6.076  19.929  0.00  0.00    +0.000 OA
ATOM     18  H   UNL     1       4.687   5.443  19.626  0.00  0.00    +0.000 HD
ENDBRANCH   1  17
BRANCH   1  19
ATOM     19  C   UNL     1       3.589   5.741  17.628  0.00  0.00    +0.000 C 
ATOM     20  C   UNL     1       4.871   5.369  17.470  0.00  0.00    +0.000 C 
BRANCH  20  21
ATOM     21  C   UNL     1       5.513   5.088  16.179  0.00  0.00    +0.000 A 
ATOM     22  C   UNL     1       6.856   5.390  15.911  0.00  0.00    +0.000 A 
ATOM     23  C   UNL     1       7.414   5.089  14.663  0.00  0.00    +0.000 A 
ATOM     24  C   UNL     1       6.636   4.476  13.684  0.00  0.00    +0.000 A 
ATOM     25 CL   UNL     1       7.308   4.139  12.137  0.00  0.00    +0.000 Cl
ATOM     26  C   UNL     1       5.313   4.134  13.951  0.00  0.00    +0.000 A 
ATOM     27  C   UNL     1       4.757   4.434  15.196  0.00  0.00    +0.000 A 
ENDBRANCH  20  21
ENDBRANCH   1  19
BRANCH   1  28
ATOM     28  C   UNL     1       1.939   4.948  19.372  0.00  0.00    +0.000 C 
BRANCH  28  29
ATOM     29  N   UNL     1       2.466   3.965  20.301  0.00  0.00    +0.000 N 
ATOM     30  C   UNL     1       1.963   3.618  21.512  0.00  0.00    +0.000 A 
ATOM     31  N   UNL     1       2.618   2.581  21.981  0.00  0.00    +0.000 NA
ATOM     32  C   UNL     1       3.508   2.306  20.981  0.00  0.00    +0.000 A 
ATOM     33  N   UNL     1       3.437   3.111  19.919  0.00  0.00    +0.000 NA
ENDBRANCH  28  29
ENDBRANCH   1  28
TORSDOF 8
ENDMDL
MODEL 4
REMARK VINA RESULT:      -8.1      0.436      1.278
REMARK  Name = 
REMARK  8 active torsions:
REMARK  status: ('A' for Active; 'I' for Inactive)
REMARK    1  A    between atoms: O_1  and  C_2
REMARK    2  A    between atoms: C_2  and  C_3
REMARK    3  A    between atoms: C_2  and  C_12
REMARK    4  A    between atoms: C_2  and  C_18
REMARK    5  A    between atoms: C_4  and  C_5
REMARK    6  A    between atoms: C_12  and  N_13
REMARK    7  A    between atoms: C_21  and  O_22
REMARK    8  A    between atoms: O_22  and  C_23
REMARK                            x       y       z     vdW  Elec       q    Type
REMARK                         _______ _______ _______ _____ _____    ______ ____
ROOT
ATOM      1  C   UNL     1       3.018   6.018  18.835  0.00  0.00    +0.000 C 
ENDROOT
BRANCH   1   2
ATOM      2  C   UNL     1       2.376   7.415  18.869  0.00  0.00    +0.000 A 
ATOM      3  C   UNL     1       2.462   8.259  17.734  0.00  0.00    +0.000 A 
ATOM      4  C   UNL     1       1.912   9.548  17.719  0.00  0.00    +0.000 A 
ATOM      5  C   UNL     1       1.254  10.031  18.843  0.00  0.00    +0.000 A 
ATOM      6  C   UNL     1       1.068   9.186  19.936  0.00  0.00    +0.000 A 
ATOM      7  C   UNL     1       1.652   7.914  19.969  0.00  0.00    +0.000 A 
ATOM      8 CL   UNL     1       1.446   7.049  21.455  0.00  0.00    +0.000 Cl
BRANCH   5   9
ATOM      9  O   UNL     1       0.807  11.336  18.807  0.00  0.00    +0.000 OA
BRANCH   9  10
ATOM     10  C   UNL     1      -0.556  11.557  18.842  0.00  0.00    +0.000 A 
ATOM     11  C   UNL     1      -1.161  12.475  19.709  0.00  0.00    +0.000 A 
ATOM     12  C   UNL     1      -2.552  12.552  19.790  0.00  0.00    +0.000 A 
ATOM     13  C   UNL     1      -3.334  11.775  18.944  0.00  0.00    +0.000 A 
ATOM     14 CL   UNL     1      -5.048  11.858  19.058  0.00  0.00    +0.000 Cl
ATOM     15  C   UNL     1      -2.737  10.929  18.007  0.00  0.00    +0.000 A 
ATOM     16  C   UNL     1      -1.344  10.817  17.958  0.00  0.00    +0.000 A 
ENDBRANCH   9  10
ENDBRANCH   5   9
ENDBRANCH   1   2
BRANCH   1  17
ATOM     17  O   UNL     1       4.094   5.976  19.793  0.00  0.00    +0.000 OA
ATOM     18  H   UNL     1       4.852   5.533  19.374  0.00  0.00    +0.000 HD
ENDBRANCH   1  17
BRANCH   1  19
ATOM     19  C   UNL     1       3.677   5.781  17.474  0.00  0.00    +0.000 C 
ATOM     20  C   UNL     1       4.690   4.925  17.251  0.00  0.00    +0.000 C 
BRANCH  20  21
ATOM     21  C   UNL     1       5.350   4.724  15.955  0.00  0.00    +0.000 A 
ATOM     22  C   UNL     1       4.743   4.055  14.882  0.00  0.00    +0.000 A 
ATOM     23  C   UNL     1       5.420   3.903  13.667  0.00  0.00    +0.000 A 
ATOM     24  C   UNL     1       6.701   4.429  13.516  0.00  0.00    +0.000 A 
ATOM     25 CL   UNL     1       7.550   4.211  12.036  0.00  0.00    +0.000 Cl
ATOM     26  C   UNL     1       7.300   5.130  14.558  0.00  0.00    +0.000 A 
ATOM     27  C   UNL     1       6.623   5.282  15.770  0.00  0.00    +0.000 A 
ENDBRANCH  20  21
ENDBRANCH   1  19
BRANCH   1  28
ATOM     28  C   UNL     1       2.037   4.857  19.162  0.00  0.00    +0.000 C 
BRANCH  28  29
ATOM     29  N   UNL     1       2.507   3.923  20.170  0.00  0.00    +0.000 N 
ATOM     30  C   UNL     1       1.937   3.642  21.368  0.00  0.00    +0.000 A 
ATOM     31  N   UNL     1       2.560   2.630  21.925  0.00  0.00    +0.000 NA
ATOM     32  C   UNL     1       3.501   2.300  20.992  0.00  0.00    +0.000 A 
ATOM     33  N   UNL     1       3.493   3.048  19.887  0.00  0.00    +0.000 NA
ENDBRANCH  28  29
ENDBRANCH   1  28
TORSDOF 8
ENDMDL
MODEL 5
REMARK VINA RESULT:      -7.9      2.278      2.905
REMARK  Name = 
REMARK  8 active torsions:
REMARK  status: ('A' for Active; 'I' for Inactive)
REMARK    1  A    between atoms: O_1  and  C_2
REMARK    2  A    between atoms: C_2  and  C_3
REMARK    3  A    between atoms: C_2  and  C_12
REMARK    4  A    between atoms: C_2  and  C_18
REMARK    5  A    between atoms: C_4  and  C_5
REMARK    6  A    between atoms: C_12  and  N_13
REMARK    7  A    between atoms: C_21  and  O_22
REMARK    8  A    between atoms: O_22  and  C_23
REMARK                            x       y       z     vdW  Elec       q    Type
REMARK                         _______ _______ _______ _____ _____    ______ ____
ROOT
ATOM      1  C   UNL     1       2.951   6.047  18.908  0.00  0.00    +0.000 C 
ENDROOT
BRANCH   1   2
ATOM      2  C   UNL     1       2.336   7.457  18.901  0.00  0.00    +0.000 A 
ATOM      3  C   UNL     1       2.469   8.279  17.756  0.00  0.00    +0.000 A 
ATOM      4  C   UNL     1       1.945   9.578  17.704  0.00  0.00    +0.000 A 
ATOM      5  C   UNL     1       1.268  10.094  18.802  0.00  0.00    +0.000 A 
ATOM      6  C   UNL     1       1.037   9.271  19.903  0.00  0.00    +0.000 A 
ATOM      7  C   UNL     1       1.593   7.989  19.974  0.00  0.00    +0.000 A 
ATOM      8 CL   UNL     1       1.331   7.154  21.468  0.00  0.00    +0.000 Cl
BRANCH   5   9
ATOM      9  O   UNL     1       0.848  11.406  18.732  0.00  0.00    +0.000 OA
BRANCH   9  10
ATOM     10  C   UNL     1       1.727  12.392  19.134  0.00  0.00    +0.000 A 
ATOM     11  C   UNL     1       1.879  12.783  20.470  0.00  0.00    +0.000 A 
ATOM     12  C   UNL     1       2.683  13.877  20.795  0.00  0.00    +0.000 A 
ATOM     13  C   UNL     1       3.399  14.524  19.794  0.00  0.00    +0.000 A 
ATOM     14 CL   UNL     1       4.374  15.883  20.192  0.00  0.00    +0.000 Cl
ATOM     15  C   UNL     1       3.329  14.078  18.473  0.00  0.00    +0.000 A 
ATOM     16  C   UNL     1       2.488  13.011  18.141  0.00  0.00    +0.000 A 
ENDBRANCH   9  10
ENDBRANCH   5   9
ENDBRANCH   1   2
BRANCH   1  17
ATOM     17  O   UNL     1       4.039   6.018  19.852  0.00  0.00    +0.000 OA
ATOM     18  H   UNL     1       4.786   5.552  19.436  0.00  0.00    +0.000 HD
ENDBRANCH   1  17
BRANCH   1  19
ATOM     19  C   UNL     1       3.585   5.750  17.548  0.00  0.00    +0.000 C 
ATOM     20  C   UNL     1       4.759   5.119  17.370  0.00  0.00    +0.000 C 
BRANCH  20  21
ATOM     21  C   UNL     1       5.389   4.866  16.069  0.00  0.00    +0.000 A 
ATOM     22  C   UNL     1       4.743   4.189  15.024  0.00  0.00    +0.000 A 
ATOM     23  C   UNL     1       5.394   3.987  13.801  0.00  0.00    +0.000 A 
ATOM     24  C   UNL     1       6.686   4.471  13.613  0.00  0.00    +0.000 A 
ATOM     25 CL   UNL     1       7.501   4.193  12.125  0.00  0.00    +0.000 Cl
ATOM     26  C   UNL     1       7.323   5.181  14.627  0.00  0.00    +0.000 A 
ATOM     27  C   UNL     1       6.674   5.383  15.847  0.00  0.00    +0.000 A 
ENDBRANCH  20  21
ENDBRANCH   1  19
BRANCH   1  28
ATOM     28  C   UNL     1       1.952   4.918  19.290  0.00  0.00    +0.000 C 
BRANCH  28  29
ATOM     29  N   UNL     1       2.456   3.955  20.253  0.00  0.00    +0.000 N 
ATOM     30  C   UNL     1       1.928   3.641  21.463  0.00  0.00    +0.000 A 
ATOM     31  N   UNL     1       2.568   2.612  21.969  0.00  0.00    +0.000 NA
ATOM     32  C   UNL     1       3.474   2.308  20.993  0.00  0.00    +0.000 A 
ATOM     33  N   UNL     1       3.428   3.086  19.910  0.00  0.00    +0.000 NA
ENDBRANCH  28  29
ENDBRANCH   1  28
TORSDOF 8
ENDMDL
MODEL 6
REMARK VINA RESULT:      -7.8      2.354      2.908
REMARK  Name = 
REMARK  8 active torsions:
REMARK  status: ('A' for Active; 'I' for Inactive)
REMARK    1  A    between atoms: O_1  and  C_2
REMARK    2  A    between atoms: C_2  and  C_3
REMARK    3  A    between atoms: C_2  and  C_12
REMARK    4  A    between atoms: C_2  and  C_18
REMARK    5  A    between atoms: C_4  and  C_5
REMARK    6  A    between atoms: C_12  and  N_13
REMARK    7  A    between atoms: C_21  and  O_22
REMARK    8  A    between atoms: O_22  and  C_23
REMARK                            x       y       z     vdW  Elec       q    Type
REMARK                         _______ _______ _______ _____ _____    ______ ____
ROOT
ATOM      1  C   UNL     1       2.945   6.016  18.955  0.00  0.00    +0.000 C 
ENDROOT
BRANCH   1   2
ATOM      2  C   UNL     1       2.330   7.425  18.910  0.00  0.00    +0.000 A 
ATOM      3  C   UNL     1       2.437   8.203  17.732  0.00  0.00    +0.000 A 
ATOM      4  C   UNL     1       1.912   9.500  17.644  0.00  0.00    +0.000 A 
ATOM      5  C   UNL     1       1.260  10.057  18.736  0.00  0.00    +0.000 A 
ATOM      6  C   UNL     1       1.053   9.276  19.873  0.00  0.00    +0.000 A 
ATOM      7  C   UNL     1       1.612   7.997  19.978  0.00  0.00    +0.000 A 
ATOM      8 CL   UNL     1       1.384   7.218  21.508  0.00  0.00    +0.000 Cl
BRANCH   5   9
ATOM      9  O   UNL     1       0.838  11.366  18.628  0.00  0.00    +0.000 OA
BRANCH   9  10
ATOM     10  C   UNL     1       1.697  12.362  19.046  0.00  0.00    +0.000 A 
ATOM     11  C   UNL     1       1.762  12.811  20.371  0.00  0.00    +0.000 A 
ATOM     12  C   UNL     1       2.552  13.912  20.702  0.00  0.00    +0.000 A 
ATOM     13  C   UNL     1       3.342  14.510  19.726  0.00  0.00    +0.000 A 
ATOM     14 CL   UNL     1       4.300  15.879  20.130  0.00  0.00    +0.000 Cl
ATOM     15  C   UNL     1       3.357  14.007  18.423  0.00  0.00    +0.000 A 
ATOM     16  C   UNL     1       2.530  12.932  18.081  0.00  0.00    +0.000 A 
ENDBRANCH   9  10
ENDBRANCH   5   9
ENDBRANCH   1   2
BRANCH   1  17
ATOM     17  O   UNL     1       4.021   6.007  19.913  0.00  0.00    +0.000 OA
ATOM     18  H   UNL     1       4.191   5.083  20.167  0.00  0.00    +0.000 HD
ENDBRANCH   1  17
BRANCH   1  19
ATOM     19  C   UNL     1       3.598   5.690  17.610  0.00  0.00    +0.000 C 
ATOM     20  C   UNL     1       4.888   5.348  17.446  0.00  0.00    +0.000 C 
BRANCH  20  21
ATOM     21  C   UNL     1       5.527   5.073  16.154  0.00  0.00    +0.000 A 
ATOM     22  C   UNL     1       6.851   5.432  15.863  0.00  0.00    +0.000 A 
ATOM     23  C   UNL     1       7.409   5.134  14.614  0.00  0.00    +0.000 A 
ATOM     24  C   UNL     1       6.650   4.465  13.657  0.00  0.00    +0.000 A 
ATOM     25 CL   UNL     1       7.320   4.129  12.109  0.00  0.00    +0.000 Cl
ATOM     26  C   UNL     1       5.348   4.065  13.947  0.00  0.00    +0.000 A 
ATOM     27  C   UNL     1       4.793   4.363  15.193  0.00  0.00    +0.000 A 
ENDBRANCH  20  21
ENDBRANCH   1  19
BRANCH   1  28
ATOM     28  C   UNL     1       1.942   4.895  19.348  0.00  0.00    +0.000 C 
BRANCH  28  29
ATOM     29  N   UNL     1       2.460   3.543  19.238  0.00  0.00    +0.000 N 
ATOM     30  C   UNL     1       2.171   2.621  18.286  0.00  0.00    +0.000 A 
ATOM     31  N   UNL     1       2.957   1.578  18.430  0.00  0.00    +0.000 NA
ATOM     32  C   UNL     1       3.748   1.937  19.485  0.00  0.00    +0.000 A 
ATOM     33  N   UNL     1       3.499   3.142  19.999  0.00  0.00    +0.000 NA
ENDBRANCH  28  29
ENDBRANCH   1  28
TORSDOF 8
ENDMDL
MODEL 7
REMARK VINA RESULT:      -7.8      0.847      1.267
REMARK  Name = 
REMARK  8 active torsions:
REMARK  status: ('A' for Active; 'I' for Inactive)
REMARK    1  A    between atoms: O_1  and  C_2
REMARK    2  A    between atoms: C_2  and  C_3
REMARK    3  A    between atoms: C_2  and  C_12
REMARK    4  A    between atoms: C_2  and  C_18
REMARK    5  A    between atoms: C_4  and  C_5
REMARK    6  A    between atoms: C_12  and  N_13
REMARK    7  A    between atoms: C_21  and  O_22
REMARK    8  A    between atoms: O_22  and  C_23
REMARK                            x       y       z     vdW  Elec       q    Type
REMARK                         _______ _______ _______ _____ _____    ______ ____
ROOT
ATOM      1  C   UNL     1       2.992   6.140  18.806  0.00  0.00    +0.000 C 
ENDROOT
BRANCH   1   2
ATOM      2  C   UNL     1       2.347   7.535  18.878  0.00  0.00    +0.000 A 
ATOM      3  C   UNL     1       2.450   8.416  17.774  0.00  0.00    +0.000 A 
ATOM      4  C   UNL     1       1.898   9.704  17.794  0.00  0.00    +0.000 A 
ATOM      5  C   UNL     1       1.224  10.150  18.923  0.00  0.00    +0.000 A 
ATOM      6  C   UNL     1       1.022   9.268  19.985  0.00  0.00    +0.000 A 
ATOM      7  C   UNL     1       1.607   7.996  19.984  0.00  0.00    +0.000 A 
ATOM      8 CL   UNL     1       1.380   7.082  21.437  0.00  0.00    +0.000 Cl
BRANCH   5   9
ATOM      9  O   UNL     1       0.775  11.455  18.925  0.00  0.00    +0.000 OA
BRANCH   9  10
ATOM     10  C   UNL     1      -0.132  11.829  19.896  0.00  0.00    +0.000 A 
ATOM     11  C   UNL     1       0.231  12.083  21.225  0.00  0.00    +0.000 A 
ATOM     12  C   UNL     1      -0.751  12.324  22.187  0.00  0.00    +0.000 A 
ATOM     13  C   UNL     1      -2.086  12.396  21.804  0.00  0.00    +0.000 A 
ATOM     14 CL   UNL     1      -3.296  12.673  22.993  0.00  0.00    +0.000 Cl
ATOM     15  C   UNL     1      -2.446  12.241  20.464  0.00  0.00    +0.000 A 
ATOM     16  C   UNL     1      -1.466  11.953  19.507  0.00  0.00    +0.000 A 
ENDBRANCH   9  10
ENDBRANCH   5   9
ENDBRANCH   1   2
BRANCH   1  17
ATOM     17  O   UNL     1       3.958   6.018  19.868  0.00  0.00    +0.000 OA
ATOM     18  H   UNL     1       4.167   6.913  20.189  0.00  0.00    +0.000 HD
ENDBRANCH   1  17
BRANCH   1  19
ATOM     19  C   UNL     1       3.793   6.003  17.511  0.00  0.00    +0.000 C 
ATOM     20  C   UNL     1       4.483   4.907  17.147  0.00  0.00    +0.000 C 
BRANCH  20  21
ATOM     21  C   UNL     1       5.285   4.786  15.924  0.00  0.00    +0.000 A 
ATOM     22  C   UNL     1       6.588   5.291  15.809  0.00  0.00    +0.000 A 
ATOM     23  C   UNL     1       7.307   5.136  14.619  0.00  0.00    +0.000 A 
ATOM     24  C   UNL     1       6.731   4.465  13.543  0.00  0.00    +0.000 A 
ATOM     25 CL   UNL     1       7.598   4.304  12.066  0.00  0.00    +0.000 Cl
ATOM     26  C   UNL     1       5.454   3.922  13.656  0.00  0.00    +0.000 A 
ATOM     27  C   UNL     1       4.738   4.077  14.845  0.00  0.00    +0.000 A 
ENDBRANCH  20  21
ENDBRANCH   1  19
BRANCH   1  28
ATOM     28  C   UNL     1       1.982   4.964  18.937  0.00  0.00    +0.000 C 
BRANCH  28  29
ATOM     29  N   UNL     1       2.240   4.056  20.041  0.00  0.00    +0.000 N 
ATOM     30  C   UNL     1       1.392   3.709  21.041  0.00  0.00    +0.000 A 
ATOM     31  N   UNL     1       1.924   2.743  21.754  0.00  0.00    +0.000 NA
ATOM     32  C   UNL     1       3.107   2.508  21.112  0.00  0.00    +0.000 A 
ATOM     33  N   UNL     1       3.335   3.271  20.042  0.00  0.00    +0.000 NA
ENDBRANCH  28  29
ENDBRANCH   1  28
TORSDOF 8
ENDMDL
MODEL 8
REMARK VINA RESULT:      -7.7      3.785      9.958
REMARK  Name = 
REMARK  8 active torsions:
REMARK  status: ('A' for Active; 'I' for Inactive)
REMARK    1  A    between atoms: O_1  and  C_2
REMARK    2  A    between atoms: C_2  and  C_3
REMARK    3  A    between atoms: C_2  and  C_12
REMARK    4  A    between atoms: C_2  and  C_18
REMARK    5  A    between atoms: C_4  and  C_5
REMARK    6  A    between atoms: C_12  and  N_13
REMARK    7  A    between atoms: C_21  and  O_22
REMARK    8  A    between atoms: O_22  and  C_23
REMARK                            x       y       z     vdW  Elec       q    Type
REMARK                         _______ _______ _______ _____ _____    ______ ____
ROOT
ATOM      1  C   UNL     1       0.894  11.076  19.750  0.00  0.00    +0.000 C 
ENDROOT
BRANCH   1   2
ATOM      2  C   UNL     1       1.294   9.592  19.680  0.00  0.00    +0.000 A 
ATOM      3  C   UNL     1       1.858   9.069  18.491  0.00  0.00    +0.000 A 
ATOM      4  C   UNL     1       2.221   7.721  18.367  0.00  0.00    +0.000 A 
ATOM      5  C   UNL     1       2.032   6.853  19.435  0.00  0.00    +0.000 A 
ATOM      6  C   UNL     1       1.572   7.363  20.649  0.00  0.00    +0.000 A 
ATOM      7  C   UNL     1       1.170   8.699  20.762  0.00  0.00    +0.000 A 
ATOM      8 CL   UNL     1       0.489   9.135  22.294  0.00  0.00    +0.000 Cl
BRANCH   5   9
ATOM      9  O   UNL     1       2.325   5.520  19.234  0.00  0.00    +0.000 OA
BRANCH   9  10
ATOM     10  C   UNL     1       3.569   5.197  18.731  0.00  0.00    +0.000 A 
ATOM     11  C   UNL     1       4.756   5.374  19.453  0.00  0.00    +0.000 A 
ATOM     12  C   UNL     1       5.991   5.157  18.839  0.00  0.00    +0.000 A 
ATOM     13  C   UNL     1       6.035   4.681  17.533  0.00  0.00    +0.000 A 
ATOM     14 CL   UNL     1       7.556   4.432  16.772  0.00  0.00    +0.000 Cl
ATOM     15  C   UNL     1       4.854   4.409  16.840  0.00  0.00    +0.000 A 
ATOM     16  C   UNL     1       3.617   4.671  17.439  0.00  0.00    +0.000 A 
ENDBRANCH   9  10
ENDBRANCH   5   9
ENDBRANCH   1   2
BRANCH   1  17
ATOM     17  O   UNL     1       1.230  11.588  21.054  0.00  0.00    +0.000 OA
ATOM     18  H   UNL     1       1.924  12.261  20.943  0.00  0.00    +0.000 HD
ENDBRANCH   1  17
BRANCH   1  19
ATOM     19  C   UNL     1      -0.625  11.211  19.639  0.00  0.00    +0.000 C 
ATOM     20  C   UNL     1      -1.293  11.451  18.497  0.00  0.00    +0.000 C 
BRANCH  20  21
ATOM     21  C   UNL     1      -2.747  11.620  18.392  0.00  0.00    +0.000 A 
ATOM     22  C   UNL     1      -3.527  12.189  19.410  0.00  0.00    +0.000 A 
ATOM     23  C   UNL     1      -4.910  12.332  19.249  0.00  0.00    +0.000 A 
ATOM     24  C   UNL     1      -5.517  11.919  18.065  0.00  0.00    +0.000 A 
ATOM     25 CL   UNL     1      -7.220  12.060  17.878  0.00  0.00    +0.000 Cl
ATOM     26  C   UNL     1      -4.750  11.390  17.031  0.00  0.00    +0.000 A 
ATOM     27  C   UNL     1      -3.370  11.248  17.192  0.00  0.00    +0.000 A 
ENDBRANCH  20  21
ENDBRANCH   1  19
BRANCH   1  28
ATOM     28  C   UNL     1       1.590  11.973  18.687  0.00  0.00    +0.000 C 
BRANCH  28  29
ATOM     29  N   UNL     1       1.962  13.297  19.152  0.00  0.00    +0.000 N 
ATOM     30  C   UNL     1       3.193  13.866  19.129  0.00  0.00    +0.000 A 
ATOM     31  N   UNL     1       3.102  15.128  19.482  0.00  0.00    +0.000 NA
ATOM     32  C   UNL     1       1.761  15.291  19.681  0.00  0.00    +0.000 A 
ATOM     33  N   UNL     1       1.017  14.205  19.467  0.00  0.00    +0.000 NA
ENDBRANCH  28  29
ENDBRANCH   1  28
TORSDOF 8
ENDMDL
MODEL 9
REMARK VINA RESULT:      -7.6      0.934      1.107
REMARK  Name = 
REMARK  8 active torsions:
REMARK  status: ('A' for Active; 'I' for Inactive)
REMARK    1  A    between atoms: O_1  and  C_2
REMARK    2  A    between atoms: C_2  and  C_3
REMARK    3  A    between atoms: C_2  and  C_12
REMARK    4  A    between atoms: C_2  and  C_18
REMARK    5  A    between atoms: C_4  and  C_5
REMARK    6  A    between atoms: C_12  and  N_13
REMARK    7  A    between atoms: C_21  and  O_22
REMARK    8  A    between atoms: O_22  and  C_23
REMARK                            x       y       z     vdW  Elec       q    Type
REMARK                         _______ _______ _______ _____ _____    ______ ____
ROOT
ATOM      1  C   UNL     1       2.994   6.125  18.878  0.00  0.00    +0.000 C 
ENDROOT
BRANCH   1   2
ATOM      2  C   UNL     1       2.351   7.523  18.887  0.00  0.00    +0.000 A 
ATOM      3  C   UNL     1       2.486   8.368  17.758  0.00  0.00    +0.000 A 
ATOM      4  C   UNL     1       1.937   9.657  17.722  0.00  0.00    +0.000 A 
ATOM      5  C   UNL     1       1.233  10.140  18.818  0.00  0.00    +0.000 A 
ATOM      6  C   UNL     1       1.000   9.293  19.901  0.00  0.00    +0.000 A 
ATOM      7  C   UNL     1       1.581   8.020  19.957  0.00  0.00    +0.000 A 
ATOM      8 CL   UNL     1       1.313   7.154  21.431  0.00  0.00    +0.000 Cl
BRANCH   5   9
ATOM      9  O   UNL     1       0.788  11.445  18.765  0.00  0.00    +0.000 OA
BRANCH   9  10
ATOM     10  C   UNL     1      -0.539  11.691  19.055  0.00  0.00    +0.000 A 
ATOM     11  C   UNL     1      -1.593  11.268  18.235  0.00  0.00    +0.000 A 
ATOM     12  C   UNL     1      -2.902  11.666  18.511  0.00  0.00    +0.000 A 
ATOM     13  C   UNL     1      -3.166  12.413  19.653  0.00  0.00    +0.000 A 
ATOM     14 CL   UNL     1      -4.776  12.918  19.983  0.00  0.00    +0.000 Cl
ATOM     15  C   UNL     1      -2.133  12.755  20.529  0.00  0.00    +0.000 A 
ATOM     16  C   UNL     1      -0.816  12.396  20.227  0.00  0.00    +0.000 A 
ENDBRANCH   9  10
ENDBRANCH   5   9
ENDBRANCH   1   2
BRANCH   1  17
ATOM     17  O   UNL     1       4.052   6.093  19.855  0.00  0.00    +0.000 OA
ATOM     18  H   UNL     1       4.872   6.383  19.420  0.00  0.00    +0.000 HD
ENDBRANCH   1  17
BRANCH   1  19
ATOM     19  C   UNL     1       3.676   5.875  17.532  0.00  0.00    +0.000 C 
ATOM     20  C   UNL     1       4.838   5.218  17.371  0.00  0.00    +0.000 C 
BRANCH  20  21
ATOM     21  C   UNL     1       5.516   5.010  16.086  0.00  0.00    +0.000 A 
ATOM     22  C   UNL     1       6.829   5.435  15.835  0.00  0.00    +0.000 A 
ATOM     23  C   UNL     1       7.426   5.199  14.591  0.00  0.00    +0.000 A 
ATOM     24  C   UNL     1       6.717   4.528  13.598  0.00  0.00    +0.000 A 
ATOM     25 CL   UNL     1       7.434   4.269  12.056  0.00  0.00    +0.000 Cl
ATOM     26  C   UNL     1       5.428   4.065  13.846  0.00  0.00    +0.000 A 
ATOM     27  C   UNL     1       4.834   4.300  15.088  0.00  0.00    +0.000 A 
ENDBRANCH  20  21
ENDBRANCH   1  19
BRANCH   1  28
ATOM     28  C   UNL     1       2.006   4.968  19.199  0.00  0.00    +0.000 C 
BRANCH  28  29
ATOM     29  N   UNL     1       2.452   3.649  18.786  0.00  0.00    +0.000 N 
ATOM     30  C   UNL     1       3.181   2.760  19.505  0.00  0.00    +0.000 A 
ATOM     31  N   UNL     1       3.246   1.619  18.858  0.00  0.00    +0.000 NA
ATOM     32  C   UNL     1       2.494   1.859  17.743  0.00  0.00    +0.000 A 
ATOM     33  N   UNL     1       1.965   3.081  17.665  0.00  0.00    +0.000 NA
ENDBRANCH  28  29
ENDBRANCH   1  28
TORSDOF 8
ENDMDL
