MODEL 1
REMARK VINA RESULT:      -9.1      0.000      0.000
REMARK  Name = 
REMARK  5 active torsions:
REMARK  status: ('A' for Active; 'I' for Inactive)
REMARK    1  A    between atoms: S_2  and  C_4
REMARK    2  A    between atoms: S_2  and  N_28
REMARK    3  A    between atoms: C_8  and  S_9
REMARK    4  A    between atoms: S_9  and  N_12
REMARK    5  A    between atoms: C_15  and  N_16
REMARK                            x       y       z     vdW  Elec       q    Type
REMARK                         _______ _______ _______ _____ _____    ______ ____
ROOT
ATOM      1  S   UNL     1       0.500   9.406  21.583  0.00  0.00    +0.000 S 
ATOM      2  O   UNL     1      -0.642   8.539  21.781  0.00  0.00    +0.000 OA
ATOM      3  O   UNL     1       1.589   9.440  22.536  0.00  0.00    +0.000 OA
ENDROOT
BRANCH   1   8
ATOM      4  C   UNL     1       2.485   7.372  18.705  0.00  0.00    +0.000 A 
ATOM      5  C   UNL     1       2.640   8.327  17.687  0.00  0.00    +0.000 A 
ATOM      6  C   UNL     1       2.043   9.588  17.815  0.00  0.00    +0.000 A 
ATOM      7  C   UNL     1       1.348   9.919  18.983  0.00  0.00    +0.000 A 
ATOM      8  C   UNL     1       1.239   8.973  20.012  0.00  0.00    +0.000 A 
ATOM      9  C   UNL     1       1.753   7.682  19.859  0.00  0.00    +0.000 A 
BRANCH   4  11
ATOM     10  O   UNL     1       3.697   5.543  17.274  0.00  0.00    +0.000 OA
ATOM     11  S   UNL     1       3.423   5.819  18.684  0.00  0.00    +0.000 S 
ATOM     12  O   UNL     1       4.462   5.956  19.648  0.00  0.00    +0.000 OA
BRANCH  11  13
ATOM     13  N   UNL     1       2.306   4.635  19.224  0.00  0.00    +0.000 NA
ATOM     14  C   UNL     1       2.011   3.570  18.226  0.00  0.00    +0.000 C 
ATOM     15  C   UNL     1       0.900   2.629  18.690  0.00  0.00    +0.000 C 
ATOM     16  C   UNL     1       1.184   2.080  20.078  0.00  0.00    +0.000 C 
ATOM     17  C   UNL     1       1.364   3.228  21.061  0.00  0.00    +0.000 C 
ATOM     18  C   UNL     1       2.485   4.160  20.617  0.00  0.00    +0.000 C 
ENDBRANCH  11  13
ENDBRANCH   4  11
ENDBRANCH   1   8
BRANCH   1  19
ATOM     19  N   UNL     1      -0.094  11.049  21.324  0.00  0.00    +0.000 NA
ATOM     20  C   UNL     1      -1.017  11.169  20.161  0.00  0.00    +0.000 C 
ATOM     21  C   UNL     1      -1.453  12.637  19.927  0.00  0.00    +0.000 C 
ATOM     22  C   UNL     1      -2.253  13.340  21.102  0.00  0.00    +0.000 C 
ATOM     23  C   UNL     1      -1.294  13.082  22.332  0.00  0.00    +0.000 C 
ATOM     24  C   UNL     1      -0.669  11.666  22.558  0.00  0.00    +0.000 C 
BRANCH  22  25
ATOM     25  N   UNL     1      -3.686  12.945  21.263  0.00  0.00    +0.000 N 
ATOM     26  N   UNL     1      -4.165  12.510  20.077  0.00  0.00    +0.000 NA
ATOM     27  N   UNL     1      -5.464  12.394  20.131  0.00  0.00    +0.000 NA
ATOM     28  C   UNL     1      -5.843  12.529  21.414  0.00  0.00    +0.000 A 
ATOM     29  C   UNL     1      -7.169  12.332  21.884  0.00  0.00    +0.000 A 
ATOM     30  C   UNL     1      -7.459  12.357  23.226  0.00  0.00    +0.000 A 
ATOM     31  C   UNL     1      -6.443  12.672  24.112  0.00  0.00    +0.000 A 
ATOM     32  C   UNL     1      -5.082  12.978  23.653  0.00  0.00    +0.000 A 
ATOM     33  C   UNL     1      -4.752  12.855  22.236  0.00  0.00    +0.000 A 
ENDBRANCH  22  25
ENDBRANCH   1  19
TORSDOF 5
ENDMDL
MODEL 2
REMARK VINA RESULT:      -9.1      2.134      3.061
REMARK  Name = 
REMARK  5 active torsions:
REMARK  status: ('A' for Active; 'I' for Inactive)
REMARK    1  A    between atoms: S_2  and  C_4
REMARK    2  A    between atoms: S_2  and  N_28
REMARK    3  A    between atoms: C_8  and  S_9
REMARK    4  A    between atoms: S_9  and  N_12
REMARK    5  A    between atoms: C_15  and  N_16
REMARK                            x       y       z     vdW  Elec       q    Type
REMARK                         _______ _______ _______ _____ _____    ______ ____
ROOT
ATOM      1  S   UNL     1       0.523   9.445  21.598  0.00  0.00    +0.000 S 
ATOM      2  O   UNL     1      -0.630   8.615  21.873  0.00  0.00    +0.000 OA
ATOM      3  O   UNL     1       1.621   9.536  22.538  0.00  0.00    +0.000 OA
ENDROOT
BRANCH   1   8
ATOM      4  C   UNL     1       2.336   7.104  18.842  0.00  0.00    +0.000 A 
ATOM      5  C   UNL     1       2.612   7.998  17.794  0.00  0.00    +0.000 A 
ATOM      6  C   UNL     1       2.149   9.318  17.863  0.00  0.00    +0.000 A 
ATOM      7  C   UNL     1       1.471   9.765  19.002  0.00  0.00    +0.000 A 
ATOM      8  C   UNL     1       1.243   8.876  20.062  0.00  0.00    +0.000 A 
ATOM      9  C   UNL     1       1.620   7.533  19.968  0.00  0.00    +0.000 A 
BRANCH   4  11
ATOM     10  O   UNL     1       3.175   5.107  20.315  0.00  0.00    +0.000 OA
ATOM     11  S   UNL     1       3.105   5.461  18.899  0.00  0.00    +0.000 S 
ATOM     12  O   UNL     1       2.419   4.655  17.946  0.00  0.00    +0.000 OA
BRANCH  11  13
ATOM     13  N   UNL     1       4.713   5.721  18.361  0.00  0.00    +0.000 NA
ATOM     14  C   UNL     1       5.760   5.269  19.319  0.00  0.00    +0.000 C 
ATOM     15  C   UNL     1       7.167   5.659  18.869  0.00  0.00    +0.000 C 
ATOM     16  C   UNL     1       7.436   5.214  17.442  0.00  0.00    +0.000 C 
ATOM     17  C   UNL     1       6.389   5.806  16.509  0.00  0.00    +0.000 C 
ATOM     18  C   UNL     1       4.983   5.404  16.938  0.00  0.00    +0.000 C 
ENDBRANCH  11  13
ENDBRANCH   4  11
ENDBRANCH   1   8
BRANCH   1  19
ATOM     19  N   UNL     1      -0.046  11.071  21.214  0.00  0.00    +0.000 NA
ATOM     20  C   UNL     1      -0.915  11.124  20.006  0.00  0.00    +0.000 C 
ATOM     21  C   UNL     1      -1.329  12.578  19.664  0.00  0.00    +0.000 C 
ATOM     22  C   UNL     1      -2.176  13.354  20.757  0.00  0.00    +0.000 C 
ATOM     23  C   UNL     1      -1.276  13.166  22.043  0.00  0.00    +0.000 C 
ATOM     24  C   UNL     1      -0.672  11.764  22.381  0.00  0.00    +0.000 C 
BRANCH  22  25
ATOM     25  N   UNL     1      -3.618  12.976  20.877  0.00  0.00    +0.000 N 
ATOM     26  N   UNL     1      -4.010  13.119  22.162  0.00  0.00    +0.000 NA
ATOM     27  N   UNL     1      -5.181  12.567  22.339  0.00  0.00    +0.000 NA
ATOM     28  C   UNL     1      -5.682  12.251  21.132  0.00  0.00    +0.000 A 
ATOM     29  C   UNL     1      -6.994  11.753  20.914  0.00  0.00    +0.000 A 
ATOM     30  C   UNL     1      -7.485  11.578  19.644  0.00  0.00    +0.000 A 
ATOM     31  C   UNL     1      -6.639  11.809  18.573  0.00  0.00    +0.000 A 
ATOM     32  C   UNL     1      -5.244  12.231  18.765  0.00  0.00    +0.000 A 
ATOM     33  C   UNL     1      -4.753  12.512  20.110  0.00  0.00    +0.000 A 
ENDBRANCH  22  25
ENDBRANCH   1  19
TORSDOF 5
ENDMDL
MODEL 3
REMARK VINA RESULT:      -8.9      1.875      2.627
REMARK  Name = 
REMARK  5 active torsions:
REMARK  status: ('A' for Active; 'I' for Inactive)
REMARK    1  A    between atoms: S_2  and  C_4
REMARK    2  A    between atoms: S_2  and  N_28
REMARK    3  A    between atoms: C_8  and  S_9
REMARK    4  A    between atoms: S_9  and  N_12
REMARK    5  A    between atoms: C_15  and  N_16
REMARK                            x       y       z     vdW  Elec       q    Type
REMARK                         _______ _______ _______ _____ _____    ______ ____
ROOT
ATOM      1  S   UNL     1       0.570   9.260  21.488  0.00  0.00    +0.000 S 
ATOM      2  O   UNL     1      -0.589   8.425  21.721  0.00  0.00    +0.000 OA
ATOM      3  O   UNL     1       1.642   9.341  22.458  0.00  0.00    +0.000 OA
ENDROOT
BRANCH   1   8
ATOM      4  C   UNL     1       2.554   6.999  18.784  0.00  0.00    +0.000 A 
ATOM      5  C   UNL     1       2.765   7.888  17.717  0.00  0.00    +0.000 A 
ATOM      6  C   UNL     1       2.208   9.172  17.756  0.00  0.00    +0.000 A 
ATOM      7  C   UNL     1       1.496   9.593  18.885  0.00  0.00    +0.000 A 
ATOM      8  C   UNL     1       1.332   8.712  19.964  0.00  0.00    +0.000 A 
ATOM      9  C   UNL     1       1.806   7.399  19.899  0.00  0.00    +0.000 A 
BRANCH   4  11
ATOM     10  O   UNL     1       4.190   5.459  20.130  0.00  0.00    +0.000 OA
ATOM     11  S   UNL     1       3.441   5.418  18.876  0.00  0.00    +0.000 S 
ATOM     12  O   UNL     1       2.488   4.398  18.592  0.00  0.00    +0.000 OA
BRANCH  11  13
ATOM     13  N   UNL     1       4.584   5.492  17.600  0.00  0.00    +0.000 NA
ATOM     14  C   UNL     1       5.955   5.887  18.026  0.00  0.00    +0.000 C 
ATOM     15  C   UNL     1       6.897   6.089  16.841  0.00  0.00    +0.000 C 
ATOM     16  C   UNL     1       6.888   4.885  15.914  0.00  0.00    +0.000 C 
ATOM     17  C   UNL     1       5.470   4.613  15.434  0.00  0.00    +0.000 C 
ATOM     18  C   UNL     1       4.527   4.389  16.610  0.00  0.00    +0.000 C 
ENDBRANCH  11  13
ENDBRANCH   4  11
ENDBRANCH   1   8
BRANCH   1  19
ATOM     19  N   UNL     1       0.007  10.890  21.109  0.00  0.00    +0.000 NA
ATOM     20  C   UNL     1      -0.974  10.933  19.990  0.00  0.00    +0.000 C 
ATOM     21  C   UNL     1      -1.383  12.387  19.644  0.00  0.00    +0.000 C 
ATOM     22  C   UNL     1      -2.098  13.219  20.789  0.00  0.00    +0.000 C 
ATOM     23  C   UNL     1      -1.080  13.044  21.986  0.00  0.00    +0.000 C 
ATOM     24  C   UNL     1      -0.482  11.635  22.309  0.00  0.00    +0.000 C 
BRANCH  22  25
ATOM     25  N   UNL     1      -3.529  12.886  21.061  0.00  0.00    +0.000 N 
ATOM     26  N   UNL     1      -4.117  12.476  19.915  0.00  0.00    +0.000 NA
ATOM     27  N   UNL     1      -5.413  12.417  20.071  0.00  0.00    +0.000 NA
ATOM     28  C   UNL     1      -5.685  12.565  21.378  0.00  0.00    +0.000 A 
ATOM     29  C   UNL     1      -6.978  12.425  21.950  0.00  0.00    +0.000 A 
ATOM     30  C   UNL     1      -7.162  12.458  23.310  0.00  0.00    +0.000 A 
ATOM     31  C   UNL     1      -6.068  12.726  24.115  0.00  0.00    +0.000 A 
ATOM     32  C   UNL     1      -4.733  12.973  23.552  0.00  0.00    +0.000 A 
ATOM     33  C   UNL     1      -4.520  12.841  22.114  0.00  0.00    +0.000 A 
ENDBRANCH  22  25
ENDBRANCH   1  19
TORSDOF 5
ENDMDL
MODEL 4
REMARK VINA RESULT:      -8.9      1.098      1.688
REMARK  Name = 
REMARK  5 active torsions:
REMARK  status: ('A' for Active; 'I' for Inactive)
REMARK    1  A    between atoms: S_2  and  C_4
REMARK    2  A    between atoms: S_2  and  N_28
REMARK    3  A    between atoms: C_8  and  S_9
REMARK    4  A    between atoms: S_9  and  N_12
REMARK    5  A    between atoms: C_15  and  N_16
REMARK                            x       y       z     vdW  Elec       q    Type
REMARK                         _______ _______ _______ _____ _____    ______ ____
ROOT
ATOM      1  S   UNL     1       0.515   9.368  21.603  0.00  0.00    +0.000 S 
ATOM      2  O   UNL     1      -0.643   8.522  21.797  0.00  0.00    +0.000 OA
ATOM      3  O   UNL     1       1.604   9.378  22.557  0.00  0.00    +0.000 OA
ENDROOT
BRANCH   1   8
ATOM      4  C   UNL     1       2.523   7.338  18.738  0.00  0.00    +0.000 A 
ATOM      5  C   UNL     1       2.639   8.278  17.701  0.00  0.00    +0.000 A 
ATOM      6  C   UNL     1       2.007   9.523  17.813  0.00  0.00    +0.000 A 
ATOM      7  C   UNL     1       1.317   9.856  18.984  0.00  0.00    +0.000 A 
ATOM      8  C   UNL     1       1.248   8.927  20.031  0.00  0.00    +0.000 A 
ATOM      9  C   UNL     1       1.797   7.649  19.896  0.00  0.00    +0.000 A 
BRANCH   4  11
ATOM     10  O   UNL     1       3.520   5.357  17.345  0.00  0.00    +0.000 OA
ATOM     11  S   UNL     1       3.506   5.812  18.733  0.00  0.00    +0.000 S 
ATOM     12  O   UNL     1       4.702   6.094  19.454  0.00  0.00    +0.000 OA
BRANCH  11  13
ATOM     13  N   UNL     1       2.562   4.691  19.625  0.00  0.00    +0.000 NA
ATOM     14  C   UNL     1       1.502   4.012  18.829  0.00  0.00    +0.000 C 
ATOM     15  C   UNL     1       0.592   3.143  19.694  0.00  0.00    +0.000 C 
ATOM     16  C   UNL     1       1.397   2.182  20.554  0.00  0.00    +0.000 C 
ATOM     17  C   UNL     1       2.379   2.960  21.417  0.00  0.00    +0.000 C 
ATOM     18  C   UNL     1       3.306   3.814  20.561  0.00  0.00    +0.000 C 
ENDBRANCH  11  13
ENDBRANCH   4  11
ENDBRANCH   1   8
BRANCH   1  19
ATOM     19  N   UNL     1      -0.048  11.022  21.350  0.00  0.00    +0.000 NA
ATOM     20  C   UNL     1      -0.847  11.192  20.104  0.00  0.00    +0.000 C 
ATOM     21  C   UNL     1      -1.255  12.671  19.885  0.00  0.00    +0.000 C 
ATOM     22  C   UNL     1      -2.171  13.331  20.999  0.00  0.00    +0.000 C 
ATOM     23  C   UNL     1      -1.343  13.020  22.309  0.00  0.00    +0.000 C 
ATOM     24  C   UNL     1      -0.746  11.594  22.542  0.00  0.00    +0.000 C 
BRANCH  22  25
ATOM     25  N   UNL     1      -3.613  12.937  20.997  0.00  0.00    +0.000 N 
ATOM     26  N   UNL     1      -4.133  13.145  22.228  0.00  0.00    +0.000 NA
ATOM     27  N   UNL     1      -5.309  12.584  22.319  0.00  0.00    +0.000 NA
ATOM     28  C   UNL     1      -5.684  12.195  21.089  0.00  0.00    +0.000 A 
ATOM     29  C   UNL     1      -6.963  11.664  20.771  0.00  0.00    +0.000 A 
ATOM     30  C   UNL     1      -7.324  11.411  19.471  0.00  0.00    +0.000 A 
ATOM     31  C   UNL     1      -6.378  11.596  18.477  0.00  0.00    +0.000 A 
ATOM     32  C   UNL     1      -5.014  12.050  18.781  0.00  0.00    +0.000 A 
ATOM     33  C   UNL     1      -4.661  12.413  20.151  0.00  0.00    +0.000 A 
ENDBRANCH  22  25
ENDBRANCH   1  19
TORSDOF 5
ENDMDL
MODEL 5
REMARK VINA RESULT:      -8.7      2.063      2.605
REMARK  Name = 
REMARK  5 active torsions:
REMARK  status: ('A' for Active; 'I' for Inactive)
REMARK    1  A    between atoms: S_2  and  C_4
REMARK    2  A    between atoms: S_2  and  N_28
REMARK    3  A    between atoms: C_8  and  S_9
REMARK    4  A    between atoms: S_9  and  N_12
REMARK    5  A    between atoms: C_15  and  N_16
REMARK                            x       y       z     vdW  Elec       q    Type
REMARK                         _______ _______ _______ _____ _____    ______ ____
ROOT
ATOM      1  S   UNL     1       0.758   9.007  21.295  0.00  0.00    +0.000 S 
ATOM      2  O   UNL     1      -0.388   8.198  21.655  0.00  0.00    +0.000 OA
ATOM      3  O   UNL     1       1.814   9.275  22.248  0.00  0.00    +0.000 OA
ENDROOT
BRANCH   1   8
ATOM      4  C   UNL     1       2.578   6.251  18.959  0.00  0.00    +0.000 A 
ATOM      5  C   UNL     1       3.024   7.006  17.862  0.00  0.00    +0.000 A 
ATOM      6  C   UNL     1       2.681   8.360  17.760  0.00  0.00    +0.000 A 
ATOM      7  C   UNL     1       1.951   8.977  18.782  0.00  0.00    +0.000 A 
ATOM      8  C   UNL     1       1.552   8.225  19.895  0.00  0.00    +0.000 A 
ATOM      9  C   UNL     1       1.810   6.853  19.965  0.00  0.00    +0.000 A 
BRANCH   4  11
ATOM     10  O   UNL     1       3.277   4.420  20.696  0.00  0.00    +0.000 OA
ATOM     11  S   UNL     1       3.184   4.565  19.245  0.00  0.00    +0.000 S 
ATOM     12  O   UNL     1       2.383   3.701  18.444  0.00  0.00    +0.000 OA
BRANCH  11  13
ATOM     13  N   UNL     1       4.786   4.575  18.633  0.00  0.00    +0.000 NA
ATOM     14  C   UNL     1       4.877   4.503  17.148  0.00  0.00    +0.000 C 
ATOM     15  C   UNL     1       6.317   4.359  16.659  0.00  0.00    +0.000 C 
ATOM     16  C   UNL     1       7.215   5.429  17.257  0.00  0.00    +0.000 C 
ATOM     17  C   UNL     1       7.152   5.366  18.777  0.00  0.00    +0.000 C 
ATOM     18  C   UNL     1       5.722   5.530  19.275  0.00  0.00    +0.000 C 
ENDBRANCH  11  13
ENDBRANCH   4  11
ENDBRANCH   1   8
BRANCH   1  19
ATOM     19  N   UNL     1       0.169  10.536  20.638  0.00  0.00    +0.000 NA
ATOM     20  C   UNL     1      -1.087  10.398  19.849  0.00  0.00    +0.000 C 
ATOM     21  C   UNL     1      -1.525  11.750  19.231  0.00  0.00    +0.000 C 
ATOM     22  C   UNL     1      -1.859  12.922  20.245  0.00  0.00    +0.000 C 
ATOM     23  C   UNL     1      -0.551  12.950  21.133  0.00  0.00    +0.000 C 
ATOM     24  C   UNL     1       0.064  11.615  21.668  0.00  0.00    +0.000 C 
BRANCH  22  25
ATOM     25  N   UNL     1      -3.166  12.832  20.964  0.00  0.00    +0.000 N 
ATOM     26  N   UNL     1      -4.173  12.855  20.062  0.00  0.00    +0.000 NA
ATOM     27  N   UNL     1      -5.317  13.025  20.669  0.00  0.00    +0.000 NA
ATOM     28  C   UNL     1      -5.114  12.889  21.991  0.00  0.00    +0.000 A 
ATOM     29  C   UNL     1      -6.148  12.877  22.965  0.00  0.00    +0.000 A 
ATOM     30  C   UNL     1      -5.880  12.601  24.283  0.00  0.00    +0.000 A 
ATOM     31  C   UNL     1      -4.560  12.427  24.663  0.00  0.00    +0.000 A 
ATOM     32  C   UNL     1      -3.456  12.530  23.700  0.00  0.00    +0.000 A 
ATOM     33  C   UNL     1      -3.749  12.725  22.283  0.00  0.00    +0.000 A 
ENDBRANCH  22  25
ENDBRANCH   1  19
TORSDOF 5
ENDMDL
MODEL 6
REMARK VINA RESULT:      -8.7      4.132      5.757
REMARK  Name = 
REMARK  5 active torsions:
REMARK  status: ('A' for Active; 'I' for Inactive)
REMARK    1  A    between atoms: S_2  and  C_4
REMARK    2  A    between atoms: S_2  and  N_28
REMARK    3  A    between atoms: C_8  and  S_9
REMARK    4  A    between atoms: S_9  and  N_12
REMARK    5  A    between atoms: C_15  and  N_16
REMARK                            x       y       z     vdW  Elec       q    Type
REMARK                         _______ _______ _______ _____ _____    ______ ____
ROOT
ATOM      1  S   UNL     1       1.065  10.381  18.510  0.00  0.00    +0.000 S 
ATOM      2  O   UNL     1       1.996  10.308  17.403  0.00  0.00    +0.000 OA
ATOM      3  O   UNL     1      -0.364  10.443  18.284  0.00  0.00    +0.000 OA
ENDROOT
BRANCH   1   8
ATOM      4  C   UNL     1       2.273   6.727  19.758  0.00  0.00    +0.000 A 
ATOM      5  C   UNL     1       1.578   6.557  20.967  0.00  0.00    +0.000 A 
ATOM      6  C   UNL     1       0.806   7.605  21.484  0.00  0.00    +0.000 A 
ATOM      7  C   UNL     1       0.674   8.798  20.764  0.00  0.00    +0.000 A 
ATOM      8  C   UNL     1       1.334   8.939  19.536  0.00  0.00    +0.000 A 
ATOM      9  C   UNL     1       2.178   7.935  19.054  0.00  0.00    +0.000 A 
BRANCH   4  11
ATOM     10  O   UNL     1       3.179   4.278  19.957  0.00  0.00    +0.000 OA
ATOM     11  S   UNL     1       3.094   5.329  18.944  0.00  0.00    +0.000 S 
ATOM     12  O   UNL     1       2.431   5.133  17.699  0.00  0.00    +0.000 OA
BRANCH  11  13
ATOM     13  N   UNL     1       4.692   5.881  18.652  0.00  0.00    +0.000 NA
ATOM     14  C   UNL     1       5.755   5.023  19.244  0.00  0.00    +0.000 C 
ATOM     15  C   UNL     1       7.147   5.633  19.091  0.00  0.00    +0.000 C 
ATOM     16  C   UNL     1       7.429   6.016  17.647  0.00  0.00    +0.000 C 
ATOM     17  C   UNL     1       6.360   6.980  17.151  0.00  0.00    +0.000 C 
ATOM     18  C   UNL     1       4.969   6.371  17.280  0.00  0.00    +0.000 C 
ENDBRANCH  11  13
ENDBRANCH   4  11
ENDBRANCH   1   8
BRANCH   1  19
ATOM     19  N   UNL     1       1.547  11.725  19.547  0.00  0.00    +0.000 NA
ATOM     20  C   UNL     1       2.290  12.795  18.825  0.00  0.00    +0.000 C 
ATOM     21  C   UNL     1       2.756  13.917  19.787  0.00  0.00    +0.000 C 
ATOM     22  C   UNL     1       1.621  14.715  20.555  0.00  0.00    +0.000 C 
ATOM     23  C   UNL     1       0.792  13.536  21.204  0.00  0.00    +0.000 C 
ATOM     24  C   UNL     1       0.416  12.279  20.353  0.00  0.00    +0.000 C 
BRANCH  22  25
ATOM     25  N   UNL     1       0.857  15.723  19.757  0.00  0.00    +0.000 N 
ATOM     26  N   UNL     1      -0.392  15.836  20.261  0.00  0.00    +0.000 NA
ATOM     27  N   UNL     1      -1.147  16.517  19.442  0.00  0.00    +0.000 NA
ATOM     28  C   UNL     1      -0.359  17.058  18.497  0.00  0.00    +0.000 A 
ATOM     29  C   UNL     1      -0.806  17.974  17.508  0.00  0.00    +0.000 A 
ATOM     30  C   UNL     1       0.079  18.590  16.657  0.00  0.00    +0.000 A 
ATOM     31  C   UNL     1       1.414  18.227  16.721  0.00  0.00    +0.000 A 
ATOM     32  C   UNL     1       1.895  17.210  17.666  0.00  0.00    +0.000 A 
ATOM     33  C   UNL     1       0.972  16.629  18.636  0.00  0.00    +0.000 A 
ENDBRANCH  22  25
ENDBRANCH   1  19
TORSDOF 5
ENDMDL
MODEL 7
REMARK VINA RESULT:      -8.5      0.848      1.302
REMARK  Name = 
REMARK  5 active torsions:
REMARK  status: ('A' for Active; 'I' for Inactive)
REMARK    1  A    between atoms: S_2  and  C_4
REMARK    2  A    between atoms: S_2  and  N_28
REMARK    3  A    between atoms: C_8  and  S_9
REMARK    4  A    between atoms: S_9  and  N_12
REMARK    5  A    between atoms: C_15  and  N_16
REMARK                            x       y       z     vdW  Elec       q    Type
REMARK                         _______ _______ _______ _____ _____    ______ ____
ROOT
ATOM      1  S   UNL     1       0.483   9.395  21.423  0.00  0.00    +0.000 S 
ATOM      2  O   UNL     1      -0.618   8.483  21.652  0.00  0.00    +0.000 OA
ATOM      3  O   UNL     1       1.562   9.521  22.380  0.00  0.00    +0.000 OA
ENDROOT
BRANCH   1   8
ATOM      4  C   UNL     1       2.522   7.306  18.623  0.00  0.00    +0.000 A 
ATOM      5  C   UNL     1       2.701   8.243  17.592  0.00  0.00    +0.000 A 
ATOM      6  C   UNL     1       2.104   9.506  17.685  0.00  0.00    +0.000 A 
ATOM      7  C   UNL     1       1.386   9.859  18.833  0.00  0.00    +0.000 A 
ATOM      8  C   UNL     1       1.254   8.932  19.876  0.00  0.00    +0.000 A 
ATOM      9  C   UNL     1       1.768   7.638  19.757  0.00  0.00    +0.000 A 
BRANCH   4  11
ATOM     10  O   UNL     1       3.737   5.435  17.249  0.00  0.00    +0.000 OA
ATOM     11  S   UNL     1       3.457   5.751  18.649  0.00  0.00    +0.000 S 
ATOM     12  O   UNL     1       4.492   5.911  19.614  0.00  0.00    +0.000 OA
BRANCH  11  13
ATOM     13  N   UNL     1       2.335   4.584  19.216  0.00  0.00    +0.000 NA
ATOM     14  C   UNL     1       2.003   3.521  18.227  0.00  0.00    +0.000 C 
ATOM     15  C   UNL     1       0.889   2.598  18.718  0.00  0.00    +0.000 C 
ATOM     16  C   UNL     1       1.194   2.048  20.101  0.00  0.00    +0.000 C 
ATOM     17  C   UNL     1       1.412   3.195  21.077  0.00  0.00    +0.000 C 
ATOM     18  C   UNL     1       2.536   4.110  20.606  0.00  0.00    +0.000 C 
ENDBRANCH  11  13
ENDBRANCH   4  11
ENDBRANCH   1   8
BRANCH   1  19
ATOM     19  N   UNL     1      -0.187  10.994  21.092  0.00  0.00    +0.000 NA
ATOM     20  C   UNL     1      -1.549  10.954  20.491  0.00  0.00    +0.000 C 
ATOM     21  C   UNL     1      -2.065  12.374  20.149  0.00  0.00    +0.000 C 
ATOM     22  C   UNL     1      -2.231  13.384  21.361  0.00  0.00    +0.000 C 
ATOM     23  C   UNL     1      -0.804  13.301  22.035  0.00  0.00    +0.000 C 
ATOM     24  C   UNL     1      -0.125  11.912  22.271  0.00  0.00    +0.000 C 
BRANCH  22  25
ATOM     25  N   UNL     1      -3.415  13.172  22.249  0.00  0.00    +0.000 N 
ATOM     26  N   UNL     1      -3.004  12.624  23.415  0.00  0.00    +0.000 NA
ATOM     27  N   UNL     1      -4.033  12.206  24.102  0.00  0.00    +0.000 NA
ATOM     28  C   UNL     1      -5.148  12.671  23.512  0.00  0.00    +0.000 A 
ATOM     29  C   UNL     1      -6.456  12.533  24.047  0.00  0.00    +0.000 A 
ATOM     30  C   UNL     1      -7.534  13.147  23.459  0.00  0.00    +0.000 A 
ATOM     31  C   UNL     1      -7.334  13.833  22.273  0.00  0.00    +0.000 A 
ATOM     32  C   UNL     1      -6.010  13.913  21.639  0.00  0.00    +0.000 A 
ATOM     33  C   UNL     1      -4.849  13.344  22.315  0.00  0.00    +0.000 A 
ENDBRANCH  22  25
ENDBRANCH   1  19
TORSDOF 5
ENDMDL
MODEL 8
REMARK VINA RESULT:      -8.5      4.077     11.134
REMARK  Name = 
REMARK  5 active torsions:
REMARK  status: ('A' for Active; 'I' for Inactive)
REMARK    1  A    between atoms: S_2  and  C_4
REMARK    2  A    between atoms: S_2  and  N_28
REMARK    3  A    between atoms: C_8  and  S_9
REMARK    4  A    between atoms: S_9  and  N_12
REMARK    5  A    between atoms: C_15  and  N_16
REMARK                            x       y       z     vdW  Elec       q    Type
REMARK                         _______ _______ _______ _____ _____    ______ ____
ROOT
ATOM      1  S   UNL     1       2.913   5.483  18.715  0.00  0.00    +0.000 S 
ATOM      2  O   UNL     1       2.747   4.817  19.989  0.00  0.00    +0.000 OA
ATOM      3  O   UNL     1       2.323   4.946  17.507  0.00  0.00    +0.000 OA
ENDROOT
BRANCH   1   8
ATOM      4  C   UNL     1       1.246   8.811  20.299  0.00  0.00    +0.000 A 
ATOM      5  C   UNL     1       0.985   9.606  19.171  0.00  0.00    +0.000 A 
ATOM      6  C   UNL     1       1.415   9.187  17.906  0.00  0.00    +0.000 A 
ATOM      7  C   UNL     1       2.045   7.946  17.756  0.00  0.00    +0.000 A 
ATOM      8  C   UNL     1       2.258   7.140  18.882  0.00  0.00    +0.000 A 
ATOM      9  C   UNL     1       1.915   7.587  20.161  0.00  0.00    +0.000 A 
BRANCH   4  11
ATOM     10  O   UNL     1      -0.595   8.265  22.081  0.00  0.00    +0.000 OA
ATOM     11  S   UNL     1       0.514   9.203  21.912  0.00  0.00    +0.000 S 
ATOM     12  O   UNL     1       1.590   9.283  22.842  0.00  0.00    +0.000 OA
BRANCH  11  13
ATOM     13  N   UNL     1      -0.169  10.763  21.706  0.00  0.00    +0.000 NA
ATOM     14  C   UNL     1      -1.127  11.160  22.775  0.00  0.00    +0.000 C 
ATOM     15  C   UNL     1      -1.823  12.485  22.470  0.00  0.00    +0.000 C 
ATOM     16  C   UNL     1      -0.819  13.575  22.138  0.00  0.00    +0.000 C 
ATOM     17  C   UNL     1       0.048  13.139  20.965  0.00  0.00    +0.000 C 
ATOM     18  C   UNL     1       0.764  11.829  21.269  0.00  0.00    +0.000 C 
ENDBRANCH  11  13
ENDBRANCH   4  11
ENDBRANCH   1   8
BRANCH   1  19
ATOM     19  N   UNL     1       4.639   5.744  18.450  0.00  0.00    +0.000 NA
ATOM     20  C   UNL     1       5.376   4.503  18.080  0.00  0.00    +0.000 C 
ATOM     21  C   UNL     1       6.896   4.764  17.931  0.00  0.00    +0.000 C 
ATOM     22  C   UNL     1       7.336   5.797  16.811  0.00  0.00    +0.000 C 
ATOM     23  C   UNL     1       6.442   7.050  17.172  0.00  0.00    +0.000 C 
ATOM     24  C   UNL     1       4.925   6.864  17.503  0.00  0.00    +0.000 C 
BRANCH  22  25
ATOM     25  N   UNL     1       7.285   5.312  15.398  0.00  0.00    +0.000 N 
ATOM     26  N   UNL     1       8.394   5.725  14.745  0.00  0.00    +0.000 NA
ATOM     27  N   UNL     1       8.258   5.529  13.461  0.00  0.00    +0.000 NA
ATOM     28  C   UNL     1       7.161   4.778  13.265  0.00  0.00    +0.000 A 
ATOM     29  C   UNL     1       6.764   4.249  12.008  0.00  0.00    +0.000 A 
ATOM     30  C   UNL     1       5.705   3.381  11.904  0.00  0.00    +0.000 A 
ATOM     31  C   UNL     1       4.969   3.102  13.043  0.00  0.00    +0.000 A 
ATOM     32  C   UNL     1       5.292   3.709  14.341  0.00  0.00    +0.000 A 
ATOM     33  C   UNL     1       6.475   4.553  14.471  0.00  0.00    +0.000 A 
ENDBRANCH  22  25
ENDBRANCH   1  19
TORSDOF 5
ENDMDL
MODEL 9
REMARK VINA RESULT:      -8.4      0.975      1.711
REMARK  Name = 
REMARK  5 active torsions:
REMARK  status: ('A' for Active; 'I' for Inactive)
REMARK    1  A    between atoms: S_2  and  C_4
REMARK    2  A    between atoms: S_2  and  N_28
REMARK    3  A    between atoms: C_8  and  S_9
REMARK    4  A    between atoms: S_9  and  N_12
REMARK    5  A    between atoms: C_15  and  N_16
REMARK                            x       y       z     vdW  Elec       q    Type
REMARK                         _______ _______ _______ _____ _____    ______ ____
ROOT
ATOM      1  S   UNL     1       0.676   9.063  21.183  0.00  0.00    +0.000 S 
ATOM      2  O   UNL     1      -0.479   8.215  21.389  0.00  0.00    +0.000 OA
ATOM      3  O   UNL     1       1.710   9.179  22.191  0.00  0.00    +0.000 OA
ENDROOT
BRANCH   1   8
ATOM      4  C   UNL     1       2.910   6.850  18.638  0.00  0.00    +0.000 A 
ATOM      5  C   UNL     1       3.031   7.681  17.513  0.00  0.00    +0.000 A 
ATOM      6  C   UNL     1       2.338   8.897  17.465  0.00  0.00    +0.000 A 
ATOM      7  C   UNL     1       1.578   9.315  18.563  0.00  0.00    +0.000 A 
ATOM      8  C   UNL     1       1.503   8.498  19.700  0.00  0.00    +0.000 A 
ATOM      9  C   UNL     1       2.116   7.242  19.725  0.00  0.00    +0.000 A 
BRANCH   4  11
ATOM     10  O   UNL     1       4.476   5.083  17.504  0.00  0.00    +0.000 OA
ATOM     11  S   UNL     1       3.960   5.384  18.838  0.00  0.00    +0.000 S 
ATOM     12  O   UNL     1       4.819   5.643  19.945  0.00  0.00    +0.000 OA
BRANCH  11  13
ATOM     13  N   UNL     1       2.870   4.127  19.254  0.00  0.00    +0.000 NA
ATOM     14  C   UNL     1       2.511   4.079  20.699  0.00  0.00    +0.000 C 
ATOM     15  C   UNL     1       1.664   2.857  21.048  0.00  0.00    +0.000 C 
ATOM     16  C   UNL     1       0.457   2.738  20.132  0.00  0.00    +0.000 C 
ATOM     17  C   UNL     1       0.914   2.682  18.681  0.00  0.00    +0.000 C 
ATOM     18  C   UNL     1       1.741   3.909  18.318  0.00  0.00    +0.000 C 
ENDBRANCH  11  13
ENDBRANCH   4  11
ENDBRANCH   1   8
BRANCH   1  19
ATOM     19  N   UNL     1       0.105  10.677  20.752  0.00  0.00    +0.000 NA
ATOM     20  C   UNL     1      -1.294  10.694  20.243  0.00  0.00    +0.000 C 
ATOM     21  C   UNL     1      -1.726  12.118  19.808  0.00  0.00    +0.000 C 
ATOM     22  C   UNL     1      -1.733  13.236  20.932  0.00  0.00    +0.000 C 
ATOM     23  C   UNL     1      -0.272  13.097  21.520  0.00  0.00    +0.000 C 
ATOM     24  C   UNL     1       0.316  11.683  21.837  0.00  0.00    +0.000 C 
BRANCH  22  25
ATOM     25  N   UNL     1      -2.864  13.196  21.908  0.00  0.00    +0.000 N 
ATOM     26  N   UNL     1      -2.411  13.552  23.130  0.00  0.00    +0.000 NA
ATOM     27  N   UNL     1      -3.313  13.289  24.038  0.00  0.00    +0.000 NA
ATOM     28  C   UNL     1      -4.458  12.969  23.411  0.00  0.00    +0.000 A 
ATOM     29  C   UNL     1      -5.698  12.749  24.068  0.00  0.00    +0.000 A 
ATOM     30  C   UNL     1      -6.856  12.557  23.355  0.00  0.00    +0.000 A 
ATOM     31  C   UNL     1      -6.774  12.487  21.975  0.00  0.00    +0.000 A 
ATOM     32  C   UNL     1      -5.493  12.612  21.267  0.00  0.00    +0.000 A 
ATOM     33  C   UNL     1      -4.279  12.915  22.018  0.00  0.00    +0.000 A 
ENDBRANCH  22  25
ENDBRANCH   1  19
TORSDOF 5
ENDMDL
