MODEL 1
REMARK VINA RESULT:      -8.8      0.000      0.000
REMARK  Name = 
REMARK  7 active torsions:
REMARK  status: ('A' for Active; 'I' for Inactive)
REMARK    1  A    between atoms: C_3  and  C_4
REMARK    2  A    between atoms: C_3  and  C_26
REMARK    3  A    between atoms: C_7  and  C_8
REMARK    4  A    between atoms: C_8  and  O_10
REMARK    5  A    between atoms: O_10  and  C_11
REMARK    6  A    between atoms: C_11  and  C_12
REMARK    7  A    between atoms: C_20  and  O_21
REMARK                            x       y       z     vdW  Elec       q    Type
REMARK                         _______ _______ _______ _____ _____    ______ ____
ROOT
ATOM      1  O   UNL     1       2.964   6.462  18.929  0.00  0.00    +0.000 OA
ENDROOT
BRANCH   1   2
ATOM      2  C   UNL     1       3.791   5.394  18.885  0.00  0.00    +0.000 C 
ATOM      3  O   UNL     1       3.972   4.606  19.800  0.00  0.00    +0.000 OA
BRANCH   2   7
ATOM      4  C   UNL     1       5.879   4.918  15.159  0.00  0.00    +0.000 A 
ATOM      5  C   UNL     1       5.618   3.818  15.985  0.00  0.00    +0.000 A 
ATOM      6  C   UNL     1       4.931   4.000  17.189  0.00  0.00    +0.000 A 
ATOM      7  C   UNL     1       4.499   5.274  17.585  0.00  0.00    +0.000 A 
ATOM      8  C   UNL     1       4.756   6.371  16.752  0.00  0.00    +0.000 A 
ATOM      9  C   UNL     1       5.439   6.188  15.543  0.00  0.00    +0.000 A 
BRANCH   4  12
ATOM     10  N   UNL     1       8.731   5.878  13.471  0.00  0.00    +0.000 NA
ATOM     11  N   UNL     1       7.744   5.334  13.661  0.00  0.00    +0.000 NA
ATOM     12  C   UNL     1       6.605   4.715  13.893  0.00  0.00    +0.000 C 
BRANCH  12  13
ATOM     13  C   UNL     1       6.128   3.825  12.802  0.00  0.00    +0.000 C 
ATOM     14  F   UNL     1       6.373   2.508  13.019  0.00  0.00    +0.000 F 
ATOM     15  F   UNL     1       4.789   3.934  12.620  0.00  0.00    +0.000 F 
ATOM     16  F   UNL     1       6.711   4.135  11.618  0.00  0.00    +0.000 F 
ENDBRANCH  12  13
ENDBRANCH   4  12
ENDBRANCH   2   7
ENDBRANCH   1   2
BRANCH   1  17
ATOM     17  C   UNL     1       2.115   6.538  20.085  0.00  0.00    +0.000 C 
BRANCH  17  18
ATOM     18  C   UNL     1       1.592   7.939  20.248  0.00  0.00    +0.000 A 
ATOM     19  C   UNL     1       1.604   8.829  19.190  0.00  0.00    +0.000 A 
ATOM     20  N   UNL     1       1.129  10.095  19.286  0.00  0.00    +0.000 NA
ATOM     21  C   UNL     1       0.619  10.491  20.458  0.00  0.00    +0.000 A 
ATOM     22  N   UNL     1       0.142  11.734  20.530  0.00  0.00    +0.000 NA
ATOM     23  C   UNL     1      -0.372  12.146  21.684  0.00  0.00    +0.000 A 
ATOM     24  N   UNL     1      -0.856  13.420  21.744  0.00  0.00    +0.000 N 
ATOM     25  N   UNL     1      -0.445  11.406  22.786  0.00  0.00    +0.000 NA
ATOM     26  C   UNL     1       0.049  10.166  22.665  0.00  0.00    +0.000 A 
ATOM     27  C   UNL     1       0.606   9.599  21.534  0.00  0.00    +0.000 A 
ATOM     28  N   UNL     1       1.089   8.318  21.444  0.00  0.00    +0.000 NA
ATOM     29  H   UNL     1      -0.842  13.967  20.900  0.00  0.00    +0.000 HD
ATOM     30  H   UNL     1      -1.284  13.736  22.595  0.00  0.00    +0.000 HD
BRANCH  26  31
ATOM     31  O   UNL     1      -0.049   9.454  23.826  0.00  0.00    +0.000 OA
ATOM     32  H   UNL     1      -0.892   8.985  23.687  0.00  0.00    +0.000 HD
ENDBRANCH  26  31
ENDBRANCH  17  18
ENDBRANCH   1  17
TORSDOF 7
ENDMDL
MODEL 2
REMARK VINA RESULT:      -8.7      4.953      6.054
REMARK  Name = 
REMARK  7 active torsions:
REMARK  status: ('A' for Active; 'I' for Inactive)
REMARK    1  A    between atoms: C_3  and  C_4
REMARK    2  A    between atoms: C_3  and  C_26
REMARK    3  A    between atoms: C_7  and  C_8
REMARK    4  A    between atoms: C_8  and  O_10
REMARK    5  A    between atoms: O_10  and  C_11
REMARK    6  A    between atoms: C_11  and  C_12
REMARK    7  A    between atoms: C_20  and  O_21
REMARK                            x       y       z     vdW  Elec       q    Type
REMARK                         _______ _______ _______ _____ _____    ______ ____
ROOT
ATOM      1  O   UNL     1       7.718   5.080  17.550  0.00  0.00    +0.000 OA
ENDROOT
BRANCH   1   2
ATOM      2  C   UNL     1       7.299   5.866  16.534  0.00  0.00    +0.000 C 
ATOM      3  O   UNL     1       7.319   7.087  16.534  0.00  0.00    +0.000 OA
BRANCH   2   7
ATOM      4  C   UNL     1       5.862   3.672  13.130  0.00  0.00    +0.000 A 
ATOM      5  C   UNL     1       7.021   4.451  13.048  0.00  0.00    +0.000 A 
ATOM      6  C   UNL     1       7.470   5.150  14.172  0.00  0.00    +0.000 A 
ATOM      7  C   UNL     1       6.772   5.083  15.387  0.00  0.00    +0.000 A 
ATOM      8  C   UNL     1       5.616   4.296  15.466  0.00  0.00    +0.000 A 
ATOM      9  C   UNL     1       5.169   3.591  14.342  0.00  0.00    +0.000 A 
BRANCH   4  12
ATOM     10  N   UNL     1       6.795   1.191  10.921  0.00  0.00    +0.000 NA
ATOM     11  N   UNL     1       6.140   2.002  11.388  0.00  0.00    +0.000 NA
ATOM     12  C   UNL     1       5.397   2.940  11.938  0.00  0.00    +0.000 C 
BRANCH  12  13
ATOM     13  C   UNL     1       4.091   3.192  11.273  0.00  0.00    +0.000 C 
ATOM     14  F   UNL     1       3.813   2.330  10.262  0.00  0.00    +0.000 F 
ATOM     15  F   UNL     1       3.059   3.095  12.146  0.00  0.00    +0.000 F 
ATOM     16  F   UNL     1       4.038   4.439  10.740  0.00  0.00    +0.000 F 
ENDBRANCH  12  13
ENDBRANCH   4  12
ENDBRANCH   2   7
ENDBRANCH   1   2
BRANCH   1  17
ATOM     17  C   UNL     1       7.273   5.470  18.858  0.00  0.00    +0.000 C 
BRANCH  17  18
ATOM     18  C   UNL     1       5.833   5.079  19.050  0.00  0.00    +0.000 A 
ATOM     19  C   UNL     1       4.864   6.035  19.296  0.00  0.00    +0.000 A 
ATOM     20  N   UNL     1       3.554   5.729  19.460  0.00  0.00    +0.000 NA
ATOM     21  C   UNL     1       3.187   4.446  19.369  0.00  0.00    +0.000 A 
ATOM     22  N   UNL     1       1.892   4.166  19.517  0.00  0.00    +0.000 NA
ATOM     23  C   UNL     1       1.507   2.897  19.428  0.00  0.00    +0.000 A 
ATOM     24  N   UNL     1       0.179   2.626  19.582  0.00  0.00    +0.000 N 
ATOM     25  N   UNL     1       2.324   1.874  19.203  0.00  0.00    +0.000 NA
ATOM     26  C   UNL     1       3.615   2.205  19.062  0.00  0.00    +0.000 A 
ATOM     27  C   UNL     1       4.161   3.473  19.124  0.00  0.00    +0.000 A 
ATOM     28  N   UNL     1       5.489   3.775  18.962  0.00  0.00    +0.000 NA
ATOM     29  H   UNL     1      -0.447   3.402  19.709  0.00  0.00    +0.000 HD
ATOM     30  H   UNL     1      -0.137   1.678  19.478  0.00  0.00    +0.000 HD
BRANCH  26  31
ATOM     31  O   UNL     1       4.408   1.115  18.836  0.00  0.00    +0.000 OA
ATOM     32  H   UNL     1       3.954   0.710  18.075  0.00  0.00    +0.000 HD
ENDBRANCH  26  31
ENDBRANCH  17  18
ENDBRANCH   1  17
TORSDOF 7
ENDMDL
MODEL 3
REMARK VINA RESULT:      -8.4      0.576      1.065
REMARK  Name = 
REMARK  7 active torsions:
REMARK  status: ('A' for Active; 'I' for Inactive)
REMARK    1  A    between atoms: C_3  and  C_4
REMARK    2  A    between atoms: C_3  and  C_26
REMARK    3  A    between atoms: C_7  and  C_8
REMARK    4  A    between atoms: C_8  and  O_10
REMARK    5  A    between atoms: O_10  and  C_11
REMARK    6  A    between atoms: C_11  and  C_12
REMARK    7  A    between atoms: C_20  and  O_21
REMARK                            x       y       z     vdW  Elec       q    Type
REMARK                         _______ _______ _______ _____ _____    ______ ____
ROOT
ATOM      1  O   UNL     1       2.918   6.061  18.653  0.00  0.00    +0.000 OA
ENDROOT
BRANCH   1   2
ATOM      2  C   UNL     1       3.643   4.921  18.617  0.00  0.00    +0.000 C 
ATOM      3  O   UNL     1       3.676   4.080  19.501  0.00  0.00    +0.000 OA
BRANCH   2   7
ATOM      4  C   UNL     1       5.916   4.680  14.977  0.00  0.00    +0.000 A 
ATOM      5  C   UNL     1       5.489   5.915  15.480  0.00  0.00    +0.000 A 
ATOM      6  C   UNL     1       4.756   5.965  16.670  0.00  0.00    +0.000 A 
ATOM      7  C   UNL     1       4.440   4.791  17.370  0.00  0.00    +0.000 A 
ATOM      8  C   UNL     1       4.875   3.559  16.866  0.00  0.00    +0.000 A 
ATOM      9  C   UNL     1       5.614   3.508  15.678  0.00  0.00    +0.000 A 
BRANCH   4  12
ATOM     10  N   UNL     1       8.767   5.930  13.489  0.00  0.00    +0.000 NA
ATOM     11  N   UNL     1       7.802   5.327  13.591  0.00  0.00    +0.000 NA
ATOM     12  C   UNL     1       6.687   4.638  13.722  0.00  0.00    +0.000 C 
BRANCH  12  13
ATOM     13  C   UNL     1       6.283   3.843  12.533  0.00  0.00    +0.000 C 
ATOM     14  F   UNL     1       6.630   2.532  12.603  0.00  0.00    +0.000 F 
ATOM     15  F   UNL     1       4.940   3.868  12.349  0.00  0.00    +0.000 F 
ATOM     16  F   UNL     1       6.844   4.329  11.397  0.00  0.00    +0.000 F 
ENDBRANCH  12  13
ENDBRANCH   4  12
ENDBRANCH   2   7
ENDBRANCH   1   2
BRANCH   1  17
ATOM     17  C   UNL     1       2.350   6.392  19.929  0.00  0.00    +0.000 C 
BRANCH  17  18
ATOM     18  C   UNL     1       1.851   7.811  19.920  0.00  0.00    +0.000 A 
ATOM     19  C   UNL     1       1.831   8.548  18.750  0.00  0.00    +0.000 A 
ATOM     20  N   UNL     1       1.376   9.823  18.691  0.00  0.00    +0.000 NA
ATOM     21  C   UNL     1       0.921  10.385  19.817  0.00  0.00    +0.000 A 
ATOM     22  N   UNL     1       0.463  11.635  19.737  0.00  0.00    +0.000 NA
ATOM     23  C   UNL     1       0.003  12.209  20.844  0.00  0.00    +0.000 A 
ATOM     24  N   UNL     1      -0.461  13.488  20.748  0.00  0.00    +0.000 N 
ATOM     25  N   UNL     1      -0.033  11.628  22.038  0.00  0.00    +0.000 NA
ATOM     26  C   UNL     1       0.439  10.374  22.069  0.00  0.00    +0.000 A 
ATOM     27  C   UNL     1       0.941   9.648  21.005  0.00  0.00    +0.000 A 
ATOM     28  N   UNL     1       1.404   8.358  21.072  0.00  0.00    +0.000 NA
ATOM     29  H   UNL     1      -0.476  13.915  19.838  0.00  0.00    +0.000 HD
ATOM     30  H   UNL     1      -0.850  13.925  21.565  0.00  0.00    +0.000 HD
BRANCH  26  31
ATOM     31  O   UNL     1       0.381   9.828  23.320  0.00  0.00    +0.000 OA
ATOM     32  H   UNL     1       1.326   9.682  23.503  0.00  0.00    +0.000 HD
ENDBRANCH  26  31
ENDBRANCH  17  18
ENDBRANCH   1  17
TORSDOF 7
ENDMDL
MODEL 4
REMARK VINA RESULT:      -8.4      4.277      5.684
REMARK  Name = 
REMARK  7 active torsions:
REMARK  status: ('A' for Active; 'I' for Inactive)
REMARK    1  A    between atoms: C_3  and  C_4
REMARK    2  A    between atoms: C_3  and  C_26
REMARK    3  A    between atoms: C_7  and  C_8
REMARK    4  A    between atoms: C_8  and  O_10
REMARK    5  A    between atoms: O_10  and  C_11
REMARK    6  A    between atoms: C_11  and  C_12
REMARK    7  A    between atoms: C_20  and  O_21
REMARK                            x       y       z     vdW  Elec       q    Type
REMARK                         _______ _______ _______ _____ _____    ______ ____
ROOT
ATOM      1  O   UNL     1       1.418   8.710  18.770  0.00  0.00    +0.000 OA
ENDROOT
BRANCH   1   2
ATOM      2  C   UNL     1       1.624   8.129  19.973  0.00  0.00    +0.000 C 
ATOM      3  O   UNL     1       1.419   8.658  21.054  0.00  0.00    +0.000 OA
BRANCH   2   7
ATOM      4  C   UNL     1       3.220   4.167  19.498  0.00  0.00    +0.000 A 
ATOM      5  C   UNL     1       3.512   5.177  18.575  0.00  0.00    +0.000 A 
ATOM      6  C   UNL     1       2.985   6.459  18.756  0.00  0.00    +0.000 A 
ATOM      7  C   UNL     1       2.162   6.750  19.855  0.00  0.00    +0.000 A 
ATOM      8  C   UNL     1       1.879   5.737  20.780  0.00  0.00    +0.000 A 
ATOM      9  C   UNL     1       2.411   4.455  20.602  0.00  0.00    +0.000 A 
BRANCH   4  12
ATOM     10  N   UNL     1       5.190   1.781  21.023  0.00  0.00    +0.000 NA
ATOM     11  N   UNL     1       4.535   2.257  20.218  0.00  0.00    +0.000 NA
ATOM     12  C   UNL     1       3.780   2.819  19.297  0.00  0.00    +0.000 C 
BRANCH  12  13
ATOM     13  C   UNL     1       3.550   2.005  18.074  0.00  0.00    +0.000 C 
ATOM     14  F   UNL     1       4.262   2.419  16.995  0.00  0.00    +0.000 F 
ATOM     15  F   UNL     1       3.885   0.706  18.271  0.00  0.00    +0.000 F 
ATOM     16  F   UNL     1       2.245   2.022  17.704  0.00  0.00    +0.000 F 
ENDBRANCH  12  13
ENDBRANCH   4  12
ENDBRANCH   2   7
ENDBRANCH   1   2
BRANCH   1  17
ATOM     17  C   UNL     1       1.305  10.142  18.787  0.00  0.00    +0.000 C 
BRANCH  17  18
ATOM     18  C   UNL     1      -0.137  10.547  18.642  0.00  0.00    +0.000 A 
ATOM     19  C   UNL     1      -0.768  11.288  19.624  0.00  0.00    +0.000 A 
ATOM     20  N   UNL     1      -2.059  11.687  19.529  0.00  0.00    +0.000 NA
ATOM     21  C   UNL     1      -2.745  11.355  18.430  0.00  0.00    +0.000 A 
ATOM     22  N   UNL     1      -4.009  11.769  18.347  0.00  0.00    +0.000 NA
ATOM     23  C   UNL     1      -4.707  11.451  17.261  0.00  0.00    +0.000 A 
ATOM     24  N   UNL     1      -5.999  11.882  17.190  0.00  0.00    +0.000 N 
ATOM     25  N   UNL     1      -4.237  10.740  16.242  0.00  0.00    +0.000 NA
ATOM     26  C   UNL     1      -2.963  10.344  16.373  0.00  0.00    +0.000 A 
ATOM     27  C   UNL     1      -2.116  10.602  17.434  0.00  0.00    +0.000 A 
ATOM     28  N   UNL     1      -0.810  10.190  17.526  0.00  0.00    +0.000 NA
ATOM     29  H   UNL     1      -6.344  12.457  17.939  0.00  0.00    +0.000 HD
ATOM     30  H   UNL     1      -6.530  11.686  16.360  0.00  0.00    +0.000 HD
BRANCH  26  31
ATOM     31  O   UNL     1      -2.534   9.616  15.299  0.00  0.00    +0.000 OA
ATOM     32  H   UNL     1      -2.507  10.302  14.608  0.00  0.00    +0.000 HD
ENDBRANCH  26  31
ENDBRANCH  17  18
ENDBRANCH   1  17
TORSDOF 7
ENDMDL
MODEL 5
REMARK VINA RESULT:      -8.3      4.765      5.814
REMARK  Name = 
REMARK  7 active torsions:
REMARK  status: ('A' for Active; 'I' for Inactive)
REMARK    1  A    between atoms: C_3  and  C_4
REMARK    2  A    between atoms: C_3  and  C_26
REMARK    3  A    between atoms: C_7  and  C_8
REMARK    4  A    between atoms: C_8  and  O_10
REMARK    5  A    between atoms: O_10  and  C_11
REMARK    6  A    between atoms: C_11  and  C_12
REMARK    7  A    between atoms: C_20  and  O_21
REMARK                            x       y       z     vdW  Elec       q    Type
REMARK                         _______ _______ _______ _____ _____    ______ ____
ROOT
ATOM      1  O   UNL     1       7.034   6.614  16.427  0.00  0.00    +0.000 OA
ENDROOT
BRANCH   1   2
ATOM      2  C   UNL     1       7.413   5.325  16.288  0.00  0.00    +0.000 C 
ATOM      3  O   UNL     1       8.144   4.719  17.056  0.00  0.00    +0.000 OA
BRANCH   2   7
ATOM      4  C   UNL     1       5.722   3.428  12.821  0.00  0.00    +0.000 A 
ATOM      5  C   UNL     1       5.131   3.285  14.082  0.00  0.00    +0.000 A 
ATOM      6  C   UNL     1       5.699   3.918  15.192  0.00  0.00    +0.000 A 
ATOM      7  C   UNL     1       6.857   4.697  15.061  0.00  0.00    +0.000 A 
ATOM      8  C   UNL     1       7.441   4.843  13.797  0.00  0.00    +0.000 A 
ATOM      9  C   UNL     1       6.870   4.215  12.684  0.00  0.00    +0.000 A 
BRANCH   4  12
ATOM     10  N   UNL     1       6.097   0.685  10.763  0.00  0.00    +0.000 NA
ATOM     11  N   UNL     1       5.636   1.646  11.174  0.00  0.00    +0.000 NA
ATOM     12  C   UNL     1       5.117   2.756  11.658  0.00  0.00    +0.000 C 
BRANCH  12  13
ATOM     13  C   UNL     1       3.909   3.258  10.951  0.00  0.00    +0.000 C 
ATOM     14  F   UNL     1       3.897   2.986   9.621  0.00  0.00    +0.000 F 
ATOM     15  F   UNL     1       2.775   2.715  11.457  0.00  0.00    +0.000 F 
ATOM     16  F   UNL     1       3.788   4.603  11.070  0.00  0.00    +0.000 F 
ENDBRANCH  12  13
ENDBRANCH   4  12
ENDBRANCH   2   7
ENDBRANCH   1   2
BRANCH   1  17
ATOM     17  C   UNL     1       6.558   6.980  17.732  0.00  0.00    +0.000 C 
BRANCH  17  18
ATOM     18  C   UNL     1       5.267   6.267  18.028  0.00  0.00    +0.000 A 
ATOM     19  C   UNL     1       4.052   6.815  17.659  0.00  0.00    +0.000 A 
ATOM     20  N   UNL     1       2.867   6.201  17.892  0.00  0.00    +0.000 NA
ATOM     21  C   UNL     1       2.880   5.008  18.497  0.00  0.00    +0.000 A 
ATOM     22  N   UNL     1       1.706   4.412  18.704  0.00  0.00    +0.000 NA
ATOM     23  C   UNL     1       1.698   3.225  19.301  0.00  0.00    +0.000 A 
ATOM     24  N   UNL     1       0.489   2.627  19.507  0.00  0.00    +0.000 N 
ATOM     25  N   UNL     1       2.783   2.581  19.717  0.00  0.00    +0.000 NA
ATOM     26  C   UNL     1       3.939   3.220  19.489  0.00  0.00    +0.000 A 
ATOM     27  C   UNL     1       4.104   4.449  18.877  0.00  0.00    +0.000 A 
ATOM     28  N   UNL     1       5.307   5.067  18.649  0.00  0.00    +0.000 NA
ATOM     29  H   UNL     1      -0.330   3.092  19.155  0.00  0.00    +0.000 HD
ATOM     30  H   UNL     1       0.465   1.712  19.920  0.00  0.00    +0.000 HD
BRANCH  26  31
ATOM     31  O   UNL     1       5.019   2.514  19.938  0.00  0.00    +0.000 OA
ATOM     32  H   UNL     1       4.644   2.082  20.727  0.00  0.00    +0.000 HD
ENDBRANCH  26  31
ENDBRANCH  17  18
ENDBRANCH   1  17
TORSDOF 7
ENDMDL
MODEL 6
REMARK VINA RESULT:      -8.3      4.712      6.358
REMARK  Name = 
REMARK  7 active torsions:
REMARK  status: ('A' for Active; 'I' for Inactive)
REMARK    1  A    between atoms: C_3  and  C_4
REMARK    2  A    between atoms: C_3  and  C_26
REMARK    3  A    between atoms: C_7  and  C_8
REMARK    4  A    between atoms: C_8  and  O_10
REMARK    5  A    between atoms: O_10  and  C_11
REMARK    6  A    between atoms: C_11  and  C_12
REMARK    7  A    between atoms: C_20  and  O_21
REMARK                            x       y       z     vdW  Elec       q    Type
REMARK                         _______ _______ _______ _____ _____    ______ ____
ROOT
ATOM      1  O   UNL     1       0.869   9.567  19.325  0.00  0.00    +0.000 OA
ENDROOT
BRANCH   1   2
ATOM      2  C   UNL     1       1.742   8.995  18.467  0.00  0.00    +0.000 C 
ATOM      3  O   UNL     1       2.200   9.528  17.469  0.00  0.00    +0.000 OA
BRANCH   2   7
ATOM      4  C   UNL     1       2.732   5.003  19.714  0.00  0.00    +0.000 A 
ATOM      5  C   UNL     1       2.190   5.926  20.616  0.00  0.00    +0.000 A 
ATOM      6  C   UNL     1       1.871   7.216  20.182  0.00  0.00    +0.000 A 
ATOM      7  C   UNL     1       2.089   7.602  18.851  0.00  0.00    +0.000 A 
ATOM      8  C   UNL     1       2.625   6.673  17.951  0.00  0.00    +0.000 A 
ATOM      9  C   UNL     1       2.939   5.379  18.383  0.00  0.00    +0.000 A 
BRANCH   4  12
ATOM     10  N   UNL     1       1.822   2.624  22.042  0.00  0.00    +0.000 NA
ATOM     11  N   UNL     1       2.403   3.092  21.177  0.00  0.00    +0.000 NA
ATOM     12  C   UNL     1       3.066   3.646  20.182  0.00  0.00    +0.000 C 
BRANCH  12  13
ATOM     13  C   UNL     1       4.146   2.812  19.592  0.00  0.00    +0.000 C 
ATOM     14  F   UNL     1       5.238   3.520  19.204  0.00  0.00    +0.000 F 
ATOM     15  F   UNL     1       4.593   1.881  20.470  0.00  0.00    +0.000 F 
ATOM     16  F   UNL     1       3.713   2.141  18.496  0.00  0.00    +0.000 F 
ENDBRANCH  12  13
ENDBRANCH   4  12
ENDBRANCH   2   7
ENDBRANCH   1   2
BRANCH   1  17
ATOM     17  C   UNL     1       0.652  10.974  19.138  0.00  0.00    +0.000 C 
BRANCH  17  18
ATOM     18  C   UNL     1      -0.813  11.245  18.923  0.00  0.00    +0.000 A 
ATOM     19  C   UNL     1      -1.597  11.754  19.941  0.00  0.00    +0.000 A 
ATOM     20  N   UNL     1      -2.916  12.027  19.789  0.00  0.00    +0.000 NA
ATOM     21  C   UNL     1      -3.474  11.800  18.594  0.00  0.00    +0.000 A 
ATOM     22  N   UNL     1      -4.768  12.090  18.457  0.00  0.00    +0.000 NA
ATOM     23  C   UNL     1      -5.341  11.874  17.278  0.00  0.00    +0.000 A 
ATOM     24  N   UNL     1      -6.666  12.174  17.153  0.00  0.00    +0.000 N 
ATOM     25  N   UNL     1      -4.717  11.384  16.213  0.00  0.00    +0.000 NA
ATOM     26  C   UNL     1      -3.418  11.107  16.399  0.00  0.00    +0.000 A 
ATOM     27  C   UNL     1      -2.689  11.283  17.560  0.00  0.00    +0.000 A 
ATOM     28  N   UNL     1      -1.355  10.999  17.710  0.00  0.00    +0.000 NA
ATOM     29  H   UNL     1      -7.131  12.586  17.943  0.00  0.00    +0.000 HD
ATOM     30  H   UNL     1      -7.107  12.056  16.258  0.00  0.00    +0.000 HD
BRANCH  26  31
ATOM     31  O   UNL     1      -2.829  10.604  15.274  0.00  0.00    +0.000 OA
ATOM     32  H   UNL     1      -3.077   9.664  15.338  0.00  0.00    +0.000 HD
ENDBRANCH  26  31
ENDBRANCH  17  18
ENDBRANCH   1  17
TORSDOF 7
ENDMDL
MODEL 7
REMARK VINA RESULT:      -8.2      1.540      2.030
REMARK  Name = 
REMARK  7 active torsions:
REMARK  status: ('A' for Active; 'I' for Inactive)
REMARK    1  A    between atoms: C_3  and  C_4
REMARK    2  A    between atoms: C_3  and  C_26
REMARK    3  A    between atoms: C_7  and  C_8
REMARK    4  A    between atoms: C_8  and  O_10
REMARK    5  A    between atoms: O_10  and  C_11
REMARK    6  A    between atoms: C_11  and  C_12
REMARK    7  A    between atoms: C_20  and  O_21
REMARK                            x       y       z     vdW  Elec       q    Type
REMARK                         _______ _______ _______ _____ _____    ______ ____
ROOT
ATOM      1  O   UNL     1       2.746   6.039  18.964  0.00  0.00    +0.000 OA
ENDROOT
BRANCH   1   2
ATOM      2  C   UNL     1       3.598   4.994  18.883  0.00  0.00    +0.000 C 
ATOM      3  O   UNL     1       3.782   4.166  19.761  0.00  0.00    +0.000 OA
BRANCH   2   7
ATOM      4  C   UNL     1       5.750   4.747  15.171  0.00  0.00    +0.000 A 
ATOM      5  C   UNL     1       5.418   3.593  15.889  0.00  0.00    +0.000 A 
ATOM      6  C   UNL     1       4.712   3.702  17.091  0.00  0.00    +0.000 A 
ATOM      7  C   UNL     1       4.331   4.955  17.591  0.00  0.00    +0.000 A 
ATOM      8  C   UNL     1       4.660   6.107  16.865  0.00  0.00    +0.000 A 
ATOM      9  C   UNL     1       5.362   5.999  15.659  0.00  0.00    +0.000 A 
BRANCH   4  12
ATOM     10  N   UNL     1       8.612   5.832  13.578  0.00  0.00    +0.000 NA
ATOM     11  N   UNL     1       7.630   5.267  13.724  0.00  0.00    +0.000 NA
ATOM     12  C   UNL     1       6.496   4.622  13.906  0.00  0.00    +0.000 C 
BRANCH  12  13
ATOM     13  C   UNL     1       6.045   3.786  12.762  0.00  0.00    +0.000 C 
ATOM     14  F   UNL     1       6.311   2.463  12.909  0.00  0.00    +0.000 F 
ATOM     15  F   UNL     1       4.707   3.883  12.571  0.00  0.00    +0.000 F 
ATOM     16  F   UNL     1       6.636   4.171  11.603  0.00  0.00    +0.000 F 
ENDBRANCH  12  13
ENDBRANCH   4  12
ENDBRANCH   2   7
ENDBRANCH   1   2
BRANCH   1  17
ATOM     17  C   UNL     1       2.158   6.257  20.257  0.00  0.00    +0.000 C 
BRANCH  17  18
ATOM     18  C   UNL     1       1.623   7.660  20.349  0.00  0.00    +0.000 A 
ATOM     19  C   UNL     1       0.944   8.089  21.476  0.00  0.00    +0.000 A 
ATOM     20  N   UNL     1       0.459   9.346  21.608  0.00  0.00    +0.000 NA
ATOM     21  C   UNL     1       0.655  10.210  20.605  0.00  0.00    +0.000 A 
ATOM     22  N   UNL     1       0.184  11.447  20.760  0.00  0.00    +0.000 NA
ATOM     23  C   UNL     1       0.372  12.321  19.776  0.00  0.00    +0.000 A 
ATOM     24  N   UNL     1      -0.116  13.583  19.948  0.00  0.00    +0.000 N 
ATOM     25  N   UNL     1       0.997  12.051  18.635  0.00  0.00    +0.000 NA
ATOM     26  C   UNL     1       1.451  10.794  18.525  0.00  0.00    +0.000 A 
ATOM     27  C   UNL     1       1.337   9.784  19.462  0.00  0.00    +0.000 A 
ATOM     28  N   UNL     1       1.827   8.510  19.318  0.00  0.00    +0.000 NA
ATOM     29  H   UNL     1      -0.551  13.802  20.827  0.00  0.00    +0.000 HD
ATOM     30  H   UNL     1       0.051  14.268  19.232  0.00  0.00    +0.000 HD
BRANCH  26  31
ATOM     31  O   UNL     1       2.081  10.573  17.334  0.00  0.00    +0.000 OA
ATOM     32  H   UNL     1       2.879  11.122  17.441  0.00  0.00    +0.000 HD
ENDBRANCH  26  31
ENDBRANCH  17  18
ENDBRANCH   1  17
TORSDOF 7
ENDMDL
MODEL 8
REMARK VINA RESULT:      -8.2      4.167      7.973
REMARK  Name = 
REMARK  7 active torsions:
REMARK  status: ('A' for Active; 'I' for Inactive)
REMARK    1  A    between atoms: C_3  and  C_4
REMARK    2  A    between atoms: C_3  and  C_26
REMARK    3  A    between atoms: C_7  and  C_8
REMARK    4  A    between atoms: C_8  and  O_10
REMARK    5  A    between atoms: O_10  and  C_11
REMARK    6  A    between atoms: C_11  and  C_12
REMARK    7  A    between atoms: C_20  and  O_21
REMARK                            x       y       z     vdW  Elec       q    Type
REMARK                         _______ _______ _______ _____ _____    ______ ____
ROOT
ATOM      1  O   UNL     1       3.276   2.444  19.504  0.00  0.00    +0.000 OA
ENDROOT
BRANCH   1   2
ATOM      2  C   UNL     1       2.017   2.889  19.298  0.00  0.00    +0.000 C 
ATOM      3  O   UNL     1       1.058   2.186  19.023  0.00  0.00    +0.000 OA
BRANCH   2   7
ATOM      4  C   UNL     1       1.643   7.144  19.782  0.00  0.00    +0.000 A 
ATOM      5  C   UNL     1       1.475   6.277  20.868  0.00  0.00    +0.000 A 
ATOM      6  C   UNL     1       1.609   4.898  20.684  0.00  0.00    +0.000 A 
ATOM      7  C   UNL     1       1.908   4.366  19.421  0.00  0.00    +0.000 A 
ATOM      8  C   UNL     1       2.082   5.237  18.339  0.00  0.00    +0.000 A 
ATOM      9  C   UNL     1       1.954   6.619  18.523  0.00  0.00    +0.000 A 
BRANCH   4  12
ATOM     10  N   UNL     1       1.368   9.531  22.257  0.00  0.00    +0.000 NA
ATOM     11  N   UNL     1       1.429   9.103  21.200  0.00  0.00    +0.000 NA
ATOM     12  C   UNL     1       1.499   8.596  19.986  0.00  0.00    +0.000 C 
BRANCH  12  13
ATOM     13  C   UNL     1       1.420   9.581  18.876  0.00  0.00    +0.000 C 
ATOM     14  F   UNL     1       0.386   9.368  18.023  0.00  0.00    +0.000 F 
ATOM     15  F   UNL     1       1.269  10.845  19.342  0.00  0.00    +0.000 F 
ATOM     16  F   UNL     1       2.548   9.572  18.123  0.00  0.00    +0.000 F 
ENDBRANCH  12  13
ENDBRANCH   4  12
ENDBRANCH   2   7
ENDBRANCH   1   2
BRANCH   1  17
ATOM     17  C   UNL     1       4.045   2.196  18.316  0.00  0.00    +0.000 C 
BRANCH  17  18
ATOM     18  C   UNL     1       4.800   3.436  17.923  0.00  0.00    +0.000 A 
ATOM     19  C   UNL     1       4.569   4.052  16.707  0.00  0.00    +0.000 A 
ATOM     20  N   UNL     1       5.214   5.179  16.318  0.00  0.00    +0.000 NA
ATOM     21  C   UNL     1       6.107   5.717  17.156  0.00  0.00    +0.000 A 
ATOM     22  N   UNL     1       6.721   6.834  16.764  0.00  0.00    +0.000 NA
ATOM     23  C   UNL     1       7.609   7.386  17.583  0.00  0.00    +0.000 A 
ATOM     24  N   UNL     1       8.230   8.528  17.168  0.00  0.00    +0.000 N 
ATOM     25  N   UNL     1       7.939   6.903  18.776  0.00  0.00    +0.000 NA
ATOM     26  C   UNL     1       7.297   5.780  19.126  0.00  0.00    +0.000 A 
ATOM     27  C   UNL     1       6.349   5.098  18.386  0.00  0.00    +0.000 A 
ATOM     28  N   UNL     1       5.703   3.955  18.783  0.00  0.00    +0.000 NA
ATOM     29  H   UNL     1       7.951   8.919  16.285  0.00  0.00    +0.000 HD
ATOM     30  H   UNL     1       8.875   8.982  17.790  0.00  0.00    +0.000 HD
BRANCH  26  31
ATOM     31  O   UNL     1       7.677   5.328  20.358  0.00  0.00    +0.000 OA
ATOM     32  H   UNL     1       6.834   4.977  20.696  0.00  0.00    +0.000 HD
ENDBRANCH  26  31
ENDBRANCH  17  18
ENDBRANCH   1  17
TORSDOF 7
ENDMDL
MODEL 9
REMARK VINA RESULT:      -8.2      1.811      2.325
REMARK  Name = 
REMARK  7 active torsions:
REMARK  status: ('A' for Active; 'I' for Inactive)
REMARK    1  A    between atoms: C_3  and  C_4
REMARK    2  A    between atoms: C_3  and  C_26
REMARK    3  A    between atoms: C_7  and  C_8
REMARK    4  A    between atoms: C_8  and  O_10
REMARK    5  A    between atoms: O_10  and  C_11
REMARK    6  A    between atoms: C_11  and  C_12
REMARK    7  A    between atoms: C_20  and  O_21
REMARK                            x       y       z     vdW  Elec       q    Type
REMARK                         _______ _______ _______ _____ _____    ______ ____
ROOT
ATOM      1  O   UNL     1       1.687   6.458  20.624  0.00  0.00    +0.000 OA
ENDROOT
BRANCH   1   2
ATOM      2  C   UNL     1       1.739   5.214  20.099  0.00  0.00    +0.000 C 
ATOM      3  O   UNL     1       0.954   4.312  20.346  0.00  0.00    +0.000 OA
BRANCH   2   7
ATOM      4  C   UNL     1       5.153   4.757  17.528  0.00  0.00    +0.000 A 
ATOM      5  C   UNL     1       5.301   5.177  18.855  0.00  0.00    +0.000 A 
ATOM      6  C   UNL     1       4.174   5.311  19.672  0.00  0.00    +0.000 A 
ATOM      7  C   UNL     1       2.891   5.032  19.178  0.00  0.00    +0.000 A 
ATOM      8  C   UNL     1       2.749   4.606  17.852  0.00  0.00    +0.000 A 
ATOM      9  C   UNL     1       3.877   4.466  17.035  0.00  0.00    +0.000 A 
BRANCH   4  12
ATOM     10  N   UNL     1       8.548   4.160  17.673  0.00  0.00    +0.000 NA
ATOM     11  N   UNL     1       7.529   4.373  17.204  0.00  0.00    +0.000 NA
ATOM     12  C   UNL     1       6.347   4.620  16.676  0.00  0.00    +0.000 C 
BRANCH  12  13
ATOM     13  C   UNL     1       6.323   4.749  15.195  0.00  0.00    +0.000 C 
ATOM     14  F   UNL     1       7.537   5.007  14.645  0.00  0.00    +0.000 F 
ATOM     15  F   UNL     1       5.875   3.614  14.604  0.00  0.00    +0.000 F 
ATOM     16  F   UNL     1       5.499   5.750  14.797  0.00  0.00    +0.000 F 
ENDBRANCH  12  13
ENDBRANCH   4  12
ENDBRANCH   2   7
ENDBRANCH   1   2
BRANCH   1  17
ATOM     17  C   UNL     1       1.974   7.527  19.708  0.00  0.00    +0.000 C 
BRANCH  17  18
ATOM     18  C   UNL     1       1.202   8.759  20.096  0.00  0.00    +0.000 A 
ATOM     19  C   UNL     1       0.896   9.729  19.160  0.00  0.00    +0.000 A 
ATOM     20  N   UNL     1       0.191  10.846  19.461  0.00  0.00    +0.000 NA
ATOM     21  C   UNL     1      -0.232  11.007  20.720  0.00  0.00    +0.000 A 
ATOM     22  N   UNL     1      -0.938  12.104  20.995  0.00  0.00    +0.000 NA
ATOM     23  C   UNL     1      -1.370  12.281  22.239  0.00  0.00    +0.000 A 
ATOM     24  N   UNL     1      -2.090  13.408  22.506  0.00  0.00    +0.000 N 
ATOM     25  N   UNL     1      -1.146  11.440  23.243  0.00  0.00    +0.000 NA
ATOM     26  C   UNL     1      -0.431  10.354  22.919  0.00  0.00    +0.000 A 
ATOM     27  C   UNL     1       0.076  10.033  21.674  0.00  0.00    +0.000 A 
ATOM     28  N   UNL     1       0.794   8.902  21.377  0.00  0.00    +0.000 NA
ATOM     29  H   UNL     1      -2.298  14.025  21.739  0.00  0.00    +0.000 HD
ATOM     30  H   UNL     1      -2.459  13.540  23.431  0.00  0.00    +0.000 HD
BRANCH  26  31
ATOM     31  O   UNL     1      -0.230   9.527  23.988  0.00  0.00    +0.000 OA
ATOM     32  H   UNL     1       0.738   9.430  23.969  0.00  0.00    +0.000 HD
ENDBRANCH  26  31
ENDBRANCH  17  18
ENDBRANCH   1  17
TORSDOF 7
ENDMDL
