MODEL 1
REMARK VINA RESULT:      -8.6      0.000      0.000
REMARK  Name = 
REMARK  6 active torsions:
REMARK  status: ('A' for Active; 'I' for Inactive)
REMARK    1  A    between atoms: C_1  and  N_2
REMARK    2  A    between atoms: N_2  and  C_3
REMARK    3  A    between atoms: N_2  and  C_4
REMARK    4  A    between atoms: C_7  and  C_8
REMARK    5  A    between atoms: N_9  and  N_10
REMARK    6  A    between atoms: C_11  and  C_12
REMARK                            x       y       z     vdW  Elec       q    Type
REMARK                         _______ _______ _______ _____ _____    ______ ____
ROOT
ATOM      1  N   UNL     1       0.483  10.250  20.996  0.00  0.00    +0.000 N 
ATOM      2  C   UNL     1       0.085  11.349  20.246  0.00  0.00    +0.000 A 
ATOM      3  N   UNL     1       0.343  12.546  20.739  0.00  0.00    +0.000 NA
ATOM      4  C   UNL     1      -0.291  12.692  22.001  0.00  0.00    +0.000 A 
ATOM      5  C   UNL     1      -0.768  13.950  22.370  0.00  0.00    +0.000 A 
ATOM      6  C   UNL     1      -1.960  14.037  23.077  0.00  0.00    +0.000 A 
ATOM      7 CL   UNL     1      -2.628  15.563  23.488  0.00  0.00    +0.000 Cl
ATOM      8  C   UNL     1      -2.678  12.864  23.374  0.00  0.00    +0.000 A 
ATOM      9  C   UNL     1      -2.085  11.605  23.173  0.00  0.00    +0.000 A 
ATOM     10  C   UNL     1      -0.816  11.532  22.598  0.00  0.00    +0.000 A 
ATOM     11  C   UNL     1      -0.125  10.230  22.252  0.00  0.00    +0.000 A 
ATOM     12  O   UNL     1      -0.212   9.290  23.030  0.00  0.00    +0.000 OA
ENDROOT
BRANCH   2  13
ATOM     13  C   UNL     1      -1.221  11.095  19.476  0.00  0.00    +0.000 A 
ATOM     14  C   UNL     1      -1.240  10.108  18.477  0.00  0.00    +0.000 A 
ATOM     15  C   UNL     1      -2.315  10.021  17.589  0.00  0.00    +0.000 A 
ATOM     16  C   UNL     1      -3.394  10.896  17.697  0.00  0.00    +0.000 A 
ATOM     17  C   UNL     1      -3.379  11.897  18.658  0.00  0.00    +0.000 A 
ATOM     18  C   UNL     1      -2.294  12.002  19.525  0.00  0.00    +0.000 A 
ENDBRANCH   2  13
BRANCH   1  20
ATOM     19  C   UNL     1       1.477   8.102  20.844  0.00  0.00    +0.000 C 
ATOM     20  N   UNL     1       1.009   9.171  20.275  0.00  0.00    +0.000 NA
BRANCH  19  24
ATOM     21  C   UNL     1       2.910   4.698  18.458  0.00  0.00    +0.000 A 
ATOM     22  C   UNL     1       2.318   4.528  19.710  0.00  0.00    +0.000 A 
ATOM     23  C   UNL     1       1.854   5.621  20.498  0.00  0.00    +0.000 A 
ATOM     24  C   UNL     1       1.963   6.928  20.030  0.00  0.00    +0.000 A 
ATOM     25  C   UNL     1       2.531   7.127  18.772  0.00  0.00    +0.000 A 
ATOM     26  C   UNL     1       2.992   6.028  18.001  0.00  0.00    +0.000 A 
BRANCH  21  28
ATOM     27  C   UNL     1       2.857   2.264  17.901  0.00  0.00    +0.000 C 
ATOM     28  N   UNL     1       3.371   3.617  17.688  0.00  0.00    +0.000 N 
ATOM     29  C   UNL     1       4.620   3.728  16.940  0.00  0.00    +0.000 C 
ENDBRANCH  21  28
ENDBRANCH  19  24
ENDBRANCH   1  20
TORSDOF 4
ENDMDL
MODEL 2
REMARK VINA RESULT:      -8.2      0.254      1.281
REMARK  Name = 
REMARK  6 active torsions:
REMARK  status: ('A' for Active; 'I' for Inactive)
REMARK    1  A    between atoms: C_1  and  N_2
REMARK    2  A    between atoms: N_2  and  C_3
REMARK    3  A    between atoms: N_2  and  C_4
REMARK    4  A    between atoms: C_7  and  C_8
REMARK    5  A    between atoms: N_9  and  N_10
REMARK    6  A    between atoms: C_11  and  C_12
REMARK                            x       y       z     vdW  Elec       q    Type
REMARK                         _______ _______ _______ _____ _____    ______ ____
ROOT
ATOM      1  N   UNL     1       0.468  10.302  21.097  0.00  0.00    +0.000 N 
ATOM      2  C   UNL     1       0.219  11.483  20.412  0.00  0.00    +0.000 A 
ATOM      3  N   UNL     1       0.467  12.615  21.043  0.00  0.00    +0.000 NA
ATOM      4  C   UNL     1      -0.312  12.686  22.228  0.00  0.00    +0.000 A 
ATOM      5  C   UNL     1      -0.774  13.932  22.653  0.00  0.00    +0.000 A 
ATOM      6  C   UNL     1      -2.039  14.024  23.216  0.00  0.00    +0.000 A 
ATOM      7 CL   UNL     1      -2.682  15.544  23.686  0.00  0.00    +0.000 Cl
ATOM      8  C   UNL     1      -2.843  12.873  23.311  0.00  0.00    +0.000 A 
ATOM      9  C   UNL     1      -2.288  11.604  23.066  0.00  0.00    +0.000 A 
ATOM     10  C   UNL     1      -0.961  11.510  22.644  0.00  0.00    +0.000 A 
ATOM     11  C   UNL     1      -0.293  10.206  22.263  0.00  0.00    +0.000 A 
ATOM     12  O   UNL     1      -0.521   9.207  22.931  0.00  0.00    +0.000 OA
ENDROOT
BRANCH   2  13
ATOM     13  C   UNL     1      -0.991  11.374  19.469  0.00  0.00    +0.000 A 
ATOM     14  C   UNL     1      -2.058  12.274  19.626  0.00  0.00    +0.000 A 
ATOM     15  C   UNL     1      -3.272  12.052  18.970  0.00  0.00    +0.000 A 
ATOM     16  C   UNL     1      -3.433  10.950  18.133  0.00  0.00    +0.000 A 
ATOM     17  C   UNL     1      -2.400  10.034  17.990  0.00  0.00    +0.000 A 
ATOM     18  C   UNL     1      -1.200  10.239  18.666  0.00  0.00    +0.000 A 
ENDBRANCH   2  13
BRANCH   1  20
ATOM     19  C   UNL     1       1.451   8.154  20.876  0.00  0.00    +0.000 C 
ATOM     20  N   UNL     1       1.030   9.262  20.346  0.00  0.00    +0.000 NA
BRANCH  19  24
ATOM     21  C   UNL     1       2.965   4.849  18.403  0.00  0.00    +0.000 A 
ATOM     22  C   UNL     1       3.087   6.183  18.012  0.00  0.00    +0.000 A 
ATOM     23  C   UNL     1       2.597   7.265  18.800  0.00  0.00    +0.000 A 
ATOM     24  C   UNL     1       1.977   7.025  20.024  0.00  0.00    +0.000 A 
ATOM     25  C   UNL     1       1.859   5.703  20.450  0.00  0.00    +0.000 A 
ATOM     26  C   UNL     1       2.349   4.637  19.653  0.00  0.00    +0.000 A 
BRANCH  21  28
ATOM     27  C   UNL     1       3.131   2.398  17.952  0.00  0.00    +0.000 C 
ATOM     28  N   UNL     1       3.446   3.786  17.620  0.00  0.00    +0.000 N 
ATOM     29  C   UNL     1       4.562   3.998  16.703  0.00  0.00    +0.000 C 
ENDBRANCH  21  28
ENDBRANCH  19  24
ENDBRANCH   1  20
TORSDOF 4
ENDMDL
MODEL 3
REMARK VINA RESULT:      -8.2      0.270      1.137
REMARK  Name = 
REMARK  6 active torsions:
REMARK  status: ('A' for Active; 'I' for Inactive)
REMARK    1  A    between atoms: C_1  and  N_2
REMARK    2  A    between atoms: N_2  and  C_3
REMARK    3  A    between atoms: N_2  and  C_4
REMARK    4  A    between atoms: C_7  and  C_8
REMARK    5  A    between atoms: N_9  and  N_10
REMARK    6  A    between atoms: C_11  and  C_12
REMARK                            x       y       z     vdW  Elec       q    Type
REMARK                         _______ _______ _______ _____ _____    ______ ____
ROOT
ATOM      1  N   UNL     1       0.445  10.329  21.130  0.00  0.00    +0.000 N 
ATOM      2  C   UNL     1       0.236  11.502  20.418  0.00  0.00    +0.000 A 
ATOM      3  N   UNL     1       0.507  12.640  21.029  0.00  0.00    +0.000 NA
ATOM      4  C   UNL     1      -0.285  12.756  22.202  0.00  0.00    +0.000 A 
ATOM      5  C   UNL     1      -0.718  14.022  22.596  0.00  0.00    +0.000 A 
ATOM      6  C   UNL     1      -1.988  14.159  23.140  0.00  0.00    +0.000 A 
ATOM      7 CL   UNL     1      -2.596  15.705  23.570  0.00  0.00    +0.000 Cl
ATOM      8  C   UNL     1      -2.823  13.032  23.249  0.00  0.00    +0.000 A 
ATOM      9  C   UNL     1      -2.299  11.744  23.037  0.00  0.00    +0.000 A 
ATOM     10  C   UNL     1      -0.970  11.607  22.634  0.00  0.00    +0.000 A 
ATOM     11  C   UNL     1      -0.332  10.278  22.288  0.00  0.00    +0.000 A 
ATOM     12  O   UNL     1      -0.594   9.299  22.974  0.00  0.00    +0.000 OA
ENDROOT
BRANCH   2  13
ATOM     13  C   UNL     1      -0.964  11.405  19.462  0.00  0.00    +0.000 A 
ATOM     14  C   UNL     1      -2.021  12.319  19.604  0.00  0.00    +0.000 A 
ATOM     15  C   UNL     1      -3.230  12.111  18.936  0.00  0.00    +0.000 A 
ATOM     16  C   UNL     1      -3.396  11.008  18.100  0.00  0.00    +0.000 A 
ATOM     17  C   UNL     1      -2.373  10.079  17.972  0.00  0.00    +0.000 A 
ATOM     18  C   UNL     1      -1.178  10.271  18.660  0.00  0.00    +0.000 A 
ENDBRANCH   2  13
BRANCH   1  20
ATOM     19  C   UNL     1       1.407   8.166  20.971  0.00  0.00    +0.000 C 
ATOM     20  N   UNL     1       0.989   9.259  20.408  0.00  0.00    +0.000 NA
BRANCH  19  24
ATOM     21  C   UNL     1       2.901   4.800  18.568  0.00  0.00    +0.000 A 
ATOM     22  C   UNL     1       2.266   4.610  19.797  0.00  0.00    +0.000 A 
ATOM     23  C   UNL     1       1.781   5.690  20.589  0.00  0.00    +0.000 A 
ATOM     24  C   UNL     1       1.913   7.005  20.150  0.00  0.00    +0.000 A 
ATOM     25  C   UNL     1       2.525   7.225  18.917  0.00  0.00    +0.000 A 
ATOM     26  C   UNL     1       3.005   6.138  18.141  0.00  0.00    +0.000 A 
BRANCH  21  28
ATOM     27  C   UNL     1       4.349   3.949  16.720  0.00  0.00    +0.000 C 
ATOM     28  N   UNL     1       3.381   3.731  17.794  0.00  0.00    +0.000 N 
ATOM     29  C   UNL     1       2.664   2.460  17.774  0.00  0.00    +0.000 C 
ENDBRANCH  21  28
ENDBRANCH  19  24
ENDBRANCH   1  20
TORSDOF 4
ENDMDL
MODEL 4
REMARK VINA RESULT:      -8.1      0.991      1.125
REMARK  Name = 
REMARK  6 active torsions:
REMARK  status: ('A' for Active; 'I' for Inactive)
REMARK    1  A    between atoms: C_1  and  N_2
REMARK    2  A    between atoms: N_2  and  C_3
REMARK    3  A    between atoms: N_2  and  C_4
REMARK    4  A    between atoms: C_7  and  C_8
REMARK    5  A    between atoms: N_9  and  N_10
REMARK    6  A    between atoms: C_11  and  C_12
REMARK                            x       y       z     vdW  Elec       q    Type
REMARK                         _______ _______ _______ _____ _____    ______ ____
ROOT
ATOM      1  N   UNL     1       0.270  11.189  21.076  0.00  0.00    +0.000 N 
ATOM      2  C   UNL     1      -0.402  12.126  20.304  0.00  0.00    +0.000 A 
ATOM      3  N   UNL     1      -0.444  13.366  20.756  0.00  0.00    +0.000 NA
ATOM      4  C   UNL     1      -1.073  13.394  22.029  0.00  0.00    +0.000 A 
ATOM      5  C   UNL     1      -1.843  14.504  22.372  0.00  0.00    +0.000 A 
ATOM      6  C   UNL     1      -3.006  14.315  23.106  0.00  0.00    +0.000 A 
ATOM      7 CL   UNL     1      -4.028  15.639  23.488  0.00  0.00    +0.000 Cl
ATOM      8  C   UNL     1      -3.404  13.011  23.454  0.00  0.00    +0.000 A 
ATOM      9  C   UNL     1      -2.518  11.934  23.276  0.00  0.00    +0.000 A 
ATOM     10  C   UNL     1      -1.280  12.161  22.672  0.00  0.00    +0.000 A 
ATOM     11  C   UNL     1      -0.291  11.061  22.347  0.00  0.00    +0.000 A 
ATOM     12  O   UNL     1      -0.128  10.156  23.153  0.00  0.00    +0.000 OA
ENDROOT
BRANCH   2  13
ATOM     13  C   UNL     1      -1.616  11.528  19.575  0.00  0.00    +0.000 A 
ATOM     14  C   UNL     1      -1.415  10.461  18.684  0.00  0.00    +0.000 A 
ATOM     15  C   UNL     1      -2.435  10.061  17.817  0.00  0.00    +0.000 A 
ATOM     16  C   UNL     1      -3.674  10.699  17.843  0.00  0.00    +0.000 A 
ATOM     17  C   UNL     1      -3.881  11.774  18.695  0.00  0.00    +0.000 A 
ATOM     18  C   UNL     1      -2.854  12.192  19.538  0.00  0.00    +0.000 A 
ENDBRANCH   2  13
BRANCH   1  20
ATOM     19  C   UNL     1       1.016   8.979  20.638  0.00  0.00    +0.000 C 
ATOM     20  N   UNL     1       1.038  10.250  20.374  0.00  0.00    +0.000 NA
BRANCH  19  24
ATOM     21  C   UNL     1       3.305   6.123  18.202  0.00  0.00    +0.000 A 
ATOM     22  C   UNL     1       2.820   5.794  19.468  0.00  0.00    +0.000 A 
ATOM     23  C   UNL     1       2.081   6.710  20.272  0.00  0.00    +0.000 A 
ATOM     24  C   UNL     1       1.797   7.991  19.807  0.00  0.00    +0.000 A 
ATOM     25  C   UNL     1       2.252   8.341  18.536  0.00  0.00    +0.000 A 
ATOM     26  C   UNL     1       2.989   7.419  17.749  0.00  0.00    +0.000 A 
BRANCH  21  28
ATOM     27  C   UNL     1       4.048   3.787  17.722  0.00  0.00    +0.000 C 
ATOM     28  N   UNL     1       4.037   5.217  17.417  0.00  0.00    +0.000 N 
ATOM     29  C   UNL     1       5.092   5.700  16.530  0.00  0.00    +0.000 C 
ENDBRANCH  21  28
ENDBRANCH  19  24
ENDBRANCH   1  20
TORSDOF 4
ENDMDL
MODEL 5
REMARK VINA RESULT:      -8.0      1.724      2.249
REMARK  Name = 
REMARK  6 active torsions:
REMARK  status: ('A' for Active; 'I' for Inactive)
REMARK    1  A    between atoms: C_1  and  N_2
REMARK    2  A    between atoms: N_2  and  C_3
REMARK    3  A    between atoms: N_2  and  C_4
REMARK    4  A    between atoms: C_7  and  C_8
REMARK    5  A    between atoms: N_9  and  N_10
REMARK    6  A    between atoms: C_11  and  C_12
REMARK                            x       y       z     vdW  Elec       q    Type
REMARK                         _______ _______ _______ _____ _____    ______ ____
ROOT
ATOM      1  N   UNL     1       0.664  10.658  20.047  0.00  0.00    +0.000 N 
ATOM      2  C   UNL     1       0.304  11.244  18.841  0.00  0.00    +0.000 A 
ATOM      3  N   UNL     1       0.811  12.433  18.569  0.00  0.00    +0.000 NA
ATOM      4  C   UNL     1       0.431  13.359  19.576  0.00  0.00    +0.000 A 
ATOM      5  C   UNL     1       0.208  14.688  19.215  0.00  0.00    +0.000 A 
ATOM      6  C   UNL     1      -0.820  15.389  19.831  0.00  0.00    +0.000 A 
ATOM      7 CL   UNL     1      -1.183  17.001  19.369  0.00  0.00    +0.000 Cl
ATOM      8  C   UNL     1      -1.636  14.739  20.774  0.00  0.00    +0.000 A 
ATOM      9  C   UNL     1      -1.272  13.473  21.268  0.00  0.00    +0.000 A 
ATOM     10  C   UNL     1      -0.143  12.837  20.749  0.00  0.00    +0.000 A 
ATOM     11  C   UNL     1       0.285  11.439  21.139  0.00  0.00    +0.000 A 
ATOM     12  O   UNL     1       0.200  11.099  22.311  0.00  0.00    +0.000 OA
ENDROOT
BRANCH   2  13
ATOM     13  C   UNL     1      -1.138  10.906  18.428  0.00  0.00    +0.000 A 
ATOM     14  C   UNL     1      -1.356   9.851  17.527  0.00  0.00    +0.000 A 
ATOM     15  C   UNL     1      -2.609   9.676  16.933  0.00  0.00    +0.000 A 
ATOM     16  C   UNL     1      -3.665  10.530  17.245  0.00  0.00    +0.000 A 
ATOM     17  C   UNL     1      -3.459  11.596  18.110  0.00  0.00    +0.000 A 
ATOM     18  C   UNL     1      -2.203  11.787  18.680  0.00  0.00    +0.000 A 
ENDBRANCH   2  13
BRANCH   1  20
ATOM     19  C   UNL     1       1.828   8.736  19.283  0.00  0.00    +0.000 C 
ATOM     20  N   UNL     1       0.900   9.277  20.013  0.00  0.00    +0.000 NA
BRANCH  19  24
ATOM     21  C   UNL     1       2.605   4.412  19.455  0.00  0.00    +0.000 A 
ATOM     22  C   UNL     1       2.898   5.173  18.323  0.00  0.00    +0.000 A 
ATOM     23  C   UNL     1       2.648   6.574  18.250  0.00  0.00    +0.000 A 
ATOM     24  C   UNL     1       2.102   7.253  19.336  0.00  0.00    +0.000 A 
ATOM     25  C   UNL     1       1.817   6.522  20.489  0.00  0.00    +0.000 A 
ATOM     26  C   UNL     1       2.070   5.127  20.544  0.00  0.00    +0.000 A 
BRANCH  21  28
ATOM     27  C   UNL     1       4.192   2.511  19.779  0.00  0.00    +0.000 C 
ATOM     28  N   UNL     1       2.850   3.030  19.519  0.00  0.00    +0.000 N 
ATOM     29  C   UNL     1       1.885   2.087  18.961  0.00  0.00    +0.000 C 
ENDBRANCH  21  28
ENDBRANCH  19  24
ENDBRANCH   1  20
TORSDOF 4
ENDMDL
MODEL 6
REMARK VINA RESULT:      -7.8      1.105      1.143
REMARK  Name = 
REMARK  6 active torsions:
REMARK  status: ('A' for Active; 'I' for Inactive)
REMARK    1  A    between atoms: C_1  and  N_2
REMARK    2  A    between atoms: N_2  and  C_3
REMARK    3  A    between atoms: N_2  and  C_4
REMARK    4  A    between atoms: C_7  and  C_8
REMARK    5  A    between atoms: N_9  and  N_10
REMARK    6  A    between atoms: C_11  and  C_12
REMARK                            x       y       z     vdW  Elec       q    Type
REMARK                         _______ _______ _______ _____ _____    ______ ____
ROOT
ATOM      1  N   UNL     1       0.408  11.050  20.329  0.00  0.00    +0.000 N 
ATOM      2  C   UNL     1      -0.218  11.859  19.391  0.00  0.00    +0.000 A 
ATOM      3  N   UNL     1      -0.080  13.164  19.527  0.00  0.00    +0.000 NA
ATOM      4  C   UNL     1      -0.589  13.573  20.788  0.00  0.00    +0.000 A 
ATOM      5  C   UNL     1      -1.196  14.824  20.892  0.00  0.00    +0.000 A 
ATOM      6  C   UNL     1      -2.306  14.967  21.715  0.00  0.00    +0.000 A 
ATOM      7 CL   UNL     1      -3.134  16.467  21.819  0.00  0.00    +0.000 Cl
ATOM      8  C   UNL     1      -2.816  13.846  22.394  0.00  0.00    +0.000 A 
ATOM      9  C   UNL     1      -2.076  12.650  22.434  0.00  0.00    +0.000 A 
ATOM     10  C   UNL     1      -0.879  12.565  21.724  0.00  0.00    +0.000 A 
ATOM     11  C   UNL     1      -0.052  11.300  21.622  0.00  0.00    +0.000 A 
ATOM     12  O   UNL     1       0.077  10.597  22.615  0.00  0.00    +0.000 OA
ENDROOT
BRANCH   2  13
ATOM     13  C   UNL     1      -1.551  11.269  18.900  0.00  0.00    +0.000 A 
ATOM     14  C   UNL     1      -1.527  10.145  18.058  0.00  0.00    +0.000 A 
ATOM     15  C   UNL     1      -2.684   9.738  17.390  0.00  0.00    +0.000 A 
ATOM     16  C   UNL     1      -3.883  10.426  17.568  0.00  0.00    +0.000 A 
ATOM     17  C   UNL     1      -3.918  11.557  18.371  0.00  0.00    +0.000 A 
ATOM     18  C   UNL     1      -2.758  11.980  19.015  0.00  0.00    +0.000 A 
ENDBRANCH   2  13
BRANCH   1  20
ATOM     19  C   UNL     1       1.234   8.839  20.576  0.00  0.00    +0.000 C 
ATOM     20  N   UNL     1       1.001   9.880  19.835  0.00  0.00    +0.000 NA
BRANCH  19  24
ATOM     21  C   UNL     1       2.906   5.157  18.849  0.00  0.00    +0.000 A 
ATOM     22  C   UNL     1       2.276   5.172  20.095  0.00  0.00    +0.000 A 
ATOM     23  C   UNL     1       1.734   6.358  20.670  0.00  0.00    +0.000 A 
ATOM     24  C   UNL     1       1.801   7.570  19.988  0.00  0.00    +0.000 A 
ATOM     25  C   UNL     1       2.406   7.581  18.732  0.00  0.00    +0.000 A 
ATOM     26  C   UNL     1       2.944   6.393  18.174  0.00  0.00    +0.000 A 
BRANCH  21  28
ATOM     27  C   UNL     1       2.741   3.264  17.229  0.00  0.00    +0.000 C 
ATOM     28  N   UNL     1       3.442   3.986  18.290  0.00  0.00    +0.000 N 
ATOM     29  C   UNL     1       4.492   3.252  18.991  0.00  0.00    +0.000 C 
ENDBRANCH  21  28
ENDBRANCH  19  24
ENDBRANCH   1  20
TORSDOF 4
ENDMDL
MODEL 7
REMARK VINA RESULT:      -7.7      0.926      1.372
REMARK  Name = 
REMARK  6 active torsions:
REMARK  status: ('A' for Active; 'I' for Inactive)
REMARK    1  A    between atoms: C_1  and  N_2
REMARK    2  A    between atoms: N_2  and  C_3
REMARK    3  A    between atoms: N_2  and  C_4
REMARK    4  A    between atoms: C_7  and  C_8
REMARK    5  A    between atoms: N_9  and  N_10
REMARK    6  A    between atoms: C_11  and  C_12
REMARK                            x       y       z     vdW  Elec       q    Type
REMARK                         _______ _______ _______ _____ _____    ______ ____
ROOT
ATOM      1  N   UNL     1       0.404  10.906  21.473  0.00  0.00    +0.000 N 
ATOM      2  C   UNL     1       0.032  12.081  20.834  0.00  0.00    +0.000 A 
ATOM      3  N   UNL     1       0.082  13.196  21.539  0.00  0.00    +0.000 NA
ATOM      4  C   UNL     1      -0.768  13.088  22.671  0.00  0.00    +0.000 A 
ATOM      5  C   UNL     1      -1.424  14.231  23.129  0.00  0.00    +0.000 A 
ATOM      6  C   UNL     1      -2.721  14.115  23.610  0.00  0.00    +0.000 A 
ATOM      7 CL   UNL     1      -3.597  15.501  24.114  0.00  0.00    +0.000 Cl
ATOM      8  C   UNL     1      -3.359  12.861  23.592  0.00  0.00    +0.000 A 
ATOM      9  C   UNL     1      -2.618  11.698  23.319  0.00  0.00    +0.000 A 
ATOM     10  C   UNL     1      -1.269  11.812  22.982  0.00  0.00    +0.000 A 
ATOM     11  C   UNL     1      -0.403  10.636  22.579  0.00  0.00    +0.000 A 
ATOM     12  O   UNL     1      -0.527   9.577  23.178  0.00  0.00    +0.000 OA
ENDROOT
BRANCH   2  13
ATOM     13  C   UNL     1      -1.093  11.864  19.809  0.00  0.00    +0.000 A 
ATOM     14  C   UNL     1      -2.289  12.587  19.950  0.00  0.00    +0.000 A 
ATOM     15  C   UNL     1      -3.418  12.238  19.204  0.00  0.00    +0.000 A 
ATOM     16  C   UNL     1      -3.365  11.186  18.291  0.00  0.00    +0.000 A 
ATOM     17  C   UNL     1      -2.201  10.442  18.160  0.00  0.00    +0.000 A 
ATOM     18  C   UNL     1      -1.085  10.771  18.925  0.00  0.00    +0.000 A 
ENDBRANCH   2  13
BRANCH   1  20
ATOM     19  C   UNL     1       1.038   8.712  20.829  0.00  0.00    +0.000 C 
ATOM     20  N   UNL     1       1.150  10.000  20.708  0.00  0.00    +0.000 NA
BRANCH  19  24
ATOM     21  C   UNL     1       3.274   5.989  18.200  0.00  0.00    +0.000 A 
ATOM     22  C   UNL     1       2.818   5.594  19.459  0.00  0.00    +0.000 A 
ATOM     23  C   UNL     1       2.096   6.467  20.324  0.00  0.00    +0.000 A 
ATOM     24  C   UNL     1       1.801   7.769  19.931  0.00  0.00    +0.000 A 
ATOM     25  C   UNL     1       2.226   8.184  18.670  0.00  0.00    +0.000 A 
ATOM     26  C   UNL     1       2.946   7.305  17.821  0.00  0.00    +0.000 A 
BRANCH  21  28
ATOM     27  C   UNL     1       4.027   3.684  17.599  0.00  0.00    +0.000 C 
ATOM     28  N   UNL     1       3.989   5.125  17.353  0.00  0.00    +0.000 N 
ATOM     29  C   UNL     1       5.008   5.658  16.453  0.00  0.00    +0.000 C 
ENDBRANCH  21  28
ENDBRANCH  19  24
ENDBRANCH   1  20
TORSDOF 4
ENDMDL
MODEL 8
REMARK VINA RESULT:      -7.7      1.514      1.791
REMARK  Name = 
REMARK  6 active torsions:
REMARK  status: ('A' for Active; 'I' for Inactive)
REMARK    1  A    between atoms: C_1  and  N_2
REMARK    2  A    between atoms: N_2  and  C_3
REMARK    3  A    between atoms: N_2  and  C_4
REMARK    4  A    between atoms: C_7  and  C_8
REMARK    5  A    between atoms: N_9  and  N_10
REMARK    6  A    between atoms: C_11  and  C_12
REMARK                            x       y       z     vdW  Elec       q    Type
REMARK                         _______ _______ _______ _____ _____    ______ ____
ROOT
ATOM      1  N   UNL     1       0.871  10.688  19.689  0.00  0.00    +0.000 N 
ATOM      2  C   UNL     1       0.252  11.466  18.720  0.00  0.00    +0.000 A 
ATOM      3  N   UNL     1       0.541  12.754  18.699  0.00  0.00    +0.000 NA
ATOM      4  C   UNL     1       0.197  13.344  19.944  0.00  0.00    +0.000 A 
ATOM      5  C   UNL     1      -0.260  14.662  19.957  0.00  0.00    +0.000 A 
ATOM      6  C   UNL     1      -1.267  15.016  20.845  0.00  0.00    +0.000 A 
ATOM      7 CL   UNL     1      -1.916  16.604  20.848  0.00  0.00    +0.000 Cl
ATOM      8  C   UNL     1      -1.831  14.036  21.682  0.00  0.00    +0.000 A 
ATOM      9  C   UNL     1      -1.223  12.773  21.796  0.00  0.00    +0.000 A 
ATOM     10  C   UNL     1      -0.112  12.476  21.006  0.00  0.00    +0.000 A 
ATOM     11  C   UNL     1       0.561  11.120  20.979  0.00  0.00    +0.000 A 
ATOM     12  O   UNL     1       0.705  10.511  22.030  0.00  0.00    +0.000 OA
ENDROOT
BRANCH   2  13
ATOM     13  C   UNL     1      -1.176  10.990  18.406  0.00  0.00    +0.000 A 
ATOM     14  C   UNL     1      -1.351   9.886  17.555  0.00  0.00    +0.000 A 
ATOM     15  C   UNL     1      -2.615   9.581  17.043  0.00  0.00    +0.000 A 
ATOM     16  C   UNL     1      -3.723  10.353  17.388  0.00  0.00    +0.000 A 
ATOM     17  C   UNL     1      -3.563  11.466  18.203  0.00  0.00    +0.000 A 
ATOM     18  C   UNL     1      -2.298  11.786  18.690  0.00  0.00    +0.000 A 
ENDBRANCH   2  13
BRANCH   1  20
ATOM     19  C   UNL     1       2.241   9.223  18.422  0.00  0.00    +0.000 C 
ATOM     20  N   UNL     1       1.287   9.414  19.282  0.00  0.00    +0.000 NA
BRANCH  19  24
ATOM     21  C   UNL     1       3.644   5.184  17.396  0.00  0.00    +0.000 A 
ATOM     22  C   UNL     1       2.462   5.400  18.106  0.00  0.00    +0.000 A 
ATOM     23  C   UNL     1       1.996   6.702  18.451  0.00  0.00    +0.000 A 
ATOM     24  C   UNL     1       2.713   7.834  18.070  0.00  0.00    +0.000 A 
ATOM     25  C   UNL     1       3.888   7.650  17.341  0.00  0.00    +0.000 A 
ATOM     26  C   UNL     1       4.339   6.347  17.009  0.00  0.00    +0.000 A 
BRANCH  21  28
ATOM     27  C   UNL     1       3.628   2.718  17.787  0.00  0.00    +0.000 C 
ATOM     28  N   UNL     1       4.099   3.898  17.063  0.00  0.00    +0.000 N 
ATOM     29  C   UNL     1       5.314   3.732  16.269  0.00  0.00    +0.000 C 
ENDBRANCH  21  28
ENDBRANCH  19  24
ENDBRANCH   1  20
TORSDOF 4
ENDMDL
MODEL 9
REMARK VINA RESULT:      -7.7      2.082      3.355
REMARK  Name = 
REMARK  6 active torsions:
REMARK  status: ('A' for Active; 'I' for Inactive)
REMARK    1  A    between atoms: C_1  and  N_2
REMARK    2  A    between atoms: N_2  and  C_3
REMARK    3  A    between atoms: N_2  and  C_4
REMARK    4  A    between atoms: C_7  and  C_8
REMARK    5  A    between atoms: N_9  and  N_10
REMARK    6  A    between atoms: C_11  and  C_12
REMARK                            x       y       z     vdW  Elec       q    Type
REMARK                         _______ _______ _______ _____ _____    ______ ____
ROOT
ATOM      1  N   UNL     1       0.434  10.089  19.960  0.00  0.00    +0.000 N 
ATOM      2  C   UNL     1       0.910  11.034  20.858  0.00  0.00    +0.000 A 
ATOM      3  N   UNL     1       0.218  11.219  21.967  0.00  0.00    +0.000 NA
ATOM      4  C   UNL     1      -1.104  11.626  21.646  0.00  0.00    +0.000 A 
ATOM      5  C   UNL     1      -1.759  12.513  22.500  0.00  0.00    +0.000 A 
ATOM      6  C   UNL     1      -2.582  13.489  21.953  0.00  0.00    +0.000 A 
ATOM      7 CL   UNL     1      -3.349  14.651  22.955  0.00  0.00    +0.000 Cl
ATOM      8  C   UNL     1      -2.710  13.586  20.556  0.00  0.00    +0.000 A 
ATOM      9  C   UNL     1      -2.208  12.565  19.729  0.00  0.00    +0.000 A 
ATOM     10  C   UNL     1      -1.508  11.504  20.305  0.00  0.00    +0.000 A 
ATOM     11  C   UNL     1      -0.846  10.403  19.503  0.00  0.00    +0.000 A 
ATOM     12  O   UNL     1      -1.427   9.952  18.526  0.00  0.00    +0.000 OA
ENDROOT
BRANCH   2  13
ATOM     13  C   UNL     1       1.584  12.226  20.159  0.00  0.00    +0.000 A 
ATOM     14  C   UNL     1       1.660  13.455  20.835  0.00  0.00    +0.000 A 
ATOM     15  C   UNL     1       2.026  14.616  20.150  0.00  0.00    +0.000 A 
ATOM     16  C   UNL     1       2.346  14.567  18.795  0.00  0.00    +0.000 A 
ATOM     17  C   UNL     1       2.247  13.367  18.104  0.00  0.00    +0.000 A 
ATOM     18  C   UNL     1       1.853  12.215  18.780  0.00  0.00    +0.000 A 
ENDBRANCH   2  13
BRANCH   1  20
ATOM     19  C   UNL     1       1.735   8.114  19.765  0.00  0.00    +0.000 C 
ATOM     20  N   UNL     1       1.402   9.293  19.333  0.00  0.00    +0.000 NA
BRANCH  19  24
ATOM     21  C   UNL     1       4.607   5.589  17.595  0.00  0.00    +0.000 A 
ATOM     22  C   UNL     1       4.240   6.855  17.136  0.00  0.00    +0.000 A 
ATOM     23  C   UNL     1       3.307   7.684  17.825  0.00  0.00    +0.000 A 
ATOM     24  C   UNL     1       2.725   7.256  19.016  0.00  0.00    +0.000 A 
ATOM     25  C   UNL     1       3.090   6.003  19.509  0.00  0.00    +0.000 A 
ATOM     26  C   UNL     1       4.018   5.190  18.810  0.00  0.00    +0.000 A 
BRANCH  21  28
ATOM     27  C   UNL     1       6.919   4.679  17.338  0.00  0.00    +0.000 C 
ATOM     28  N   UNL     1       5.524   4.776  16.908  0.00  0.00    +0.000 N 
ATOM     29  C   UNL     1       5.227   4.317  15.554  0.00  0.00    +0.000 C 
ENDBRANCH  21  28
ENDBRANCH  19  24
ENDBRANCH   1  20
TORSDOF 4
ENDMDL
