MODEL 1
REMARK VINA RESULT:      -7.4      0.000      0.000
REMARK  Name = 
REMARK  11 active torsions:
REMARK  status: ('A' for Active; 'I' for Inactive)
REMARK    1  A    between atoms: C_1  and  O_2
REMARK    2  A    between atoms: O_2  and  C_3
REMARK    3  A    between atoms: C_10  and  C_11
REMARK    4  A    between atoms: C_13  and  O_14
REMARK    5  A    between atoms: O_14  and  C_15
REMARK    6  A    between atoms: C_16  and  O_17
REMARK    7  A    between atoms: O_17  and  C_18
REMARK    8  A    between atoms: C_19  and  O_20
REMARK    9  A    between atoms: O_20  and  C_21
REMARK   10  A    between atoms: C_25  and  O_26
REMARK   11  A    between atoms: O_26  and  C_27
REMARK                            x       y       z     vdW  Elec       q    Type
REMARK                         _______ _______ _______ _____ _____    ______ ____
ROOT
ATOM      1  C   UNL     1       6.174   4.998  16.347  0.00  0.00    +0.000 A 
ATOM      2  C   UNL     1       5.187   4.048  16.634  0.00  0.00    +0.000 A 
ATOM      3  C   UNL     1       3.993   4.435  17.241  0.00  0.00    +0.000 A 
ATOM      4  O   UNL     1       3.051   3.416  17.472  0.00  0.00    +0.000 OA
ATOM      5  C   UNL     1       1.836   3.700  18.063  0.00  0.00    +0.000 A 
ATOM      6  O   UNL     1       0.987   2.841  18.258  0.00  0.00    +0.000 OA
ATOM      7  C   UNL     1       1.602   5.089  18.481  0.00  0.00    +0.000 A 
ATOM      8  C   UNL     1       2.483   6.080  18.273  0.00  0.00    +0.000 A 
ATOM      9  C   UNL     1       3.747   5.753  17.602  0.00  0.00    +0.000 A 
ATOM     10  C   UNL     1       4.737   6.701  17.324  0.00  0.00    +0.000 A 
ATOM     11  C   UNL     1       5.949   6.342  16.701  0.00  0.00    +0.000 A 
ENDROOT
BRANCH   8  12
ATOM     12  C   UNL     1       2.115   7.386  18.838  0.00  0.00    +0.000 A 
ATOM     13  C   UNL     1       1.739   7.455  20.178  0.00  0.00    +0.000 A 
ATOM     14  C   UNL     1       1.327   8.663  20.740  0.00  0.00    +0.000 A 
ATOM     15  C   UNL     1       1.266   9.827  19.937  0.00  0.00    +0.000 A 
ATOM     16  C   UNL     1       1.646   9.762  18.578  0.00  0.00    +0.000 A 
ATOM     17  C   UNL     1       2.082   8.538  18.046  0.00  0.00    +0.000 A 
BRANCH  14  18
ATOM     18  O   UNL     1       0.937   8.772  22.055  0.00  0.00    +0.000 OA
ATOM     19  C   UNL     1      -0.412   8.409  22.339  0.00  0.00    +0.000 C 
ENDBRANCH  14  18
BRANCH  15  20
ATOM     20  O   UNL     1       0.753  10.937  20.572  0.00  0.00    +0.000 OA
ATOM     21  C   UNL     1      -0.549  11.368  20.200  0.00  0.00    +0.000 C 
ENDBRANCH  15  20
BRANCH  16  22
ATOM     22  O   UNL     1       1.535  10.892  17.815  0.00  0.00    +0.000 OA
ATOM     23  C   UNL     1       2.511  11.915  17.975  0.00  0.00    +0.000 C 
ENDBRANCH  16  22
ENDBRANCH   8  12
BRANCH   1  25
ATOM     24  C   UNL     1       7.431   4.708  14.351  0.00  0.00    +0.000 C 
ATOM     25  O   UNL     1       7.367   4.646  15.772  0.00  0.00    +0.000 OA
ENDBRANCH   1  25
BRANCH  11  26
ATOM     26  O   UNL     1       6.768   7.425  16.515  0.00  0.00    +0.000 OA
ATOM     27  C   UNL     1       7.543   7.901  17.606  0.00  0.00    +0.000 C 
ENDBRANCH  11  26
TORSDOF 6
ENDMDL
MODEL 2
REMARK VINA RESULT:      -7.2      1.537      1.670
REMARK  Name = 
REMARK  11 active torsions:
REMARK  status: ('A' for Active; 'I' for Inactive)
REMARK    1  A    between atoms: C_1  and  O_2
REMARK    2  A    between atoms: O_2  and  C_3
REMARK    3  A    between atoms: C_10  and  C_11
REMARK    4  A    between atoms: C_13  and  O_14
REMARK    5  A    between atoms: O_14  and  C_15
REMARK    6  A    between atoms: C_16  and  O_17
REMARK    7  A    between atoms: O_17  and  C_18
REMARK    8  A    between atoms: C_19  and  O_20
REMARK    9  A    between atoms: O_20  and  C_21
REMARK   10  A    between atoms: C_25  and  O_26
REMARK   11  A    between atoms: O_26  and  C_27
REMARK                            x       y       z     vdW  Elec       q    Type
REMARK                         _______ _______ _______ _____ _____    ______ ____
ROOT
ATOM      1  C   UNL     1       5.632   4.689  17.547  0.00  0.00    +0.000 A 
ATOM      2  C   UNL     1       4.863   3.821  18.331  0.00  0.00    +0.000 A 
ATOM      3  C   UNL     1       3.764   4.301  19.042  0.00  0.00    +0.000 A 
ATOM      4  O   UNL     1       3.039   3.352  19.785  0.00  0.00    +0.000 OA
ATOM      5  C   UNL     1       1.931   3.728  20.518  0.00  0.00    +0.000 A 
ATOM      6  O   UNL     1       1.266   2.924  21.158  0.00  0.00    +0.000 OA
ATOM      7  C   UNL     1       1.586   5.156  20.527  0.00  0.00    +0.000 A 
ATOM      8  C   UNL     1       2.261   6.082  19.828  0.00  0.00    +0.000 A 
ATOM      9  C   UNL     1       3.407   5.642  19.023  0.00  0.00    +0.000 A 
ATOM     10  C   UNL     1       4.181   6.512  18.248  0.00  0.00    +0.000 A 
ATOM     11  C   UNL     1       5.289   6.054  17.509  0.00  0.00    +0.000 A 
ENDROOT
BRANCH   8  12
ATOM     12  C   UNL     1       1.826   7.471  20.029  0.00  0.00    +0.000 A 
ATOM     13  C   UNL     1       1.706   7.955  21.331  0.00  0.00    +0.000 A 
ATOM     14  C   UNL     1       1.241   9.249  21.568  0.00  0.00    +0.000 A 
ATOM     15  C   UNL     1       0.865  10.072  20.480  0.00  0.00    +0.000 A 
ATOM     16  C   UNL     1       0.984   9.585  19.159  0.00  0.00    +0.000 A 
ATOM     17  C   UNL     1       1.479   8.289  18.949  0.00  0.00    +0.000 A 
BRANCH  14  18
ATOM     18  O   UNL     1       1.099   9.761  22.837  0.00  0.00    +0.000 OA
ATOM     19  C   UNL     1      -0.171   9.558  23.454  0.00  0.00    +0.000 C 
ENDBRANCH  14  18
BRANCH  15  20
ATOM     20  O   UNL     1       0.330  11.290  20.839  0.00  0.00    +0.000 OA
ATOM     21  C   UNL     1       1.144  12.443  20.678  0.00  0.00    +0.000 C 
ENDBRANCH  15  20
BRANCH  16  22
ATOM     22  O   UNL     1       0.570  10.386  18.130  0.00  0.00    +0.000 OA
ATOM     23  C   UNL     1      -0.796  10.330  17.736  0.00  0.00    +0.000 C 
ENDBRANCH  16  22
ENDBRANCH   8  12
BRANCH   1  25
ATOM     24  C   UNL     1       6.534   3.945  15.478  0.00  0.00    +0.000 C 
ATOM     25  O   UNL     1       6.730   4.253  16.855  0.00  0.00    +0.000 OA
ENDBRANCH   1  25
BRANCH  11  26
ATOM     26  O   UNL     1       5.896   7.070  16.816  0.00  0.00    +0.000 OA
ATOM     27  C   UNL     1       7.108   7.618  17.313  0.00  0.00    +0.000 C 
ENDBRANCH  11  26
TORSDOF 6
ENDMDL
MODEL 3
REMARK VINA RESULT:      -7.1      0.250      2.336
REMARK  Name = 
REMARK  11 active torsions:
REMARK  status: ('A' for Active; 'I' for Inactive)
REMARK    1  A    between atoms: C_1  and  O_2
REMARK    2  A    between atoms: O_2  and  C_3
REMARK    3  A    between atoms: C_10  and  C_11
REMARK    4  A    between atoms: C_13  and  O_14
REMARK    5  A    between atoms: O_14  and  C_15
REMARK    6  A    between atoms: C_16  and  O_17
REMARK    7  A    between atoms: O_17  and  C_18
REMARK    8  A    between atoms: C_19  and  O_20
REMARK    9  A    between atoms: O_20  and  C_21
REMARK   10  A    between atoms: C_25  and  O_26
REMARK   11  A    between atoms: O_26  and  C_27
REMARK                            x       y       z     vdW  Elec       q    Type
REMARK                         _______ _______ _______ _____ _____    ______ ____
ROOT
ATOM      1  C   UNL     1       6.145   5.142  16.349  0.00  0.00    +0.000 A 
ATOM      2  C   UNL     1       5.206   4.135  16.599  0.00  0.00    +0.000 A 
ATOM      3  C   UNL     1       3.994   4.440  17.217  0.00  0.00    +0.000 A 
ATOM      4  O   UNL     1       3.103   3.368  17.407  0.00  0.00    +0.000 OA
ATOM      5  C   UNL     1       1.875   3.569  18.005  0.00  0.00    +0.000 A 
ATOM      6  O   UNL     1       1.069   2.663  18.166  0.00  0.00    +0.000 OA
ATOM      7  C   UNL     1       1.573   4.928  18.474  0.00  0.00    +0.000 A 
ATOM      8  C   UNL     1       2.404   5.969  18.305  0.00  0.00    +0.000 A 
ATOM      9  C   UNL     1       3.683   5.729  17.626  0.00  0.00    +0.000 A 
ATOM     10  C   UNL     1       4.626   6.735  17.386  0.00  0.00    +0.000 A 
ATOM     11  C   UNL     1       5.854   6.459  16.753  0.00  0.00    +0.000 A 
ENDROOT
BRANCH   8  12
ATOM     12  C   UNL     1       1.973   7.233  18.918  0.00  0.00    +0.000 A 
ATOM     13  C   UNL     1       1.860   8.365  18.113  0.00  0.00    +0.000 A 
ATOM     14  C   UNL     1       1.510   9.598  18.665  0.00  0.00    +0.000 A 
ATOM     15  C   UNL     1       1.290   9.707  20.058  0.00  0.00    +0.000 A 
ATOM     16  C   UNL     1       1.404   8.563  20.878  0.00  0.00    +0.000 A 
ATOM     17  C   UNL     1       1.732   7.330  20.292  0.00  0.00    +0.000 A 
BRANCH  14  18
ATOM     18  O   UNL     1       1.397  10.741  17.907  0.00  0.00    +0.000 OA
ATOM     19  C   UNL     1       2.562  11.560  17.836  0.00  0.00    +0.000 C 
ENDBRANCH  14  18
BRANCH  15  20
ATOM     20  O   UNL     1       1.046  10.989  20.503  0.00  0.00    +0.000 OA
ATOM     21  C   UNL     1      -0.273  11.498  20.363  0.00  0.00    +0.000 C 
ENDBRANCH  15  20
BRANCH  16  22
ATOM     22  O   UNL     1       1.230   8.707  22.228  0.00  0.00    +0.000 OA
ATOM     23  C   UNL     1      -0.087   8.920  22.721  0.00  0.00    +0.000 C 
ENDBRANCH  16  22
ENDBRANCH   8  12
BRANCH   1  25
ATOM     24  C   UNL     1       7.386   4.864  14.341  0.00  0.00    +0.000 C 
ATOM     25  O   UNL     1       7.354   4.871  15.765  0.00  0.00    +0.000 OA
ENDBRANCH   1  25
BRANCH  11  26
ATOM     26  O   UNL     1       6.620   7.587  16.610  0.00  0.00    +0.000 OA
ATOM     27  C   UNL     1       7.669   7.831  17.534  0.00  0.00    +0.000 C 
ENDBRANCH  11  26
TORSDOF 6
ENDMDL
MODEL 4
REMARK VINA RESULT:      -7.1      1.856      4.480
REMARK  Name = 
REMARK  11 active torsions:
REMARK  status: ('A' for Active; 'I' for Inactive)
REMARK    1  A    between atoms: C_1  and  O_2
REMARK    2  A    between atoms: O_2  and  C_3
REMARK    3  A    between atoms: C_10  and  C_11
REMARK    4  A    between atoms: C_13  and  O_14
REMARK    5  A    between atoms: O_14  and  C_15
REMARK    6  A    between atoms: C_16  and  O_17
REMARK    7  A    between atoms: O_17  and  C_18
REMARK    8  A    between atoms: C_19  and  O_20
REMARK    9  A    between atoms: O_20  and  C_21
REMARK   10  A    between atoms: C_25  and  O_26
REMARK   11  A    between atoms: O_26  and  C_27
REMARK                            x       y       z     vdW  Elec       q    Type
REMARK                         _______ _______ _______ _____ _____    ______ ____
ROOT
ATOM      1  C   UNL     1       2.668   2.912  18.710  0.00  0.00    +0.000 A 
ATOM      2  C   UNL     1       3.535   3.541  17.809  0.00  0.00    +0.000 A 
ATOM      3  C   UNL     1       3.564   4.931  17.713  0.00  0.00    +0.000 A 
ATOM      4  O   UNL     1       4.482   5.475  16.797  0.00  0.00    +0.000 OA
ATOM      5  C   UNL     1       4.589   6.842  16.634  0.00  0.00    +0.000 A 
ATOM      6  O   UNL     1       5.392   7.347  15.861  0.00  0.00    +0.000 OA
ATOM      7  C   UNL     1       3.672   7.684  17.413  0.00  0.00    +0.000 A 
ATOM      8  C   UNL     1       2.787   7.192  18.294  0.00  0.00    +0.000 A 
ATOM      9  C   UNL     1       2.729   5.736  18.476  0.00  0.00    +0.000 A 
ATOM     10  C   UNL     1       1.855   5.108  19.369  0.00  0.00    +0.000 A 
ATOM     11  C   UNL     1       1.812   3.705  19.497  0.00  0.00    +0.000 A 
ENDROOT
BRANCH   8  12
ATOM     12  C   UNL     1       1.893   8.178  18.915  0.00  0.00    +0.000 A 
ATOM     13  C   UNL     1       1.089   8.966  18.093  0.00  0.00    +0.000 A 
ATOM     14  C   UNL     1       0.268   9.955  18.638  0.00  0.00    +0.000 A 
ATOM     15  C   UNL     1       0.268  10.178  20.035  0.00  0.00    +0.000 A 
ATOM     16  C   UNL     1       1.083   9.382  20.872  0.00  0.00    +0.000 A 
ATOM     17  C   UNL     1       1.878   8.378  20.299  0.00  0.00    +0.000 A 
BRANCH  14  18
ATOM     18  O   UNL     1      -0.532  10.761  17.861  0.00  0.00    +0.000 OA
ATOM     19  C   UNL     1      -1.696  10.144  17.315  0.00  0.00    +0.000 C 
ENDBRANCH  14  18
BRANCH  15  20
ATOM     20  O   UNL     1      -0.504  11.241  20.447  0.00  0.00    +0.000 OA
ATOM     21  C   UNL     1       0.148  12.484  20.673  0.00  0.00    +0.000 C 
ENDBRANCH  15  20
BRANCH  16  22
ATOM     22  O   UNL     1       1.096   9.650  22.214  0.00  0.00    +0.000 OA
ATOM     23  C   UNL     1      -0.047   9.299  22.985  0.00  0.00    +0.000 C 
ENDBRANCH  16  22
ENDBRANCH   8  12
BRANCH   1  25
ATOM     24  C   UNL     1       3.836   0.843  18.754  0.00  0.00    +0.000 C 
ATOM     25  O   UNL     1       2.600   1.547  18.811  0.00  0.00    +0.000 OA
ENDBRANCH   1  25
BRANCH  11  26
ATOM     26  O   UNL     1       0.894   3.305  20.433  0.00  0.00    +0.000 OA
ATOM     27  C   UNL     1       1.352   2.754  21.659  0.00  0.00    +0.000 C 
ENDBRANCH  11  26
TORSDOF 6
ENDMDL
MODEL 5
REMARK VINA RESULT:      -7.0      1.382      2.716
REMARK  Name = 
REMARK  11 active torsions:
REMARK  status: ('A' for Active; 'I' for Inactive)
REMARK    1  A    between atoms: C_1  and  O_2
REMARK    2  A    between atoms: O_2  and  C_3
REMARK    3  A    between atoms: C_10  and  C_11
REMARK    4  A    between atoms: C_13  and  O_14
REMARK    5  A    between atoms: O_14  and  C_15
REMARK    6  A    between atoms: C_16  and  O_17
REMARK    7  A    between atoms: O_17  and  C_18
REMARK    8  A    between atoms: C_19  and  O_20
REMARK    9  A    between atoms: O_20  and  C_21
REMARK   10  A    between atoms: C_25  and  O_26
REMARK   11  A    between atoms: O_26  and  C_27
REMARK                            x       y       z     vdW  Elec       q    Type
REMARK                         _______ _______ _______ _____ _____    ______ ____
ROOT
ATOM      1  C   UNL     1       5.600   4.720  17.551  0.00  0.00    +0.000 A 
ATOM      2  C   UNL     1       4.845   3.837  18.332  0.00  0.00    +0.000 A 
ATOM      3  C   UNL     1       3.744   4.298  19.052  0.00  0.00    +0.000 A 
ATOM      4  O   UNL     1       3.033   3.335  19.790  0.00  0.00    +0.000 OA
ATOM      5  C   UNL     1       1.924   3.692  20.531  0.00  0.00    +0.000 A 
ATOM      6  O   UNL     1       1.272   2.876  21.168  0.00  0.00    +0.000 OA
ATOM      7  C   UNL     1       1.562   5.116  20.552  0.00  0.00    +0.000 A 
ATOM      8  C   UNL     1       2.222   6.055  19.856  0.00  0.00    +0.000 A 
ATOM      9  C   UNL     1       3.370   5.634  19.044  0.00  0.00    +0.000 A 
ATOM     10  C   UNL     1       4.130   6.520  18.272  0.00  0.00    +0.000 A 
ATOM     11  C   UNL     1       5.241   6.081  17.524  0.00  0.00    +0.000 A 
ENDROOT
BRANCH   8  12
ATOM     12  C   UNL     1       1.772   7.437  20.069  0.00  0.00    +0.000 A 
ATOM     13  C   UNL     1       1.719   8.302  18.977  0.00  0.00    +0.000 A 
ATOM     14  C   UNL     1       1.353   9.637  19.145  0.00  0.00    +0.000 A 
ATOM     15  C   UNL     1       1.055  10.128  20.439  0.00  0.00    +0.000 A 
ATOM     16  C   UNL     1       1.108   9.256  21.548  0.00  0.00    +0.000 A 
ATOM     17  C   UNL     1       1.454   7.911  21.347  0.00  0.00    +0.000 A 
BRANCH  14  18
ATOM     18  O   UNL     1       1.298  10.526  18.095  0.00  0.00    +0.000 OA
ATOM     19  C   UNL     1       2.509  11.215  17.797  0.00  0.00    +0.000 C 
ENDBRANCH  14  18
BRANCH  15  20
ATOM     20  O   UNL     1       0.802  11.481  20.496  0.00  0.00    +0.000 OA
ATOM     21  C   UNL     1      -0.546  11.909  20.358  0.00  0.00    +0.000 C 
ENDBRANCH  15  20
BRANCH  16  22
ATOM     22  O   UNL     1       0.859   9.768  22.793  0.00  0.00    +0.000 OA
ATOM     23  C   UNL     1      -0.478   9.743  23.279  0.00  0.00    +0.000 C 
ENDBRANCH  16  22
ENDBRANCH   8  12
BRANCH   1  25
ATOM     24  C   UNL     1       6.519   4.069  15.458  0.00  0.00    +0.000 C 
ATOM     25  O   UNL     1       6.701   4.302  16.851  0.00  0.00    +0.000 OA
ENDBRANCH   1  25
BRANCH  11  26
ATOM     26  O   UNL     1       5.832   7.108  16.836  0.00  0.00    +0.000 OA
ATOM     27  C   UNL     1       7.068   7.630  17.301  0.00  0.00    +0.000 C 
ENDBRANCH  11  26
TORSDOF 6
ENDMDL
MODEL 6
REMARK VINA RESULT:      -6.8      1.816      4.008
REMARK  Name = 
REMARK  11 active torsions:
REMARK  status: ('A' for Active; 'I' for Inactive)
REMARK    1  A    between atoms: C_1  and  O_2
REMARK    2  A    between atoms: O_2  and  C_3
REMARK    3  A    between atoms: C_10  and  C_11
REMARK    4  A    between atoms: C_13  and  O_14
REMARK    5  A    between atoms: O_14  and  C_15
REMARK    6  A    between atoms: C_16  and  O_17
REMARK    7  A    between atoms: O_17  and  C_18
REMARK    8  A    between atoms: C_19  and  O_20
REMARK    9  A    between atoms: O_20  and  C_21
REMARK   10  A    between atoms: C_25  and  O_26
REMARK   11  A    between atoms: O_26  and  C_27
REMARK                            x       y       z     vdW  Elec       q    Type
REMARK                         _______ _______ _______ _____ _____    ______ ____
ROOT
ATOM      1  C   UNL     1       2.794   2.870  18.656  0.00  0.00    +0.000 A 
ATOM      2  C   UNL     1       3.692   3.504  17.790  0.00  0.00    +0.000 A 
ATOM      3  C   UNL     1       3.710   4.894  17.688  0.00  0.00    +0.000 A 
ATOM      4  O   UNL     1       4.662   5.443  16.809  0.00  0.00    +0.000 OA
ATOM      5  C   UNL     1       4.761   6.810  16.643  0.00  0.00    +0.000 A 
ATOM      6  O   UNL     1       5.591   7.320  15.902  0.00  0.00    +0.000 OA
ATOM      7  C   UNL     1       3.803   7.647  17.378  0.00  0.00    +0.000 A 
ATOM      8  C   UNL     1       2.886   7.149  18.223  0.00  0.00    +0.000 A 
ATOM      9  C   UNL     1       2.836   5.694  18.410  0.00  0.00    +0.000 A 
ATOM     10  C   UNL     1       1.931   5.061  19.269  0.00  0.00    +0.000 A 
ATOM     11  C   UNL     1       1.897   3.658  19.402  0.00  0.00    +0.000 A 
ENDROOT
BRANCH   8  12
ATOM     12  C   UNL     1       1.956   8.129  18.800  0.00  0.00    +0.000 A 
ATOM     13  C   UNL     1       1.760   8.137  20.180  0.00  0.00    +0.000 A 
ATOM     14  C   UNL     1       0.843   9.011  20.763  0.00  0.00    +0.000 A 
ATOM     15  C   UNL     1       0.085   9.884  19.946  0.00  0.00    +0.000 A 
ATOM     16  C   UNL     1       0.280   9.879  18.546  0.00  0.00    +0.000 A 
ATOM     17  C   UNL     1       1.228   9.006  17.990  0.00  0.00    +0.000 A 
BRANCH  14  18
ATOM     18  O   UNL     1       0.612   9.044  22.119  0.00  0.00    +0.000 OA
ATOM     19  C   UNL     1       1.742   9.337  22.938  0.00  0.00    +0.000 C 
ENDBRANCH  14  18
BRANCH  15  20
ATOM     20  O   UNL     1      -0.857  10.630  20.620  0.00  0.00    +0.000 OA
ATOM     21  C   UNL     1      -0.535  11.980  20.925  0.00  0.00    +0.000 C 
ENDBRANCH  15  20
BRANCH  16  22
ATOM     22  O   UNL     1      -0.498  10.701  17.777  0.00  0.00    +0.000 OA
ATOM     23  C   UNL     1      -1.732  10.196  17.282  0.00  0.00    +0.000 C 
ENDBRANCH  16  22
ENDBRANCH   8  12
BRANCH   1  25
ATOM     24  C   UNL     1       3.978   0.810  18.718  0.00  0.00    +0.000 C 
ATOM     25  O   UNL     1       2.736   1.505  18.762  0.00  0.00    +0.000 OA
ENDBRANCH   1  25
BRANCH  11  26
ATOM     26  O   UNL     1       0.944   3.253  20.300  0.00  0.00    +0.000 OA
ATOM     27  C   UNL     1       1.352   2.787  21.577  0.00  0.00    +0.000 C 
ENDBRANCH  11  26
TORSDOF 6
ENDMDL
MODEL 7
REMARK VINA RESULT:      -6.7      1.737      1.965
REMARK  Name = 
REMARK  11 active torsions:
REMARK  status: ('A' for Active; 'I' for Inactive)
REMARK    1  A    between atoms: C_1  and  O_2
REMARK    2  A    between atoms: O_2  and  C_3
REMARK    3  A    between atoms: C_10  and  C_11
REMARK    4  A    between atoms: C_13  and  O_14
REMARK    5  A    between atoms: O_14  and  C_15
REMARK    6  A    between atoms: C_16  and  O_17
REMARK    7  A    between atoms: O_17  and  C_18
REMARK    8  A    between atoms: C_19  and  O_20
REMARK    9  A    between atoms: O_20  and  C_21
REMARK   10  A    between atoms: C_25  and  O_26
REMARK   11  A    between atoms: O_26  and  C_27
REMARK                            x       y       z     vdW  Elec       q    Type
REMARK                         _______ _______ _______ _____ _____    ______ ____
ROOT
ATOM      1  C   UNL     1       5.628   4.537  17.830  0.00  0.00    +0.000 A 
ATOM      2  C   UNL     1       4.990   3.726  18.775  0.00  0.00    +0.000 A 
ATOM      3  C   UNL     1       3.880   4.198  19.474  0.00  0.00    +0.000 A 
ATOM      4  O   UNL     1       3.291   3.305  20.387  0.00  0.00    +0.000 OA
ATOM      5  C   UNL     1       2.184   3.677  21.123  0.00  0.00    +0.000 A 
ATOM      6  O   UNL     1       1.636   2.917  21.910  0.00  0.00    +0.000 OA
ATOM      7  C   UNL     1       1.692   5.050  20.946  0.00  0.00    +0.000 A 
ATOM      8  C   UNL     1       2.234   5.922  20.081  0.00  0.00    +0.000 A 
ATOM      9  C   UNL     1       3.384   5.479  19.282  0.00  0.00    +0.000 A 
ATOM     10  C   UNL     1       4.026   6.295  18.345  0.00  0.00    +0.000 A 
ATOM     11  C   UNL     1       5.143   5.841  17.615  0.00  0.00    +0.000 A 
ENDROOT
BRANCH   8  12
ATOM     12  C   UNL     1       1.666   7.277  20.105  0.00  0.00    +0.000 A 
ATOM     13  C   UNL     1       0.823   7.633  21.156  0.00  0.00    +0.000 A 
ATOM     14  C   UNL     1       0.216   8.888  21.187  0.00  0.00    +0.000 A 
ATOM     15  C   UNL     1       0.437   9.803  20.129  0.00  0.00    +0.000 A 
ATOM     16  C   UNL     1       1.289   9.445  19.061  0.00  0.00    +0.000 A 
ATOM     17  C   UNL     1       1.907   8.185  19.069  0.00  0.00    +0.000 A 
BRANCH  14  18
ATOM     18  O   UNL     1      -0.630   9.275  22.201  0.00  0.00    +0.000 OA
ATOM     19  C   UNL     1      -0.007   9.618  23.437  0.00  0.00    +0.000 C 
ENDBRANCH  14  18
BRANCH  15  20
ATOM     20  O   UNL     1      -0.290  10.970  20.218  0.00  0.00    +0.000 OA
ATOM     21  C   UNL     1      -1.401  11.124  19.345  0.00  0.00    +0.000 C 
ENDBRANCH  15  20
BRANCH  16  22
ATOM     22  O   UNL     1       1.449  10.331  18.030  0.00  0.00    +0.000 OA
ATOM     23  C   UNL     1       2.336  11.428  18.213  0.00  0.00    +0.000 C 
ENDBRANCH  16  22
ENDBRANCH   8  12
BRANCH   1  25
ATOM     24  C   UNL     1       7.998   4.533  17.649  0.00  0.00    +0.000 C 
ATOM     25  O   UNL     1       6.735   4.111  17.144  0.00  0.00    +0.000 OA
ENDBRANCH   1  25
BRANCH  11  26
ATOM     26  O   UNL     1       5.609   6.795  16.748  0.00  0.00    +0.000 OA
ATOM     27  C   UNL     1       5.023   6.903  15.459  0.00  0.00    +0.000 C 
ENDBRANCH  11  26
TORSDOF 6
ENDMDL
MODEL 8
REMARK VINA RESULT:      -6.7      1.600      4.475
REMARK  Name = 
REMARK  11 active torsions:
REMARK  status: ('A' for Active; 'I' for Inactive)
REMARK    1  A    between atoms: C_1  and  O_2
REMARK    2  A    between atoms: O_2  and  C_3
REMARK    3  A    between atoms: C_10  and  C_11
REMARK    4  A    between atoms: C_13  and  O_14
REMARK    5  A    between atoms: O_14  and  C_15
REMARK    6  A    between atoms: C_16  and  O_17
REMARK    7  A    between atoms: O_17  and  C_18
REMARK    8  A    between atoms: C_19  and  O_20
REMARK    9  A    between atoms: O_20  and  C_21
REMARK   10  A    between atoms: C_25  and  O_26
REMARK   11  A    between atoms: O_26  and  C_27
REMARK                            x       y       z     vdW  Elec       q    Type
REMARK                         _______ _______ _______ _____ _____    ______ ____
ROOT
ATOM      1  C   UNL     1       2.768   2.855  18.627  0.00  0.00    +0.000 A 
ATOM      2  C   UNL     1       3.651   3.428  17.705  0.00  0.00    +0.000 A 
ATOM      3  C   UNL     1       3.737   4.814  17.580  0.00  0.00    +0.000 A 
ATOM      4  O   UNL     1       4.667   5.300  16.643  0.00  0.00    +0.000 OA
ATOM      5  C   UNL     1       4.830   6.657  16.450  0.00  0.00    +0.000 A 
ATOM      6  O   UNL     1       5.645   7.112  15.659  0.00  0.00    +0.000 OA
ATOM      7  C   UNL     1       3.958   7.553  17.221  0.00  0.00    +0.000 A 
ATOM      8  C   UNL     1       3.062   7.117  18.121  0.00  0.00    +0.000 A 
ATOM      9  C   UNL     1       2.945   5.669  18.334  0.00  0.00    +0.000 A 
ATOM     10  C   UNL     1       2.055   5.097  19.249  0.00  0.00    +0.000 A 
ATOM     11  C   UNL     1       1.955   3.700  19.406  0.00  0.00    +0.000 A 
ENDROOT
BRANCH   8  12
ATOM     12  C   UNL     1       2.217   8.153  18.730  0.00  0.00    +0.000 A 
ATOM     13  C   UNL     1       2.131   9.398  18.111  0.00  0.00    +0.000 A 
ATOM     14  C   UNL     1       1.386  10.428  18.686  0.00  0.00    +0.000 A 
ATOM     15  C   UNL     1       0.731  10.217  19.922  0.00  0.00    +0.000 A 
ATOM     16  C   UNL     1       0.816   8.956  20.554  0.00  0.00    +0.000 A 
ATOM     17  C   UNL     1       1.551   7.930  19.939  0.00  0.00    +0.000 A 
BRANCH  14  18
ATOM     18  O   UNL     1       1.284  11.675  18.112  0.00  0.00    +0.000 OA
ATOM     19  C   UNL     1       2.446  12.497  18.193  0.00  0.00    +0.000 C 
ENDBRANCH  14  18
BRANCH  15  20
ATOM     20  O   UNL     1       0.109  11.332  20.441  0.00  0.00    +0.000 OA
ATOM     21  C   UNL     1      -1.282  11.487  20.194  0.00  0.00    +0.000 C 
ENDBRANCH  15  20
BRANCH  16  22
ATOM     22  O   UNL     1       0.209   8.794  21.770  0.00  0.00    +0.000 OA
ATOM     23  C   UNL     1       0.844   9.338  22.920  0.00  0.00    +0.000 C 
ENDBRANCH  16  22
ENDBRANCH   8  12
BRANCH   1  25
ATOM     24  C   UNL     1       3.852   0.761  18.925  0.00  0.00    +0.000 C 
ATOM     25  O   UNL     1       2.644   1.497  18.758  0.00  0.00    +0.000 OA
ENDBRANCH   1  25
BRANCH  11  26
ATOM     26  O   UNL     1       1.031   3.358  20.359  0.00  0.00    +0.000 OA
ATOM     27  C   UNL     1       1.481   2.878  21.618  0.00  0.00    +0.000 C 
ENDBRANCH  11  26
TORSDOF 6
ENDMDL
MODEL 9
REMARK VINA RESULT:      -6.5      0.902      1.059
REMARK  Name = 
REMARK  11 active torsions:
REMARK  status: ('A' for Active; 'I' for Inactive)
REMARK    1  A    between atoms: C_1  and  O_2
REMARK    2  A    between atoms: O_2  and  C_3
REMARK    3  A    between atoms: C_10  and  C_11
REMARK    4  A    between atoms: C_13  and  O_14
REMARK    5  A    between atoms: O_14  and  C_15
REMARK    6  A    between atoms: C_16  and  O_17
REMARK    7  A    between atoms: O_17  and  C_18
REMARK    8  A    between atoms: C_19  and  O_20
REMARK    9  A    between atoms: O_20  and  C_21
REMARK   10  A    between atoms: C_25  and  O_26
REMARK   11  A    between atoms: O_26  and  C_27
REMARK                            x       y       z     vdW  Elec       q    Type
REMARK                         _______ _______ _______ _____ _____    ______ ____
ROOT
ATOM      1  C   UNL     1       6.260   5.147  16.433  0.00  0.00    +0.000 A 
ATOM      2  C   UNL     1       5.345   4.116  16.673  0.00  0.00    +0.000 A 
ATOM      3  C   UNL     1       4.105   4.394  17.246  0.00  0.00    +0.000 A 
ATOM      4  O   UNL     1       3.242   3.298  17.430  0.00  0.00    +0.000 OA
ATOM      5  C   UNL     1       1.990   3.472  17.985  0.00  0.00    +0.000 A 
ATOM      6  O   UNL     1       1.208   2.543  18.139  0.00  0.00    +0.000 OA
ATOM      7  C   UNL     1       1.630   4.829  18.415  0.00  0.00    +0.000 A 
ATOM      8  C   UNL     1       2.433   5.893  18.251  0.00  0.00    +0.000 A 
ATOM      9  C   UNL     1       3.741   5.680  17.618  0.00  0.00    +0.000 A 
ATOM     10  C   UNL     1       4.658   6.711  17.387  0.00  0.00    +0.000 A 
ATOM     11  C   UNL     1       5.915   6.462  16.799  0.00  0.00    +0.000 A 
ENDROOT
BRANCH   8  12
ATOM     12  C   UNL     1       1.943   7.154  18.824  0.00  0.00    +0.000 A 
ATOM     13  C   UNL     1       1.871   7.279  20.210  0.00  0.00    +0.000 A 
ATOM     14  C   UNL     1       1.356   8.436  20.794  0.00  0.00    +0.000 A 
ATOM     15  C   UNL     1       0.881   9.486  19.973  0.00  0.00    +0.000 A 
ATOM     16  C   UNL     1       0.951   9.364  18.567  0.00  0.00    +0.000 A 
ATOM     17  C   UNL     1       1.497   8.198  18.008  0.00  0.00    +0.000 A 
BRANCH  14  18
ATOM     18  O   UNL     1       1.258   8.595  22.157  0.00  0.00    +0.000 OA
ATOM     19  C   UNL     1       2.384   9.190  22.799  0.00  0.00    +0.000 C 
ENDBRANCH  14  18
BRANCH  15  20
ATOM     20  O   UNL     1       0.307  10.536  20.657  0.00  0.00    +0.000 OA
ATOM     21  C   UNL     1       1.011  11.770  20.687  0.00  0.00    +0.000 C 
ENDBRANCH  15  20
BRANCH  16  22
ATOM     22  O   UNL     1       0.443  10.375  17.799  0.00  0.00    +0.000 OA
ATOM     23  C   UNL     1      -0.959  10.403  17.558  0.00  0.00    +0.000 C 
ENDBRANCH  16  22
ENDBRANCH   8  12
BRANCH   1  25
ATOM     24  C   UNL     1       7.584   4.925  14.472  0.00  0.00    +0.000 C 
ATOM     25  O   UNL     1       7.495   4.903  15.893  0.00  0.00    +0.000 OA
ENDBRANCH   1  25
BRANCH  11  26
ATOM     26  O   UNL     1       6.648   7.611  16.657  0.00  0.00    +0.000 OA
ATOM     27  C   UNL     1       7.708   7.871  17.566  0.00  0.00    +0.000 C 
ENDBRANCH  11  26
TORSDOF 6
ENDMDL
