MODEL 1
REMARK VINA RESULT:      -7.2      0.000      0.000
REMARK  Name = 
REMARK  4 active torsions:
REMARK  status: ('A' for Active; 'I' for Inactive)
REMARK    1  A    between atoms: C_2  and  O_3
REMARK    2  A    between atoms: C_2  and  C_4
REMARK    3  A    between atoms: C_9  and  N_10
REMARK    4  A    between atoms: N_10  and  C_11
REMARK                            x       y       z     vdW  Elec       q    Type
REMARK                         _______ _______ _______ _____ _____    ______ ____
ROOT
ATOM      1  C   UNL     1       6.289   5.611  16.887  0.00  0.00    +0.000 A 
ATOM      2  C   UNL     1       7.212   6.633  17.165  0.00  0.00    +0.000 A 
ATOM      3  C   UNL     1       7.827   6.691  18.406  0.00  0.00    +0.000 A 
ATOM      4  C   UNL     1       7.514   5.711  19.326  0.00  0.00    +0.000 A 
ATOM      5  N   UNL     1       6.672   4.684  19.070  0.00  0.00    +0.000 NA
ATOM      6  C   UNL     1       6.050   4.633  17.868  0.00  0.00    +0.000 A 
ENDROOT
BRANCH   1   8
ATOM      7  O   UNL     1       5.508   4.684  14.851  0.00  0.00    +0.000 OA
ATOM      8  C   UNL     1       5.616   5.665  15.560  0.00  0.00    +0.000 C 
BRANCH   8   9
ATOM      9  O   UNL     1       5.106   6.869  15.225  0.00  0.00    +0.000 OA
ATOM     10  H   UNL     1       4.189   6.842  14.884  0.00  0.00    +0.000 HD
ENDBRANCH   8   9
ENDBRANCH   1   8
BRANCH   6  11
ATOM     11  N   UNL     1       5.159   3.565  17.610  0.00  0.00    +0.000 N 
ATOM     12  H   UNL     1       5.282   3.203  16.668  0.00  0.00    +0.000 HD
BRANCH  11  13
ATOM     13  C   UNL     1       3.835   3.405  18.083  0.00  0.00    +0.000 A 
ATOM     14  C   UNL     1       2.843   4.318  17.696  0.00  0.00    +0.000 A 
ATOM     15  C   UNL     1       1.490   4.052  17.929  0.00  0.00    +0.000 A 
ATOM     16  C   UNL     1       1.110   2.875  18.565  0.00  0.00    +0.000 A 
ATOM     17  C   UNL     1       2.090   2.001  19.036  0.00  0.00    +0.000 A 
ATOM     18  C   UNL     1       3.446   2.282  18.822  0.00  0.00    +0.000 A 
ENDBRANCH  11  13
ENDBRANCH   6  11
TORSDOF 4
ENDMDL
MODEL 2
REMARK VINA RESULT:      -7.1      0.724      1.492
REMARK  Name = 
REMARK  4 active torsions:
REMARK  status: ('A' for Active; 'I' for Inactive)
REMARK    1  A    between atoms: C_2  and  O_3
REMARK    2  A    between atoms: C_2  and  C_4
REMARK    3  A    between atoms: C_9  and  N_10
REMARK    4  A    between atoms: N_10  and  C_11
REMARK                            x       y       z     vdW  Elec       q    Type
REMARK                         _______ _______ _______ _____ _____    ______ ____
ROOT
ATOM      1  C   UNL     1       6.623   5.212  16.733  0.00  0.00    +0.000 A 
ATOM      2  C   UNL     1       7.501   6.205  17.197  0.00  0.00    +0.000 A 
ATOM      3  C   UNL     1       7.669   6.396  18.560  0.00  0.00    +0.000 A 
ATOM      4  C   UNL     1       6.968   5.573  19.417  0.00  0.00    +0.000 A 
ATOM      5  N   UNL     1       6.158   4.572  19.001  0.00  0.00    +0.000 NA
ATOM      6  C   UNL     1       5.971   4.394  17.671  0.00  0.00    +0.000 A 
ENDROOT
BRANCH   1   8
ATOM      7  O   UNL     1       5.352   4.926  14.752  0.00  0.00    +0.000 OA
ATOM      8  C   UNL     1       6.440   5.123  15.258  0.00  0.00    +0.000 C 
BRANCH   8   9
ATOM      9  O   UNL     1       7.560   5.313  14.530  0.00  0.00    +0.000 OA
ATOM     10  H   UNL     1       8.356   5.533  15.056  0.00  0.00    +0.000 HD
ENDBRANCH   8   9
ENDBRANCH   1   8
BRANCH   6  11
ATOM     11  N   UNL     1       5.112   3.356  17.241  0.00  0.00    +0.000 N 
ATOM     12  H   UNL     1       5.319   3.080  16.284  0.00  0.00    +0.000 HD
BRANCH  11  13
ATOM     13  C   UNL     1       3.752   3.157  17.580  0.00  0.00    +0.000 A 
ATOM     14  C   UNL     1       3.371   1.998  18.272  0.00  0.00    +0.000 A 
ATOM     15  C   UNL     1       2.099   1.887  18.843  0.00  0.00    +0.000 A 
ATOM     16  C   UNL     1       1.186   2.929  18.720  0.00  0.00    +0.000 A 
ATOM     17  C   UNL     1       1.519   4.048  17.958  0.00  0.00    +0.000 A 
ATOM     18  C   UNL     1       2.786   4.147  17.367  0.00  0.00    +0.000 A 
ENDBRANCH  11  13
ENDBRANCH   6  11
TORSDOF 4
ENDMDL
MODEL 3
REMARK VINA RESULT:      -7.0      0.512      1.457
REMARK  Name = 
REMARK  4 active torsions:
REMARK  status: ('A' for Active; 'I' for Inactive)
REMARK    1  A    between atoms: C_2  and  O_3
REMARK    2  A    between atoms: C_2  and  C_4
REMARK    3  A    between atoms: C_9  and  N_10
REMARK    4  A    between atoms: N_10  and  C_11
REMARK                            x       y       z     vdW  Elec       q    Type
REMARK                         _______ _______ _______ _____ _____    ______ ____
ROOT
ATOM      1  C   UNL     1       6.284   5.638  16.967  0.00  0.00    +0.000 A 
ATOM      2  C   UNL     1       7.209   6.663  17.226  0.00  0.00    +0.000 A 
ATOM      3  C   UNL     1       7.868   6.708  18.445  0.00  0.00    +0.000 A 
ATOM      4  C   UNL     1       7.596   5.713  19.361  0.00  0.00    +0.000 A 
ATOM      5  N   UNL     1       6.752   4.683  19.121  0.00  0.00    +0.000 NA
ATOM      6  C   UNL     1       6.088   4.644  17.941  0.00  0.00    +0.000 A 
ENDROOT
BRANCH   1   8
ATOM      7  O   UNL     1       5.136   6.752  15.218  0.00  0.00    +0.000 OA
ATOM      8  C   UNL     1       5.563   5.706  15.666  0.00  0.00    +0.000 C 
BRANCH   8   9
ATOM      9  O   UNL     1       5.454   4.531  15.010  0.00  0.00    +0.000 OA
ATOM     10  H   UNL     1       4.749   3.941  15.347  0.00  0.00    +0.000 HD
ENDBRANCH   8   9
ENDBRANCH   1   8
BRANCH   6  11
ATOM     11  N   UNL     1       5.196   3.573  17.700  0.00  0.00    +0.000 N 
ATOM     12  H   UNL     1       5.331   3.185  16.770  0.00  0.00    +0.000 HD
BRANCH  11  13
ATOM     13  C   UNL     1       3.864   3.431  18.159  0.00  0.00    +0.000 A 
ATOM     14  C   UNL     1       3.621   2.883  19.427  0.00  0.00    +0.000 A 
ATOM     15  C   UNL     1       2.353   2.963  20.013  0.00  0.00    +0.000 A 
ATOM     16  C   UNL     1       1.308   3.580  19.334  0.00  0.00    +0.000 A 
ATOM     17  C   UNL     1       1.514   4.049  18.037  0.00  0.00    +0.000 A 
ATOM     18  C   UNL     1       2.778   3.946  17.442  0.00  0.00    +0.000 A 
ENDBRANCH  11  13
ENDBRANCH   6  11
TORSDOF 4
ENDMDL
MODEL 4
REMARK VINA RESULT:      -6.8      2.420      3.235
REMARK  Name = 
REMARK  4 active torsions:
REMARK  status: ('A' for Active; 'I' for Inactive)
REMARK    1  A    between atoms: C_2  and  O_3
REMARK    2  A    between atoms: C_2  and  C_4
REMARK    3  A    between atoms: C_9  and  N_10
REMARK    4  A    between atoms: N_10  and  C_11
REMARK                            x       y       z     vdW  Elec       q    Type
REMARK                         _______ _______ _______ _____ _____    ______ ____
ROOT
ATOM      1  C   UNL     1       6.831   5.300  17.928  0.00  0.00    +0.000 A 
ATOM      2  C   UNL     1       7.246   5.760  16.668  0.00  0.00    +0.000 A 
ATOM      3  C   UNL     1       6.648   5.264  15.519  0.00  0.00    +0.000 A 
ATOM      4  C   UNL     1       5.639   4.335  15.669  0.00  0.00    +0.000 A 
ATOM      5  N   UNL     1       5.180   3.913  16.869  0.00  0.00    +0.000 NA
ATOM      6  C   UNL     1       5.773   4.376  17.995  0.00  0.00    +0.000 A 
ENDROOT
BRANCH   1   8
ATOM      7  O   UNL     1       7.545   5.271  20.188  0.00  0.00    +0.000 OA
ATOM      8  C   UNL     1       7.575   5.824  19.106  0.00  0.00    +0.000 C 
BRANCH   8   9
ATOM      9  O   UNL     1       8.310   6.932  18.872  0.00  0.00    +0.000 OA
ATOM     10  H   UNL     1       8.995   6.828  18.180  0.00  0.00    +0.000 HD
ENDBRANCH   8   9
ENDBRANCH   1   8
BRANCH   6  11
ATOM     11  N   UNL     1       5.300   3.921  19.247  0.00  0.00    +0.000 N 
ATOM     12  H   UNL     1       5.861   3.146  19.593  0.00  0.00    +0.000 HD
BRANCH  11  13
ATOM     13  C   UNL     1       3.961   3.865  19.703  0.00  0.00    +0.000 A 
ATOM     14  C   UNL     1       3.464   2.676  20.255  0.00  0.00    +0.000 A 
ATOM     15  C   UNL     1       2.245   2.657  20.942  0.00  0.00    +0.000 A 
ATOM     16  C   UNL     1       1.501   3.824  21.075  0.00  0.00    +0.000 A 
ATOM     17  C   UNL     1       1.939   4.993  20.452  0.00  0.00    +0.000 A 
ATOM     18  C   UNL     1       3.148   5.004  19.745  0.00  0.00    +0.000 A 
ENDBRANCH  11  13
ENDBRANCH   6  11
TORSDOF 4
ENDMDL
MODEL 5
REMARK VINA RESULT:      -6.8      2.297      2.935
REMARK  Name = 
REMARK  4 active torsions:
REMARK  status: ('A' for Active; 'I' for Inactive)
REMARK    1  A    between atoms: C_2  and  O_3
REMARK    2  A    between atoms: C_2  and  C_4
REMARK    3  A    between atoms: C_9  and  N_10
REMARK    4  A    between atoms: N_10  and  C_11
REMARK                            x       y       z     vdW  Elec       q    Type
REMARK                         _______ _______ _______ _____ _____    ______ ____
ROOT
ATOM      1  C   UNL     1       6.706   5.240  17.904  0.00  0.00    +0.000 A 
ATOM      2  C   UNL     1       7.087   5.755  16.654  0.00  0.00    +0.000 A 
ATOM      3  C   UNL     1       6.482   5.285  15.498  0.00  0.00    +0.000 A 
ATOM      4  C   UNL     1       5.498   4.327  15.632  0.00  0.00    +0.000 A 
ATOM      5  N   UNL     1       5.070   3.851  16.824  0.00  0.00    +0.000 NA
ATOM      6  C   UNL     1       5.673   4.289  17.956  0.00  0.00    +0.000 A 
ENDROOT
BRANCH   1   8
ATOM      7  O   UNL     1       7.420   5.177  20.163  0.00  0.00    +0.000 OA
ATOM      8  C   UNL     1       7.459   5.741  19.087  0.00  0.00    +0.000 C 
BRANCH   8   9
ATOM      9  O   UNL     1       8.211   6.839  18.864  0.00  0.00    +0.000 OA
ATOM     10  H   UNL     1       8.013   7.595  19.454  0.00  0.00    +0.000 HD
ENDBRANCH   8   9
ENDBRANCH   1   8
BRANCH   6  11
ATOM     11  N   UNL     1       5.233   3.778  19.198  0.00  0.00    +0.000 N 
ATOM     12  H   UNL     1       5.763   2.951  19.464  0.00  0.00    +0.000 HD
BRANCH  11  13
ATOM     13  C   UNL     1       3.916   3.767  19.717  0.00  0.00    +0.000 A 
ATOM     14  C   UNL     1       3.260   4.980  19.971  0.00  0.00    +0.000 A 
ATOM     15  C   UNL     1       1.886   5.013  20.235  0.00  0.00    +0.000 A 
ATOM     16  C   UNL     1       1.153   3.832  20.263  0.00  0.00    +0.000 A 
ATOM     17  C   UNL     1       1.810   2.612  20.103  0.00  0.00    +0.000 A 
ATOM     18  C   UNL     1       3.189   2.580  19.861  0.00  0.00    +0.000 A 
ENDBRANCH  11  13
ENDBRANCH   6  11
TORSDOF 4
ENDMDL
MODEL 6
REMARK VINA RESULT:      -6.8      2.694      5.291
REMARK  Name = 
REMARK  4 active torsions:
REMARK  status: ('A' for Active; 'I' for Inactive)
REMARK    1  A    between atoms: C_2  and  O_3
REMARK    2  A    between atoms: C_2  and  C_4
REMARK    3  A    between atoms: C_9  and  N_10
REMARK    4  A    between atoms: N_10  and  C_11
REMARK                            x       y       z     vdW  Elec       q    Type
REMARK                         _______ _______ _______ _____ _____    ______ ____
ROOT
ATOM      1  C   UNL     1       3.170   3.085  19.695  0.00  0.00    +0.000 A 
ATOM      2  C   UNL     1       1.840   2.842  20.075  0.00  0.00    +0.000 A 
ATOM      3  C   UNL     1       1.035   3.894  20.487  0.00  0.00    +0.000 A 
ATOM      4  C   UNL     1       1.583   5.161  20.486  0.00  0.00    +0.000 A 
ATOM      5  N   UNL     1       2.842   5.434  20.074  0.00  0.00    +0.000 NA
ATOM      6  C   UNL     1       3.641   4.409  19.692  0.00  0.00    +0.000 A 
ENDROOT
BRANCH   1   8
ATOM      7  O   UNL     1       3.681   1.145  18.433  0.00  0.00    +0.000 OA
ATOM      8  C   UNL     1       3.988   1.892  19.341  0.00  0.00    +0.000 C 
BRANCH   8   9
ATOM      9  O   UNL     1       5.107   1.727  20.076  0.00  0.00    +0.000 OA
ATOM     10  H   UNL     1       4.954   1.648  21.040  0.00  0.00    +0.000 HD
ENDBRANCH   8   9
ENDBRANCH   1   8
BRANCH   6  11
ATOM     11  N   UNL     1       4.961   4.697  19.276  0.00  0.00    +0.000 N 
ATOM     12  H   UNL     1       5.397   5.384  19.886  0.00  0.00    +0.000 HD
BRANCH  11  13
ATOM     13  C   UNL     1       5.464   4.751  17.954  0.00  0.00    +0.000 A 
ATOM     14  C   UNL     1       6.849   4.789  17.738  0.00  0.00    +0.000 A 
ATOM     15  C   UNL     1       7.384   4.586  16.462  0.00  0.00    +0.000 A 
ATOM     16  C   UNL     1       6.540   4.354  15.381  0.00  0.00    +0.000 A 
ATOM     17  C   UNL     1       5.158   4.403  15.565  0.00  0.00    +0.000 A 
ATOM     18  C   UNL     1       4.625   4.631  16.840  0.00  0.00    +0.000 A 
ENDBRANCH  11  13
ENDBRANCH   6  11
TORSDOF 4
ENDMDL
MODEL 7
REMARK VINA RESULT:      -6.8      0.970      1.323
REMARK  Name = 
REMARK  4 active torsions:
REMARK  status: ('A' for Active; 'I' for Inactive)
REMARK    1  A    between atoms: C_2  and  O_3
REMARK    2  A    between atoms: C_2  and  C_4
REMARK    3  A    between atoms: C_9  and  N_10
REMARK    4  A    between atoms: N_10  and  C_11
REMARK                            x       y       z     vdW  Elec       q    Type
REMARK                         _______ _______ _______ _____ _____    ______ ____
ROOT
ATOM      1  C   UNL     1       6.220   5.678  17.160  0.00  0.00    +0.000 A 
ATOM      2  C   UNL     1       7.258   6.615  17.293  0.00  0.00    +0.000 A 
ATOM      3  C   UNL     1       7.976   6.689  18.477  0.00  0.00    +0.000 A 
ATOM      4  C   UNL     1       7.644   5.808  19.486  0.00  0.00    +0.000 A 
ATOM      5  N   UNL     1       6.687   4.858  19.369  0.00  0.00    +0.000 NA
ATOM      6  C   UNL     1       5.967   4.795  18.223  0.00  0.00    +0.000 A 
ENDROOT
BRANCH   1   8
ATOM      7  O   UNL     1       5.132   6.762  15.354  0.00  0.00    +0.000 OA
ATOM      8  C   UNL     1       5.449   5.716  15.886  0.00  0.00    +0.000 C 
BRANCH   8   9
ATOM      9  O   UNL     1       5.163   4.510  15.354  0.00  0.00    +0.000 OA
ATOM     10  H   UNL     1       5.209   4.475  14.377  0.00  0.00    +0.000 HD
ENDBRANCH   8   9
ENDBRANCH   1   8
BRANCH   6  11
ATOM     11  N   UNL     1       4.958   3.811  18.111  0.00  0.00    +0.000 N 
ATOM     12  H   UNL     1       5.046   3.291  17.241  0.00  0.00    +0.000 HD
BRANCH  11  13
ATOM     13  C   UNL     1       3.619   3.883  18.565  0.00  0.00    +0.000 A 
ATOM     14  C   UNL     1       2.599   3.276  17.819  0.00  0.00    +0.000 A 
ATOM     15  C   UNL     1       1.319   3.105  18.356  0.00  0.00    +0.000 A 
ATOM     16  C   UNL     1       1.038   3.549  19.644  0.00  0.00    +0.000 A 
ATOM     17  C   UNL     1       2.017   4.234  20.363  0.00  0.00    +0.000 A 
ATOM     18  C   UNL     1       3.291   4.426  19.813  0.00  0.00    +0.000 A 
ENDBRANCH  11  13
ENDBRANCH   6  11
TORSDOF 4
ENDMDL
MODEL 8
REMARK VINA RESULT:      -6.7      2.625      5.684
REMARK  Name = 
REMARK  4 active torsions:
REMARK  status: ('A' for Active; 'I' for Inactive)
REMARK    1  A    between atoms: C_2  and  O_3
REMARK    2  A    between atoms: C_2  and  C_4
REMARK    3  A    between atoms: C_9  and  N_10
REMARK    4  A    between atoms: N_10  and  C_11
REMARK                            x       y       z     vdW  Elec       q    Type
REMARK                         _______ _______ _______ _____ _____    ______ ____
ROOT
ATOM      1  C   UNL     1       3.314   3.057  19.825  0.00  0.00    +0.000 A 
ATOM      2  C   UNL     1       2.329   2.766  20.783  0.00  0.00    +0.000 A 
ATOM      3  C   UNL     1       1.389   3.728  21.123  0.00  0.00    +0.000 A 
ATOM      4  C   UNL     1       1.453   4.945  20.477  0.00  0.00    +0.000 A 
ATOM      5  N   UNL     1       2.354   5.236  19.511  0.00  0.00    +0.000 NA
ATOM      6  C   UNL     1       3.289   4.310  19.190  0.00  0.00    +0.000 A 
ENDROOT
BRANCH   1   8
ATOM      7  O   UNL     1       5.191   1.723  20.388  0.00  0.00    +0.000 OA
ATOM      8  C   UNL     1       4.331   1.998  19.574  0.00  0.00    +0.000 C 
BRANCH   8   9
ATOM      9  O   UNL     1       4.203   1.348  18.399  0.00  0.00    +0.000 OA
ATOM     10  H   UNL     1       4.308   0.376  18.458  0.00  0.00    +0.000 HD
ENDBRANCH   8   9
ENDBRANCH   1   8
BRANCH   6  11
ATOM     11  N   UNL     1       4.238   4.624  18.190  0.00  0.00    +0.000 N 
ATOM     12  H   UNL     1       4.406   3.828  17.578  0.00  0.00    +0.000 HD
BRANCH  11  13
ATOM     13  C   UNL     1       5.368   5.470  18.299  0.00  0.00    +0.000 A 
ATOM     14  C   UNL     1       6.351   5.195  19.260  0.00  0.00    +0.000 A 
ATOM     15  C   UNL     1       7.590   5.846  19.229  0.00  0.00    +0.000 A 
ATOM     16  C   UNL     1       7.857   6.789  18.243  0.00  0.00    +0.000 A 
ATOM     17  C   UNL     1       6.856   7.137  17.335  0.00  0.00    +0.000 A 
ATOM     18  C   UNL     1       5.609   6.502  17.384  0.00  0.00    +0.000 A 
ENDBRANCH  11  13
ENDBRANCH   6  11
TORSDOF 4
ENDMDL
MODEL 9
REMARK VINA RESULT:      -6.7      2.505      3.319
REMARK  Name = 
REMARK  4 active torsions:
REMARK  status: ('A' for Active; 'I' for Inactive)
REMARK    1  A    between atoms: C_2  and  O_3
REMARK    2  A    between atoms: C_2  and  C_4
REMARK    3  A    between atoms: C_9  and  N_10
REMARK    4  A    between atoms: N_10  and  C_11
REMARK                            x       y       z     vdW  Elec       q    Type
REMARK                         _______ _______ _______ _____ _____    ______ ____
ROOT
ATOM      1  C   UNL     1       6.025   4.949  17.567  0.00  0.00    +0.000 A 
ATOM      2  C   UNL     1       7.033   4.426  16.741  0.00  0.00    +0.000 A 
ATOM      3  C   UNL     1       6.989   4.645  15.372  0.00  0.00    +0.000 A 
ATOM      4  C   UNL     1       5.946   5.399  14.875  0.00  0.00    +0.000 A 
ATOM      5  N   UNL     1       4.991   5.963  15.650  0.00  0.00    +0.000 NA
ATOM      6  C   UNL     1       5.015   5.734  16.985  0.00  0.00    +0.000 A 
ENDROOT
BRANCH   1   8
ATOM      7  O   UNL     1       6.587   5.360  19.832  0.00  0.00    +0.000 OA
ATOM      8  C   UNL     1       6.104   4.603  19.013  0.00  0.00    +0.000 C 
BRANCH   8   9
ATOM      9  O   UNL     1       5.570   3.410  19.347  0.00  0.00    +0.000 OA
ATOM     10  H   UNL     1       4.631   3.299  19.092  0.00  0.00    +0.000 HD
ENDBRANCH   8   9
ENDBRANCH   1   8
BRANCH   6  11
ATOM     11  N   UNL     1       4.007   6.313  17.790  0.00  0.00    +0.000 N 
ATOM     12  H   UNL     1       4.369   7.098  18.325  0.00  0.00    +0.000 HD
BRANCH  11  13
ATOM     13  C   UNL     1       2.935   5.659  18.445  0.00  0.00    +0.000 A 
ATOM     14  C   UNL     1       2.275   4.599  17.807  0.00  0.00    +0.000 A 
ATOM     15  C   UNL     1       1.395   3.772  18.513  0.00  0.00    +0.000 A 
ATOM     16  C   UNL     1       1.154   4.000  19.864  0.00  0.00    +0.000 A 
ATOM     17  C   UNL     1       1.735   5.105  20.488  0.00  0.00    +0.000 A 
ATOM     18  C   UNL     1       2.597   5.946  19.772  0.00  0.00    +0.000 A 
ENDBRANCH  11  13
ENDBRANCH   6  11
TORSDOF 4
ENDMDL
