MODEL 1
REMARK VINA RESULT:      -7.9      0.000      0.000
REMARK  Name = 
REMARK  10 active torsions:
REMARK  status: ('A' for Active; 'I' for Inactive)
REMARK    1  A    between atoms: C_1  and  C_2
REMARK    2  A    between atoms: C_2  and  C_3
REMARK    3  A    between atoms: C_3  and  C_4
REMARK    4  A    between atoms: C_4  and  C_5
REMARK    5  A    between atoms: N_11  and  C_12
REMARK    6  A    between atoms: C_12  and  C_13
REMARK    7  A    between atoms: C_19  and  O_20
REMARK    8  A    between atoms: O_20  and  C_21
REMARK    9  A    between atoms: C_24  and  C_25
REMARK   10  A    between atoms: C_25  and  O_27
REMARK                            x       y       z     vdW  Elec       q    Type
REMARK                         _______ _______ _______ _____ _____    ______ ____
ROOT
ATOM      1  C   UNL     1       2.471   4.190  19.221  0.00  0.00    +0.000 C 
ATOM      2  C   UNL     1       1.104   3.716  18.686  0.00  0.00    +0.000 C 
ATOM      3  C   UNL     1       2.222   5.405  20.176  0.00  0.00    +0.000 C 
ATOM      4  O   UNL     1       1.698   5.583  21.253  0.00  0.00    +0.000 OA
ATOM      5  N   UNL     1       2.661   6.284  19.222  0.00  0.00    +0.000 N 
ATOM      6  C   UNL     1       2.349   7.599  18.929  0.00  0.00    +0.000 C 
ATOM      7  O   UNL     1       2.756   8.157  17.914  0.00  0.00    +0.000 OA
ATOM      8  N   UNL     1       1.522   8.227  19.820  0.00  0.00    +0.000 N 
ATOM      9  C   UNL     1       3.263   5.273  18.352  0.00  0.00    +0.000 C 
ATOM     10  H   UNL     1       1.006   7.659  20.483  0.00  0.00    +0.000 HD
ENDROOT
BRANCH   1  11
ATOM     11  C   UNL     1       3.268   3.008  19.812  0.00  0.00    +0.000 C 
BRANCH  11  13
ATOM     12  C   UNL     1       3.818   1.511  17.811  0.00  0.00    +0.000 C 
ATOM     13  C   UNL     1       2.968   1.701  19.057  0.00  0.00    +0.000 C 
ENDBRANCH  11  13
ENDBRANCH   1  11
BRANCH   8  14
ATOM     14  C   UNL     1       1.091   9.598  19.617  0.00  0.00    +0.000 C 
BRANCH  14  15
ATOM     15  C   UNL     1       0.342  10.119  20.818  0.00  0.00    +0.000 A 
ATOM     16  C   UNL     1       0.220   9.317  21.963  0.00  0.00    +0.000 A 
ATOM     17  C   UNL     1      -0.507   9.760  23.068  0.00  0.00    +0.000 A 
ATOM     18  C   UNL     1      -1.105  11.018  23.050  0.00  0.00    +0.000 A 
ATOM     19  C   UNL     1      -0.958  11.841  21.936  0.00  0.00    +0.000 A 
ATOM     20  C   UNL     1      -0.235  11.397  20.824  0.00  0.00    +0.000 A 
ENDBRANCH  14  15
ENDBRANCH   8  14
BRANCH   9  21
ATOM     21  O   UNL     1       4.714   5.184  18.387  0.00  0.00    +0.000 OA
BRANCH  21  22
ATOM     22  C   UNL     1       5.446   5.117  17.223  0.00  0.00    +0.000 A 
ATOM     23  C   UNL     1       6.784   5.485  17.079  0.00  0.00    +0.000 A 
ATOM     24  C   UNL     1       7.415   5.413  15.830  0.00  0.00    +0.000 A 
ATOM     25  C   UNL     1       6.725   4.986  14.693  0.00  0.00    +0.000 A 
ATOM     26  C   UNL     1       5.390   4.588  14.829  0.00  0.00    +0.000 A 
ATOM     27  C   UNL     1       4.760   4.661  16.086  0.00  0.00    +0.000 A 
BRANCH  25  28
ATOM     28  C   UNL     1       7.473   4.928  13.405  0.00  0.00    +0.000 C 
ATOM     29  O   UNL     1       8.438   5.651  13.180  0.00  0.00    +0.000 OA
BRANCH  28  30
ATOM     30  O   UNL     1       6.980   4.072  12.499  0.00  0.00    +0.000 OA
ATOM     31  H   UNL     1       7.309   4.183  11.593  0.00  0.00    +0.000 HD
ENDBRANCH  28  30
ENDBRANCH  25  28
ENDBRANCH  21  22
ENDBRANCH   9  21
TORSDOF 8
ENDMDL
MODEL 2
REMARK VINA RESULT:      -7.9      0.576      1.050
REMARK  Name = 
REMARK  10 active torsions:
REMARK  status: ('A' for Active; 'I' for Inactive)
REMARK    1  A    between atoms: C_1  and  C_2
REMARK    2  A    between atoms: C_2  and  C_3
REMARK    3  A    between atoms: C_3  and  C_4
REMARK    4  A    between atoms: C_4  and  C_5
REMARK    5  A    between atoms: N_11  and  C_12
REMARK    6  A    between atoms: C_12  and  C_13
REMARK    7  A    between atoms: C_19  and  O_20
REMARK    8  A    between atoms: O_20  and  C_21
REMARK    9  A    between atoms: C_24  and  C_25
REMARK   10  A    between atoms: C_25  and  O_27
REMARK                            x       y       z     vdW  Elec       q    Type
REMARK                         _______ _______ _______ _____ _____    ______ ____
ROOT
ATOM      1  C   UNL     1       2.516   4.390  18.930  0.00  0.00    +0.000 C 
ATOM      2  C   UNL     1       1.166   3.909  18.359  0.00  0.00    +0.000 C 
ATOM      3  C   UNL     1       2.229   5.563  19.926  0.00  0.00    +0.000 C 
ATOM      4  O   UNL     1       1.688   5.689  21.002  0.00  0.00    +0.000 OA
ATOM      5  N   UNL     1       2.660   6.487  19.011  0.00  0.00    +0.000 N 
ATOM      6  C   UNL     1       2.323   7.805  18.764  0.00  0.00    +0.000 C 
ATOM      7  O   UNL     1       2.731   8.409  17.776  0.00  0.00    +0.000 OA
ATOM      8  N   UNL     1       1.472   8.381  19.667  0.00  0.00    +0.000 N 
ATOM      9  C   UNL     1       3.295   5.522  18.112  0.00  0.00    +0.000 C 
ATOM     10  H   UNL     1       0.961   7.778  20.302  0.00  0.00    +0.000 HD
ENDROOT
BRANCH   1  11
ATOM     11  C   UNL     1       3.331   3.204  19.486  0.00  0.00    +0.000 C 
BRANCH  11  13
ATOM     12  C   UNL     1       2.330   2.401  21.700  0.00  0.00    +0.000 C 
ATOM     13  C   UNL     1       2.420   2.188  20.198  0.00  0.00    +0.000 C 
ENDBRANCH  11  13
ENDBRANCH   1  11
BRANCH   8  14
ATOM     14  C   UNL     1       1.014   9.750  19.510  0.00  0.00    +0.000 C 
BRANCH  14  15
ATOM     15  C   UNL     1       0.297  10.231  20.746  0.00  0.00    +0.000 A 
ATOM     16  C   UNL     1       0.226   9.402  21.876  0.00  0.00    +0.000 A 
ATOM     17  C   UNL     1      -0.472   9.808  23.015  0.00  0.00    +0.000 A 
ATOM     18  C   UNL     1      -1.091  11.055  23.044  0.00  0.00    +0.000 A 
ATOM     19  C   UNL     1      -0.995  11.904  21.944  0.00  0.00    +0.000 A 
ATOM     20  C   UNL     1      -0.301  11.498  20.800  0.00  0.00    +0.000 A 
ENDBRANCH  14  15
ENDBRANCH   8  14
BRANCH   9  21
ATOM     21  O   UNL     1       4.747   5.463  18.162  0.00  0.00    +0.000 OA
BRANCH  21  22
ATOM     22  C   UNL     1       5.489   5.340  17.009  0.00  0.00    +0.000 A 
ATOM     23  C   UNL     1       6.811   5.756  16.843  0.00  0.00    +0.000 A 
ATOM     24  C   UNL     1       7.453   5.617  15.605  0.00  0.00    +0.000 A 
ATOM     25  C   UNL     1       6.791   5.073  14.502  0.00  0.00    +0.000 A 
ATOM     26  C   UNL     1       5.474   4.627  14.663  0.00  0.00    +0.000 A 
ATOM     27  C   UNL     1       4.833   4.767  15.909  0.00  0.00    +0.000 A 
BRANCH  25  28
ATOM     28  C   UNL     1       7.550   4.950  13.225  0.00  0.00    +0.000 C 
ATOM     29  O   UNL     1       7.227   4.153  12.351  0.00  0.00    +0.000 OA
BRANCH  28  30
ATOM     30  O   UNL     1       8.635   5.733  13.130  0.00  0.00    +0.000 OA
ATOM     31  H   UNL     1       8.842   6.260  13.917  0.00  0.00    +0.000 HD
ENDBRANCH  28  30
ENDBRANCH  25  28
ENDBRANCH  21  22
ENDBRANCH   9  21
TORSDOF 8
ENDMDL
MODEL 3
REMARK VINA RESULT:      -7.8      0.296      1.108
REMARK  Name = 
REMARK  10 active torsions:
REMARK  status: ('A' for Active; 'I' for Inactive)
REMARK    1  A    between atoms: C_1  and  C_2
REMARK    2  A    between atoms: C_2  and  C_3
REMARK    3  A    between atoms: C_3  and  C_4
REMARK    4  A    between atoms: C_4  and  C_5
REMARK    5  A    between atoms: N_11  and  C_12
REMARK    6  A    between atoms: C_12  and  C_13
REMARK    7  A    between atoms: C_19  and  O_20
REMARK    8  A    between atoms: O_20  and  C_21
REMARK    9  A    between atoms: C_24  and  C_25
REMARK   10  A    between atoms: C_25  and  O_27
REMARK                            x       y       z     vdW  Elec       q    Type
REMARK                         _______ _______ _______ _____ _____    ______ ____
ROOT
ATOM      1  C   UNL     1       2.286   3.957  19.125  0.00  0.00    +0.000 C 
ATOM      2  C   UNL     1       0.887   3.617  18.569  0.00  0.00    +0.000 C 
ATOM      3  C   UNL     1       2.130   5.145  20.132  0.00  0.00    +0.000 C 
ATOM      4  O   UNL     1       1.618   5.317  21.216  0.00  0.00    +0.000 OA
ATOM      5  N   UNL     1       2.641   6.027  19.218  0.00  0.00    +0.000 N 
ATOM      6  C   UNL     1       2.435   7.374  18.982  0.00  0.00    +0.000 C 
ATOM      7  O   UNL     1       2.890   7.942  17.993  0.00  0.00    +0.000 OA
ATOM      8  N   UNL     1       1.657   8.026  19.900  0.00  0.00    +0.000 N 
ATOM      9  C   UNL     1       3.164   5.010  18.304  0.00  0.00    +0.000 C 
ATOM     10  H   UNL     1       1.095   7.473  20.537  0.00  0.00    +0.000 HD
ENDROOT
BRANCH   1  11
ATOM     11  C   UNL     1       2.984   2.691  19.664  0.00  0.00    +0.000 C 
BRANCH  11  13
ATOM     12  C   UNL     1       4.122   1.110  18.004  0.00  0.00    +0.000 C 
ATOM     13  C   UNL     1       2.826   1.510  18.689  0.00  0.00    +0.000 C 
ENDBRANCH  11  13
ENDBRANCH   1  11
BRANCH   8  14
ATOM     14  C   UNL     1       1.337   9.435  19.757  0.00  0.00    +0.000 C 
BRANCH  14  15
ATOM     15  C   UNL     1       0.469   9.916  20.892  0.00  0.00    +0.000 A 
ATOM     16  C   UNL     1      -0.300  11.079  20.735  0.00  0.00    +0.000 A 
ATOM     17  C   UNL     1      -1.075  11.568  21.787  0.00  0.00    +0.000 A 
ATOM     18  C   UNL     1      -1.107  10.889  23.003  0.00  0.00    +0.000 A 
ATOM     19  C   UNL     1      -0.380   9.710  23.159  0.00  0.00    +0.000 A 
ATOM     20  C   UNL     1       0.402   9.222  22.108  0.00  0.00    +0.000 A 
ENDBRANCH  14  15
ENDBRANCH   8  14
BRANCH   9  21
ATOM     21  O   UNL     1       4.604   4.805  18.336  0.00  0.00    +0.000 OA
BRANCH  21  22
ATOM     22  C   UNL     1       5.348   4.841  17.178  0.00  0.00    +0.000 A 
ATOM     23  C   UNL     1       6.612   5.417  17.040  0.00  0.00    +0.000 A 
ATOM     24  C   UNL     1       7.258   5.432  15.796  0.00  0.00    +0.000 A 
ATOM     25  C   UNL     1       6.656   4.885  14.661  0.00  0.00    +0.000 A 
ATOM     26  C   UNL     1       5.400   4.281  14.792  0.00  0.00    +0.000 A 
ATOM     27  C   UNL     1       4.755   4.267  16.043  0.00  0.00    +0.000 A 
BRANCH  25  28
ATOM     28  C   UNL     1       7.416   4.932  13.379  0.00  0.00    +0.000 C 
ATOM     29  O   UNL     1       7.144   4.198  12.435  0.00  0.00    +0.000 OA
BRANCH  28  30
ATOM     30  O   UNL     1       8.445   5.792  13.358  0.00  0.00    +0.000 OA
ATOM     31  H   UNL     1       9.310   5.405  13.157  0.00  0.00    +0.000 HD
ENDBRANCH  28  30
ENDBRANCH  25  28
ENDBRANCH  21  22
ENDBRANCH   9  21
TORSDOF 8
ENDMDL
MODEL 4
REMARK VINA RESULT:      -7.8      1.911      2.492
REMARK  Name = 
REMARK  10 active torsions:
REMARK  status: ('A' for Active; 'I' for Inactive)
REMARK    1  A    between atoms: C_1  and  C_2
REMARK    2  A    between atoms: C_2  and  C_3
REMARK    3  A    between atoms: C_3  and  C_4
REMARK    4  A    between atoms: C_4  and  C_5
REMARK    5  A    between atoms: N_11  and  C_12
REMARK    6  A    between atoms: C_12  and  C_13
REMARK    7  A    between atoms: C_19  and  O_20
REMARK    8  A    between atoms: O_20  and  C_21
REMARK    9  A    between atoms: C_24  and  C_25
REMARK   10  A    between atoms: C_25  and  O_27
REMARK                            x       y       z     vdW  Elec       q    Type
REMARK                         _______ _______ _______ _____ _____    ______ ____
ROOT
ATOM      1  C   UNL     1       2.024   5.420  20.182  0.00  0.00    +0.000 C 
ATOM      2  C   UNL     1       0.617   4.837  19.938  0.00  0.00    +0.000 C 
ATOM      3  C   UNL     1       1.860   6.921  20.596  0.00  0.00    +0.000 C 
ATOM      4  O   UNL     1       1.406   7.527  21.541  0.00  0.00    +0.000 OA
ATOM      5  N   UNL     1       2.261   7.339  19.355  0.00  0.00    +0.000 N 
ATOM      6  C   UNL     1       1.962   8.448  18.586  0.00  0.00    +0.000 C 
ATOM      7  O   UNL     1       2.321   8.549  17.416  0.00  0.00    +0.000 OA
ATOM      8  N   UNL     1       1.204   9.410  19.198  0.00  0.00    +0.000 N 
ATOM      9  C   UNL     1       2.787   6.043  18.923  0.00  0.00    +0.000 C 
ATOM     10  H   UNL     1       0.716   9.168  20.054  0.00  0.00    +0.000 HD
ENDROOT
BRANCH   1  11
ATOM     11  C   UNL     1       2.828   4.527  21.150  0.00  0.00    +0.000 C 
BRANCH  11  13
ATOM     12  C   UNL     1       3.929   2.486  20.067  0.00  0.00    +0.000 C 
ATOM     13  C   UNL     1       2.701   3.040  20.772  0.00  0.00    +0.000 C 
ENDBRANCH  11  13
ENDBRANCH   1  11
BRANCH   8  14
ATOM     14  C   UNL     1       0.793  10.612  18.496  0.00  0.00    +0.000 C 
BRANCH  14  15
ATOM     15  C   UNL     1      -0.705  10.662  18.329  0.00  0.00    +0.000 A 
ATOM     16  C   UNL     1      -1.337   9.770  17.450  0.00  0.00    +0.000 A 
ATOM     17  C   UNL     1      -2.716   9.828  17.245  0.00  0.00    +0.000 A 
ATOM     18  C   UNL     1      -3.483  10.766  17.933  0.00  0.00    +0.000 A 
ATOM     19  C   UNL     1      -2.874  11.631  18.839  0.00  0.00    +0.000 A 
ATOM     20  C   UNL     1      -1.491  11.578  19.041  0.00  0.00    +0.000 A 
ENDBRANCH  14  15
ENDBRANCH   8  14
BRANCH   9  21
ATOM     21  O   UNL     1       4.235   5.911  18.922  0.00  0.00    +0.000 OA
BRANCH  21  22
ATOM     22  C   UNL     1       4.913   5.572  17.773  0.00  0.00    +0.000 A 
ATOM     23  C   UNL     1       5.847   4.542  17.651  0.00  0.00    +0.000 A 
ATOM     24  C   UNL     1       6.508   4.317  16.437  0.00  0.00    +0.000 A 
ATOM     25  C   UNL     1       6.266   5.120  15.320  0.00  0.00    +0.000 A 
ATOM     26  C   UNL     1       5.312   6.139  15.421  0.00  0.00    +0.000 A 
ATOM     27  C   UNL     1       4.649   6.362  16.643  0.00  0.00    +0.000 A 
BRANCH  25  28
ATOM     28  C   UNL     1       7.004   4.806  14.063  0.00  0.00    +0.000 C 
ATOM     29  O   UNL     1       6.670   3.884  13.327  0.00  0.00    +0.000 OA
BRANCH  28  30
ATOM     30  O   UNL     1       8.082   5.568  13.831  0.00  0.00    +0.000 OA
ATOM     31  H   UNL     1       8.936   5.112  13.878  0.00  0.00    +0.000 HD
ENDBRANCH  28  30
ENDBRANCH  25  28
ENDBRANCH  21  22
ENDBRANCH   9  21
TORSDOF 8
ENDMDL
MODEL 5
REMARK VINA RESULT:      -7.8      1.961      2.550
REMARK  Name = 
REMARK  10 active torsions:
REMARK  status: ('A' for Active; 'I' for Inactive)
REMARK    1  A    between atoms: C_1  and  C_2
REMARK    2  A    between atoms: C_2  and  C_3
REMARK    3  A    between atoms: C_3  and  C_4
REMARK    4  A    between atoms: C_4  and  C_5
REMARK    5  A    between atoms: N_11  and  C_12
REMARK    6  A    between atoms: C_12  and  C_13
REMARK    7  A    between atoms: C_19  and  O_20
REMARK    8  A    between atoms: O_20  and  C_21
REMARK    9  A    between atoms: C_24  and  C_25
REMARK   10  A    between atoms: C_25  and  O_27
REMARK                            x       y       z     vdW  Elec       q    Type
REMARK                         _______ _______ _______ _____ _____    ______ ____
ROOT
ATOM      1  C   UNL     1       1.943   5.483  20.227  0.00  0.00    +0.000 C 
ATOM      2  C   UNL     1       0.529   4.913  19.997  0.00  0.00    +0.000 C 
ATOM      3  C   UNL     1       1.798   6.989  20.630  0.00  0.00    +0.000 C 
ATOM      4  O   UNL     1       1.356   7.608  21.572  0.00  0.00    +0.000 OA
ATOM      5  N   UNL     1       2.196   7.392  19.383  0.00  0.00    +0.000 N 
ATOM      6  C   UNL     1       1.904   8.498  18.606  0.00  0.00    +0.000 C 
ATOM      7  O   UNL     1       2.256   8.585  17.433  0.00  0.00    +0.000 OA
ATOM      8  N   UNL     1       1.160   9.473  19.215  0.00  0.00    +0.000 N 
ATOM      9  C   UNL     1       2.705   6.087  18.958  0.00  0.00    +0.000 C 
ATOM     10  H   UNL     1       0.675   9.243  20.075  0.00  0.00    +0.000 HD
ENDROOT
BRANCH   1  11
ATOM     11  C   UNL     1       2.744   4.589  21.198  0.00  0.00    +0.000 C 
BRANCH  11  13
ATOM     12  C   UNL     1       3.844   2.486  20.242  0.00  0.00    +0.000 C 
ATOM     13  C   UNL     1       2.589   3.101  20.841  0.00  0.00    +0.000 C 
ENDBRANCH  11  13
ENDBRANCH   1  11
BRANCH   8  14
ATOM     14  C   UNL     1       0.757  10.673  18.504  0.00  0.00    +0.000 C 
BRANCH  14  15
ATOM     15  C   UNL     1      -0.734  10.701  18.281  0.00  0.00    +0.000 A 
ATOM     16  C   UNL     1      -1.517  11.661  18.939  0.00  0.00    +0.000 A 
ATOM     17  C   UNL     1      -2.904  11.677  18.784  0.00  0.00    +0.000 A 
ATOM     18  C   UNL     1      -3.522  10.746  17.953  0.00  0.00    +0.000 A 
ATOM     19  C   UNL     1      -2.752   9.811  17.263  0.00  0.00    +0.000 A 
ATOM     20  C   UNL     1      -1.363   9.790  17.422  0.00  0.00    +0.000 A 
ENDBRANCH  14  15
ENDBRANCH   8  14
BRANCH   9  21
ATOM     21  O   UNL     1       4.152   5.939  18.950  0.00  0.00    +0.000 OA
BRANCH  21  22
ATOM     22  C   UNL     1       4.817   5.569  17.803  0.00  0.00    +0.000 A 
ATOM     23  C   UNL     1       5.563   4.402  17.635  0.00  0.00    +0.000 A 
ATOM     24  C   UNL     1       6.236   4.151  16.432  0.00  0.00    +0.000 A 
ATOM     25  C   UNL     1       6.192   5.061  15.374  0.00  0.00    +0.000 A 
ATOM     26  C   UNL     1       5.425   6.223  15.519  0.00  0.00    +0.000 A 
ATOM     27  C   UNL     1       4.750   6.471  16.730  0.00  0.00    +0.000 A 
BRANCH  25  28
ATOM     28  C   UNL     1       6.926   4.712  14.123  0.00  0.00    +0.000 C 
ATOM     29  O   UNL     1       7.781   5.449  13.645  0.00  0.00    +0.000 OA
BRANCH  28  30
ATOM     30  O   UNL     1       6.543   3.568  13.539  0.00  0.00    +0.000 OA
ATOM     31  H   UNL     1       7.258   3.020  13.180  0.00  0.00    +0.000 HD
ENDBRANCH  28  30
ENDBRANCH  25  28
ENDBRANCH  21  22
ENDBRANCH   9  21
TORSDOF 8
ENDMDL
MODEL 6
REMARK VINA RESULT:      -7.7      1.470      2.001
REMARK  Name = 
REMARK  10 active torsions:
REMARK  status: ('A' for Active; 'I' for Inactive)
REMARK    1  A    between atoms: C_1  and  C_2
REMARK    2  A    between atoms: C_2  and  C_3
REMARK    3  A    between atoms: C_3  and  C_4
REMARK    4  A    between atoms: C_4  and  C_5
REMARK    5  A    between atoms: N_11  and  C_12
REMARK    6  A    between atoms: C_12  and  C_13
REMARK    7  A    between atoms: C_19  and  O_20
REMARK    8  A    between atoms: O_20  and  C_21
REMARK    9  A    between atoms: C_24  and  C_25
REMARK   10  A    between atoms: C_25  and  O_27
REMARK                            x       y       z     vdW  Elec       q    Type
REMARK                         _______ _______ _______ _____ _____    ______ ____
ROOT
ATOM      1  C   UNL     1       2.346   4.272  18.884  0.00  0.00    +0.000 C 
ATOM      2  C   UNL     1       0.928   3.891  18.411  0.00  0.00    +0.000 C 
ATOM      3  C   UNL     1       2.265   5.673  19.577  0.00  0.00    +0.000 C 
ATOM      4  O   UNL     1       1.769   6.128  20.584  0.00  0.00    +0.000 OA
ATOM      5  N   UNL     1       2.823   6.281  18.483  0.00  0.00    +0.000 N 
ATOM      6  C   UNL     1       2.696   7.542  17.932  0.00  0.00    +0.000 C 
ATOM      7  O   UNL     1       3.179   7.830  16.840  0.00  0.00    +0.000 OA
ATOM      8  N   UNL     1       1.962   8.438  18.660  0.00  0.00    +0.000 N 
ATOM      9  C   UNL     1       3.282   5.046  17.844  0.00  0.00    +0.000 C 
ATOM     10  H   UNL     1       1.371   8.086  19.406  0.00  0.00    +0.000 HD
ENDROOT
BRANCH   1  11
ATOM     11  C   UNL     1       2.971   3.132  19.715  0.00  0.00    +0.000 C 
BRANCH  11  13
ATOM     12  C   UNL     1       1.605   2.685  21.833  0.00  0.00    +0.000 C 
ATOM     13  C   UNL     1       1.886   2.279  20.395  0.00  0.00    +0.000 C 
ENDBRANCH  11  13
ENDBRANCH   1  11
BRANCH   8  14
ATOM     14  C   UNL     1       1.724   9.789  18.182  0.00  0.00    +0.000 C 
BRANCH  14  15
ATOM     15  C   UNL     1       0.318  10.237  18.489  0.00  0.00    +0.000 A 
ATOM     16  C   UNL     1      -0.738   9.833  17.658  0.00  0.00    +0.000 A 
ATOM     17  C   UNL     1      -2.041  10.273  17.897  0.00  0.00    +0.000 A 
ATOM     18  C   UNL     1      -2.307  11.107  18.980  0.00  0.00    +0.000 A 
ATOM     19  C   UNL     1      -1.274  11.484  19.837  0.00  0.00    +0.000 A 
ATOM     20  C   UNL     1       0.033  11.049  19.597  0.00  0.00    +0.000 A 
ENDBRANCH  14  15
ENDBRANCH   8  14
BRANCH   9  21
ATOM     21  O   UNL     1       4.707   4.771  17.937  0.00  0.00    +0.000 OA
BRANCH  21  22
ATOM     22  C   UNL     1       5.517   4.858  16.828  0.00  0.00    +0.000 A 
ATOM     23  C   UNL     1       6.770   5.472  16.780  0.00  0.00    +0.000 A 
ATOM     24  C   UNL     1       7.488   5.537  15.579  0.00  0.00    +0.000 A 
ATOM     25  C   UNL     1       6.970   5.004  14.396  0.00  0.00    +0.000 A 
ATOM     26  C   UNL     1       5.728   4.362  14.436  0.00  0.00    +0.000 A 
ATOM     27  C   UNL     1       5.009   4.298  15.645  0.00  0.00    +0.000 A 
BRANCH  25  28
ATOM     28  C   UNL     1       7.804   5.105  13.163  0.00  0.00    +0.000 C 
ATOM     29  O   UNL     1       8.779   5.846  13.097  0.00  0.00    +0.000 OA
BRANCH  28  30
ATOM     30  O   UNL     1       7.376   4.372  12.125  0.00  0.00    +0.000 OA
ATOM     31  H   UNL     1       7.293   4.845  11.283  0.00  0.00    +0.000 HD
ENDBRANCH  28  30
ENDBRANCH  25  28
ENDBRANCH  21  22
ENDBRANCH   9  21
TORSDOF 8
ENDMDL
MODEL 7
REMARK VINA RESULT:      -7.7      2.061      2.672
REMARK  Name = 
REMARK  10 active torsions:
REMARK  status: ('A' for Active; 'I' for Inactive)
REMARK    1  A    between atoms: C_1  and  C_2
REMARK    2  A    between atoms: C_2  and  C_3
REMARK    3  A    between atoms: C_3  and  C_4
REMARK    4  A    between atoms: C_4  and  C_5
REMARK    5  A    between atoms: N_11  and  C_12
REMARK    6  A    between atoms: C_12  and  C_13
REMARK    7  A    between atoms: C_19  and  O_20
REMARK    8  A    between atoms: O_20  and  C_21
REMARK    9  A    between atoms: C_24  and  C_25
REMARK   10  A    between atoms: C_25  and  O_27
REMARK                            x       y       z     vdW  Elec       q    Type
REMARK                         _______ _______ _______ _____ _____    ______ ____
ROOT
ATOM      1  C   UNL     1       1.918   5.587  20.246  0.00  0.00    +0.000 C 
ATOM      2  C   UNL     1       0.509   5.000  20.023  0.00  0.00    +0.000 C 
ATOM      3  C   UNL     1       1.756   7.090  20.655  0.00  0.00    +0.000 C 
ATOM      4  O   UNL     1       1.313   7.700  21.603  0.00  0.00    +0.000 OA
ATOM      5  N   UNL     1       2.140   7.503  19.406  0.00  0.00    +0.000 N 
ATOM      6  C   UNL     1       1.829   8.608  18.636  0.00  0.00    +0.000 C 
ATOM      7  O   UNL     1       2.173   8.704  17.461  0.00  0.00    +0.000 OA
ATOM      8  N   UNL     1       1.078   9.571  19.254  0.00  0.00    +0.000 N 
ATOM      9  C   UNL     1       2.663   6.206  18.974  0.00  0.00    +0.000 C 
ATOM     10  H   UNL     1       0.601   9.332  20.116  0.00  0.00    +0.000 HD
ENDROOT
BRANCH   1  11
ATOM     11  C   UNL     1       2.736   4.701  21.208  0.00  0.00    +0.000 C 
BRANCH  11  13
ATOM     12  C   UNL     1       1.859   2.383  21.850  0.00  0.00    +0.000 C 
ATOM     13  C   UNL     1       2.620   3.214  20.828  0.00  0.00    +0.000 C 
ENDBRANCH  11  13
ENDBRANCH   1  11
BRANCH   8  14
ATOM     14  C   UNL     1       0.655  10.769  18.550  0.00  0.00    +0.000 C 
BRANCH  14  15
ATOM     15  C   UNL     1      -0.837  10.775  18.330  0.00  0.00    +0.000 A 
ATOM     16  C   UNL     1      -1.408   9.878  17.415  0.00  0.00    +0.000 A 
ATOM     17  C   UNL     1      -2.780   9.897  17.161  0.00  0.00    +0.000 A 
ATOM     18  C   UNL     1      -3.601  10.800  17.833  0.00  0.00    +0.000 A 
ATOM     19  C   UNL     1      -3.052  11.669  18.774  0.00  0.00    +0.000 A 
ATOM     20  C   UNL     1      -1.677  11.656  19.026  0.00  0.00    +0.000 A 
ENDBRANCH  14  15
ENDBRANCH   8  14
BRANCH   9  21
ATOM     21  O   UNL     1       4.111   6.076  18.955  0.00  0.00    +0.000 OA
BRANCH  21  22
ATOM     22  C   UNL     1       4.782   5.807  17.783  0.00  0.00    +0.000 A 
ATOM     23  C   UNL     1       4.755   6.592  16.630  0.00  0.00    +0.000 A 
ATOM     24  C   UNL     1       5.446   6.193  15.478  0.00  0.00    +0.000 A 
ATOM     25  C   UNL     1       6.167   4.998  15.443  0.00  0.00    +0.000 A 
ATOM     26  C   UNL     1       6.224   4.214  16.601  0.00  0.00    +0.000 A 
ATOM     27  C   UNL     1       5.529   4.619  17.758  0.00  0.00    +0.000 A 
BRANCH  25  28
ATOM     28  C   UNL     1       6.883   4.653  14.181  0.00  0.00    +0.000 C 
ATOM     29  O   UNL     1       7.758   5.372  13.713  0.00  0.00    +0.000 OA
BRANCH  28  30
ATOM     30  O   UNL     1       6.460   3.533  13.576  0.00  0.00    +0.000 OA
ATOM     31  H   UNL     1       5.763   3.043  14.038  0.00  0.00    +0.000 HD
ENDBRANCH  28  30
ENDBRANCH  25  28
ENDBRANCH  21  22
ENDBRANCH   9  21
TORSDOF 8
ENDMDL
MODEL 8
REMARK VINA RESULT:      -7.6      0.788      1.417
REMARK  Name = 
REMARK  10 active torsions:
REMARK  status: ('A' for Active; 'I' for Inactive)
REMARK    1  A    between atoms: C_1  and  C_2
REMARK    2  A    between atoms: C_2  and  C_3
REMARK    3  A    between atoms: C_3  and  C_4
REMARK    4  A    between atoms: C_4  and  C_5
REMARK    5  A    between atoms: N_11  and  C_12
REMARK    6  A    between atoms: C_12  and  C_13
REMARK    7  A    between atoms: C_19  and  O_20
REMARK    8  A    between atoms: O_20  and  C_21
REMARK    9  A    between atoms: C_24  and  C_25
REMARK   10  A    between atoms: C_25  and  O_27
REMARK                            x       y       z     vdW  Elec       q    Type
REMARK                         _______ _______ _______ _____ _____    ______ ____
ROOT
ATOM      1  C   UNL     1       2.232   3.610  18.816  0.00  0.00    +0.000 C 
ATOM      2  C   UNL     1       0.785   3.352  18.348  0.00  0.00    +0.000 C 
ATOM      3  C   UNL     1       2.202   4.775  19.861  0.00  0.00    +0.000 C 
ATOM      4  O   UNL     1       1.773   4.940  20.981  0.00  0.00    +0.000 OA
ATOM      5  N   UNL     1       2.693   5.658  18.936  0.00  0.00    +0.000 N 
ATOM      6  C   UNL     1       2.538   7.019  18.749  0.00  0.00    +0.000 C 
ATOM      7  O   UNL     1       2.952   7.593  17.745  0.00  0.00    +0.000 OA
ATOM      8  N   UNL     1       1.856   7.681  19.734  0.00  0.00    +0.000 N 
ATOM      9  C   UNL     1       3.104   4.644  17.963  0.00  0.00    +0.000 C 
ATOM     10  H   UNL     1       1.311   7.136  20.394  0.00  0.00    +0.000 HD
ENDROOT
BRANCH   1  11
ATOM     11  C   UNL     1       2.902   2.298  19.273  0.00  0.00    +0.000 C 
BRANCH  11  13
ATOM     12  C   UNL     1       4.992   1.835  20.677  0.00  0.00    +0.000 C 
ATOM     13  C   UNL     1       3.616   2.479  20.625  0.00  0.00    +0.000 C 
ENDBRANCH  11  13
ENDBRANCH   1  11
BRANCH   8  14
ATOM     14  C   UNL     1       1.596   9.107  19.648  0.00  0.00    +0.000 C 
BRANCH  14  15
ATOM     15  C   UNL     1       0.790   9.586  20.829  0.00  0.00    +0.000 A 
ATOM     16  C   UNL     1       0.846   8.882  22.041  0.00  0.00    +0.000 A 
ATOM     17  C   UNL     1       0.074   9.281  23.133  0.00  0.00    +0.000 A 
ATOM     18  C   UNL     1      -0.749  10.400  23.033  0.00  0.00    +0.000 A 
ATOM     19  C   UNL     1      -0.784  11.133  21.848  0.00  0.00    +0.000 A 
ATOM     20  C   UNL     1      -0.015  10.731  20.751  0.00  0.00    +0.000 A 
ENDBRANCH  14  15
ENDBRANCH   8  14
BRANCH   9  21
ATOM     21  O   UNL     1       4.531   4.371  17.891  0.00  0.00    +0.000 OA
BRANCH  21  22
ATOM     22  C   UNL     1       5.222   4.531  16.711  0.00  0.00    +0.000 A 
ATOM     23  C   UNL     1       4.731   4.250  15.435  0.00  0.00    +0.000 A 
ATOM     24  C   UNL     1       5.545   4.412  14.306  0.00  0.00    +0.000 A 
ATOM     25  C   UNL     1       6.868   4.845  14.422  0.00  0.00    +0.000 A 
ATOM     26  C   UNL     1       7.363   5.156  15.693  0.00  0.00    +0.000 A 
ATOM     27  C   UNL     1       6.542   4.993  16.826  0.00  0.00    +0.000 A 
BRANCH  25  28
ATOM     28  C   UNL     1       7.661   5.002  13.169  0.00  0.00    +0.000 C 
ATOM     29  O   UNL     1       7.410   4.359  12.156  0.00  0.00    +0.000 OA
BRANCH  28  30
ATOM     30  O   UNL     1       8.695   5.852  13.254  0.00  0.00    +0.000 OA
ATOM     31  H   UNL     1       9.233   5.939  12.452  0.00  0.00    +0.000 HD
ENDBRANCH  28  30
ENDBRANCH  25  28
ENDBRANCH  21  22
ENDBRANCH   9  21
TORSDOF 8
ENDMDL
MODEL 9
REMARK VINA RESULT:      -7.6      2.274      8.648
REMARK  Name = 
REMARK  10 active torsions:
REMARK  status: ('A' for Active; 'I' for Inactive)
REMARK    1  A    between atoms: C_1  and  C_2
REMARK    2  A    between atoms: C_2  and  C_3
REMARK    3  A    between atoms: C_3  and  C_4
REMARK    4  A    between atoms: C_4  and  C_5
REMARK    5  A    between atoms: N_11  and  C_12
REMARK    6  A    between atoms: C_12  and  C_13
REMARK    7  A    between atoms: C_19  and  O_20
REMARK    8  A    between atoms: O_20  and  C_21
REMARK    9  A    between atoms: C_24  and  C_25
REMARK   10  A    between atoms: C_25  and  O_27
REMARK                            x       y       z     vdW  Elec       q    Type
REMARK                         _______ _______ _______ _____ _____    ______ ____
ROOT
ATOM      1  C   UNL     1       2.773   4.842  19.258  0.00  0.00    +0.000 C 
ATOM      2  C   UNL     1       3.585   4.257  20.432  0.00  0.00    +0.000 C 
ATOM      3  C   UNL     1       3.396   4.308  17.925  0.00  0.00    +0.000 C 
ATOM      4  O   UNL     1       3.495   3.236  17.369  0.00  0.00    +0.000 OA
ATOM      5  N   UNL     1       3.994   5.516  17.684  0.00  0.00    +0.000 N 
ATOM      6  C   UNL     1       5.156   5.886  17.032  0.00  0.00    +0.000 C 
ATOM      7  O   UNL     1       5.589   7.034  17.068  0.00  0.00    +0.000 OA
ATOM      8  N   UNL     1       5.816   4.881  16.377  0.00  0.00    +0.000 N 
ATOM      9  C   UNL     1       3.233   6.263  18.687  0.00  0.00    +0.000 C 
ATOM     10  H   UNL     1       5.572   3.921  16.595  0.00  0.00    +0.000 HD
ENDROOT
BRANCH   1  11
ATOM     11  C   UNL     1       1.264   4.592  19.457  0.00  0.00    +0.000 C 
BRANCH  11  13
ATOM     12  C   UNL     1       0.608   2.178  18.916  0.00  0.00    +0.000 C 
ATOM     13  C   UNL     1       1.000   3.175  19.995  0.00  0.00    +0.000 C 
ENDBRANCH  11  13
ENDBRANCH   1  11
BRANCH   8  14
ATOM     14  C   UNL     1       7.064   5.125  15.677  0.00  0.00    +0.000 C 
BRANCH  14  15
ATOM     15  C   UNL     1       6.964   4.725  14.227  0.00  0.00    +0.000 A 
ATOM     16  C   UNL     1       6.025   3.759  13.835  0.00  0.00    +0.000 A 
ATOM     17  C   UNL     1       5.946   3.340  12.506  0.00  0.00    +0.000 A 
ATOM     18  C   UNL     1       6.792   3.895  11.550  0.00  0.00    +0.000 A 
ATOM     19  C   UNL     1       7.703   4.883  11.917  0.00  0.00    +0.000 A 
ATOM     20  C   UNL     1       7.788   5.301  13.249  0.00  0.00    +0.000 A 
ENDBRANCH  14  15
ENDBRANCH   8  14
BRANCH   9  21
ATOM     21  O   UNL     1       2.175   7.120  18.176  0.00  0.00    +0.000 OA
BRANCH  21  22
ATOM     22  C   UNL     1       1.746   8.216  18.890  0.00  0.00    +0.000 A 
ATOM     23  C   UNL     1       1.529   8.257  20.268  0.00  0.00    +0.000 A 
ATOM     24  C   UNL     1       1.050   9.421  20.881  0.00  0.00    +0.000 A 
ATOM     25  C   UNL     1       0.763  10.567  20.136  0.00  0.00    +0.000 A 
ATOM     26  C   UNL     1       1.002  10.548  18.758  0.00  0.00    +0.000 A 
ATOM     27  C   UNL     1       1.485   9.376  18.145  0.00  0.00    +0.000 A 
BRANCH  25  28
ATOM     28  C   UNL     1       0.266  11.768  20.868  0.00  0.00    +0.000 C 
ATOM     29  O   UNL     1       1.018  12.496  21.507  0.00  0.00    +0.000 OA
BRANCH  28  30
ATOM     30  O   UNL     1      -1.060  11.956  20.819  0.00  0.00    +0.000 OA
ATOM     31  H   UNL     1      -1.576  11.218  20.460  0.00  0.00    +0.000 HD
ENDBRANCH  28  30
ENDBRANCH  25  28
ENDBRANCH  21  22
ENDBRANCH   9  21
TORSDOF 8
ENDMDL
