MODEL 1
REMARK VINA RESULT:      -8.2      0.000      0.000
REMARK  Name = 
REMARK  5 active torsions:
REMARK  status: ('A' for Active; 'I' for Inactive)
REMARK    1  A    between atoms: C_1  and  C_2
REMARK    2  A    between atoms: C_3  and  N_4
REMARK    3  A    between atoms: N_7  and  C_8
REMARK    4  A    between atoms: C_12  and  S_13
REMARK    5  A    between atoms: S_13  and  N_14
REMARK                            x       y       z     vdW  Elec       q    Type
REMARK                         _______ _______ _______ _____ _____    ______ ____
ROOT
ATOM      1  N   UNL     1       1.276   6.913  21.288  0.00  0.00    +0.000 N 
ATOM      2  C   UNL     1       2.012   5.972  20.612  0.00  0.00    +0.000 C 
ATOM      3  O   UNL     1       1.908   4.792  20.946  0.00  0.00    +0.000 OA
ATOM      4  N   UNL     1       2.810   6.425  19.596  0.00  0.00    +0.000 N 
ATOM      5  H   UNL     1       0.660   6.523  21.987  0.00  0.00    +0.000 HD
ATOM      6  H   UNL     1       3.126   7.380  19.716  0.00  0.00    +0.000 HD
ENDROOT
BRANCH   1   9
ATOM      7  C   UNL     1       0.295   9.385  23.135  0.00  0.00    +0.000 C 
ATOM      8  C   UNL     1       0.750   9.334  21.724  0.00  0.00    +0.000 A 
ATOM      9  C   UNL     1       1.160   8.245  20.972  0.00  0.00    +0.000 A 
ATOM     10  O   UNL     1       1.488   8.639  19.711  0.00  0.00    +0.000 OA
ATOM     11  C   UNL     1       1.247   9.968  19.619  0.00  0.00    +0.000 A 
ATOM     12  C   UNL     1       1.429  10.740  18.476  0.00  0.00    +0.000 A 
ATOM     13  C   UNL     1       1.086  12.090  18.582  0.00  0.00    +0.000 A 
ATOM     14  C   UNL     1       0.593  12.619  19.779  0.00  0.00    +0.000 A 
ATOM     15  C   UNL     1       0.435  11.812  20.916  0.00  0.00    +0.000 A 
ATOM     16  C   UNL     1       0.775  10.451  20.831  0.00  0.00    +0.000 A 
ENDBRANCH   1   9
BRANCH   4  17
ATOM     17  C   UNL     1       3.497   5.624  18.676  0.00  0.00    +0.000 A 
ATOM     18  C   UNL     1       2.863   4.619  17.939  0.00  0.00    +0.000 A 
ATOM     19  C   UNL     1       3.586   3.857  17.016  0.00  0.00    +0.000 A 
ATOM     20  C   UNL     1       4.957   4.059  16.869  0.00  0.00    +0.000 A 
ATOM     21  C   UNL     1       5.585   5.046  17.631  0.00  0.00    +0.000 A 
ATOM     22  C   UNL     1       4.854   5.874  18.486  0.00  0.00    +0.000 A 
BRANCH  21  23
ATOM     23  S   UNL     1       7.345   5.180  17.615  0.00  0.00    +0.000 S 
ATOM     24  O   UNL     1       7.836   5.192  18.975  0.00  0.00    +0.000 OA
ATOM     25  O   UNL     1       7.881   4.293  16.608  0.00  0.00    +0.000 OA
BRANCH  23  26
ATOM     26  N   UNL     1       7.529   6.731  17.023  0.00  0.00    +0.000 NA
ATOM     27  H   UNL     1       6.675   7.057  16.575  0.00  0.00    +0.000 HD
ATOM     28  H   UNL     1       7.910   7.356  17.734  0.00  0.00    +0.000 HD
ENDBRANCH  23  26
ENDBRANCH  21  23
ENDBRANCH   4  17
TORSDOF 4
ENDMDL
MODEL 2
REMARK VINA RESULT:      -8.2      0.793      1.075
REMARK  Name = 
REMARK  5 active torsions:
REMARK  status: ('A' for Active; 'I' for Inactive)
REMARK    1  A    between atoms: C_1  and  C_2
REMARK    2  A    between atoms: C_3  and  N_4
REMARK    3  A    between atoms: N_7  and  C_8
REMARK    4  A    between atoms: C_12  and  S_13
REMARK    5  A    between atoms: S_13  and  N_14
REMARK                            x       y       z     vdW  Elec       q    Type
REMARK                         _______ _______ _______ _____ _____    ______ ____
ROOT
ATOM      1  N   UNL     1       1.322   6.942  21.241  0.00  0.00    +0.000 N 
ATOM      2  C   UNL     1       2.039   6.020  20.520  0.00  0.00    +0.000 C 
ATOM      3  O   UNL     1       1.973   4.837  20.848  0.00  0.00    +0.000 OA
ATOM      4  N   UNL     1       2.777   6.497  19.469  0.00  0.00    +0.000 N 
ATOM      5  H   UNL     1       0.749   6.535  21.966  0.00  0.00    +0.000 HD
ATOM      6  H   UNL     1       3.081   7.457  19.582  0.00  0.00    +0.000 HD
ENDROOT
BRANCH   1   9
ATOM      7  C   UNL     1       0.251   9.355  23.117  0.00  0.00    +0.000 C 
ATOM      8  C   UNL     1       0.716   9.339  21.708  0.00  0.00    +0.000 A 
ATOM      9  C   UNL     1       1.166   8.274  20.943  0.00  0.00    +0.000 A 
ATOM     10  O   UNL     1       1.489   8.698  19.690  0.00  0.00    +0.000 OA
ATOM     11  C   UNL     1       1.208  10.019  19.617  0.00  0.00    +0.000 A 
ATOM     12  C   UNL     1       1.373  10.814  18.486  0.00  0.00    +0.000 A 
ATOM     13  C   UNL     1       0.987  12.150  18.610  0.00  0.00    +0.000 A 
ATOM     14  C   UNL     1       0.470  12.646  19.811  0.00  0.00    +0.000 A 
ATOM     15  C   UNL     1       0.329  11.818  20.934  0.00  0.00    +0.000 A 
ATOM     16  C   UNL     1       0.713  10.469  20.832  0.00  0.00    +0.000 A 
ENDBRANCH   1   9
BRANCH   4  17
ATOM     17  C   UNL     1       3.431   5.717  18.508  0.00  0.00    +0.000 A 
ATOM     18  C   UNL     1       2.840   4.589  17.932  0.00  0.00    +0.000 A 
ATOM     19  C   UNL     1       3.523   3.851  16.961  0.00  0.00    +0.000 A 
ATOM     20  C   UNL     1       4.823   4.205  16.605  0.00  0.00    +0.000 A 
ATOM     21  C   UNL     1       5.415   5.317  17.209  0.00  0.00    +0.000 A 
ATOM     22  C   UNL     1       4.706   6.113  18.111  0.00  0.00    +0.000 A 
BRANCH  21  23
ATOM     23  S   UNL     1       7.124   5.660  16.932  0.00  0.00    +0.000 S 
ATOM     24  O   UNL     1       7.411   5.557  15.519  0.00  0.00    +0.000 OA
ATOM     25  O   UNL     1       7.512   6.810  17.717  0.00  0.00    +0.000 OA
BRANCH  23  26
ATOM     26  N   UNL     1       7.826   4.332  17.664  0.00  0.00    +0.000 NA
ATOM     27  H   UNL     1       8.562   3.939  17.081  0.00  0.00    +0.000 HD
ATOM     28  H   UNL     1       8.100   4.541  18.625  0.00  0.00    +0.000 HD
ENDBRANCH  23  26
ENDBRANCH  21  23
ENDBRANCH   4  17
TORSDOF 4
ENDMDL
MODEL 3
REMARK VINA RESULT:      -8.1      3.843      8.221
REMARK  Name = 
REMARK  5 active torsions:
REMARK  status: ('A' for Active; 'I' for Inactive)
REMARK    1  A    between atoms: C_1  and  C_2
REMARK    2  A    between atoms: C_3  and  N_4
REMARK    3  A    between atoms: N_7  and  C_8
REMARK    4  A    between atoms: C_12  and  S_13
REMARK    5  A    between atoms: S_13  and  N_14
REMARK                            x       y       z     vdW  Elec       q    Type
REMARK                         _______ _______ _______ _____ _____    ______ ____
ROOT
ATOM      1  N   UNL     1       3.150   7.882  17.786  0.00  0.00    +0.000 N 
ATOM      2  C   UNL     1       2.398   8.996  18.065  0.00  0.00    +0.000 C 
ATOM      3  O   UNL     1       2.618  10.028  17.433  0.00  0.00    +0.000 OA
ATOM      4  N   UNL     1       1.440   8.867  19.035  0.00  0.00    +0.000 N 
ATOM      5  H   UNL     1       3.800   8.011  17.024  0.00  0.00    +0.000 HD
ATOM      6  H   UNL     1       1.654   8.164  19.733  0.00  0.00    +0.000 HD
ENDROOT
BRANCH   1   9
ATOM      7  C   UNL     1       4.406   5.068  16.791  0.00  0.00    +0.000 C 
ATOM      8  C   UNL     1       3.473   5.390  17.899  0.00  0.00    +0.000 A 
ATOM      9  C   UNL     1       2.959   6.617  18.287  0.00  0.00    +0.000 A 
ATOM     10  O   UNL     1       2.128   6.465  19.354  0.00  0.00    +0.000 OA
ATOM     11  C   UNL     1       2.057   5.142  19.634  0.00  0.00    +0.000 A 
ATOM     12  C   UNL     1       1.282   4.576  20.643  0.00  0.00    +0.000 A 
ATOM     13  C   UNL     1       1.322   3.184  20.743  0.00  0.00    +0.000 A 
ATOM     14  C   UNL     1       2.104   2.418  19.872  0.00  0.00    +0.000 A 
ATOM     15  C   UNL     1       2.882   3.025  18.875  0.00  0.00    +0.000 A 
ATOM     16  C   UNL     1       2.858   4.426  18.758  0.00  0.00    +0.000 A 
ENDBRANCH   1   9
BRANCH   4  17
ATOM     17  C   UNL     1       0.458   9.814  19.347  0.00  0.00    +0.000 A 
ATOM     18  C   UNL     1       0.489  10.564  20.526  0.00  0.00    +0.000 A 
ATOM     19  C   UNL     1      -0.503  11.514  20.786  0.00  0.00    +0.000 A 
ATOM     20  C   UNL     1      -1.562  11.677  19.895  0.00  0.00    +0.000 A 
ATOM     21  C   UNL     1      -1.598  10.901  18.734  0.00  0.00    +0.000 A 
ATOM     22  C   UNL     1      -0.563  10.017  18.422  0.00  0.00    +0.000 A 
BRANCH  21  23
ATOM     23  S   UNL     1      -3.027  10.938  17.699  0.00  0.00    +0.000 S 
ATOM     24  O   UNL     1      -3.433   9.584  17.394  0.00  0.00    +0.000 OA
ATOM     25  O   UNL     1      -3.954  11.928  18.201  0.00  0.00    +0.000 OA
BRANCH  23  26
ATOM     26  N   UNL     1      -2.375  11.572  16.298  0.00  0.00    +0.000 NA
ATOM     27  H   UNL     1      -1.945  10.844  15.731  0.00  0.00    +0.000 HD
ATOM     28  H   UNL     1      -3.051  12.159  15.807  0.00  0.00    +0.000 HD
ENDBRANCH  23  26
ENDBRANCH  21  23
ENDBRANCH   4  17
TORSDOF 4
ENDMDL
MODEL 4
REMARK VINA RESULT:      -8.1      3.663      7.882
REMARK  Name = 
REMARK  5 active torsions:
REMARK  status: ('A' for Active; 'I' for Inactive)
REMARK    1  A    between atoms: C_1  and  C_2
REMARK    2  A    between atoms: C_3  and  N_4
REMARK    3  A    between atoms: N_7  and  C_8
REMARK    4  A    between atoms: C_12  and  S_13
REMARK    5  A    between atoms: S_13  and  N_14
REMARK                            x       y       z     vdW  Elec       q    Type
REMARK                         _______ _______ _______ _____ _____    ______ ____
ROOT
ATOM      1  N   UNL     1       2.505   6.758  20.217  0.00  0.00    +0.000 N 
ATOM      2  C   UNL     1       1.746   7.901  20.244  0.00  0.00    +0.000 C 
ATOM      3  O   UNL     1       1.398   8.351  21.334  0.00  0.00    +0.000 OA
ATOM      4  N   UNL     1       1.437   8.466  19.035  0.00  0.00    +0.000 N 
ATOM      5  H   UNL     1       2.755   6.414  21.133  0.00  0.00    +0.000 HD
ATOM      6  H   UNL     1       1.398   7.803  18.269  0.00  0.00    +0.000 HD
ENDROOT
BRANCH   1   9
ATOM      7  C   UNL     1       2.656   3.644  19.341  0.00  0.00    +0.000 C 
ATOM      8  C   UNL     1       3.182   4.872  18.696  0.00  0.00    +0.000 A 
ATOM      9  C   UNL     1       3.094   6.191  19.114  0.00  0.00    +0.000 A 
ATOM     10  O   UNL     1       3.724   7.009  18.226  0.00  0.00    +0.000 OA
ATOM     11  C   UNL     1       4.266   6.230  17.261  0.00  0.00    +0.000 A 
ATOM     12  C   UNL     1       5.018   6.692  16.185  0.00  0.00    +0.000 A 
ATOM     13  C   UNL     1       5.518   5.717  15.319  0.00  0.00    +0.000 A 
ATOM     14  C   UNL     1       5.263   4.359  15.533  0.00  0.00    +0.000 A 
ATOM     15  C   UNL     1       4.489   3.931  16.622  0.00  0.00    +0.000 A 
ATOM     16  C   UNL     1       3.975   4.896  17.506  0.00  0.00    +0.000 A 
ENDBRANCH   1   9
BRANCH   4  17
ATOM     17  C   UNL     1       0.833   9.714  18.845  0.00  0.00    +0.000 A 
ATOM     18  C   UNL     1       1.444  10.909  19.239  0.00  0.00    +0.000 A 
ATOM     19  C   UNL     1       0.811  12.134  19.011  0.00  0.00    +0.000 A 
ATOM     20  C   UNL     1      -0.460  12.166  18.441  0.00  0.00    +0.000 A 
ATOM     21  C   UNL     1      -1.073  10.965  18.078  0.00  0.00    +0.000 A 
ATOM     22  C   UNL     1      -0.410   9.744  18.217  0.00  0.00    +0.000 A 
BRANCH  21  23
ATOM     23  S   UNL     1      -2.757  10.963  17.551  0.00  0.00    +0.000 S 
ATOM     24  O   UNL     1      -3.216   9.598  17.418  0.00  0.00    +0.000 OA
ATOM     25  O   UNL     1      -3.492  11.956  18.302  0.00  0.00    +0.000 OA
BRANCH  23  26
ATOM     26  N   UNL     1      -2.594  11.569  16.003  0.00  0.00    +0.000 NA
ATOM     27  H   UNL     1      -2.569  10.818  15.316  0.00  0.00    +0.000 HD
ATOM     28  H   UNL     1      -3.280  12.302  15.817  0.00  0.00    +0.000 HD
ENDBRANCH  23  26
ENDBRANCH  21  23
ENDBRANCH   4  17
TORSDOF 4
ENDMDL
MODEL 5
REMARK VINA RESULT:      -8.0      1.803      2.975
REMARK  Name = 
REMARK  5 active torsions:
REMARK  status: ('A' for Active; 'I' for Inactive)
REMARK    1  A    between atoms: C_1  and  C_2
REMARK    2  A    between atoms: C_3  and  N_4
REMARK    3  A    between atoms: N_7  and  C_8
REMARK    4  A    between atoms: C_12  and  S_13
REMARK    5  A    between atoms: S_13  and  N_14
REMARK                            x       y       z     vdW  Elec       q    Type
REMARK                         _______ _______ _______ _____ _____    ______ ____
ROOT
ATOM      1  N   UNL     1       1.757   9.257  17.965  0.00  0.00    +0.000 N 
ATOM      2  C   UNL     1       2.533   8.142  17.763  0.00  0.00    +0.000 C 
ATOM      3  O   UNL     1       3.196   8.067  16.730  0.00  0.00    +0.000 OA
ATOM      4  N   UNL     1       2.514   7.190  18.747  0.00  0.00    +0.000 N 
ATOM      5  H   UNL     1       1.851   9.954  17.241  0.00  0.00    +0.000 HD
ATOM      6  H   UNL     1       1.651   7.165  19.279  0.00  0.00    +0.000 HD
ENDROOT
BRANCH   1   9
ATOM      7  C   UNL     1      -0.676  11.355  18.370  0.00  0.00    +0.000 C 
ATOM      8  C   UNL     1       0.018  10.460  19.328  0.00  0.00    +0.000 A 
ATOM      9  C   UNL     1       1.063   9.576  19.107  0.00  0.00    +0.000 A 
ATOM     10  O   UNL     1       1.407   8.953  20.267  0.00  0.00    +0.000 OA
ATOM     11  C   UNL     1       0.630   9.460  21.253  0.00  0.00    +0.000 A 
ATOM     12  C   UNL     1       0.699   9.099  22.595  0.00  0.00    +0.000 A 
ATOM     13  C   UNL     1      -0.169   9.769  23.459  0.00  0.00    +0.000 A 
ATOM     14  C   UNL     1      -1.054  10.743  22.984  0.00  0.00    +0.000 A 
ATOM     15  C   UNL     1      -1.105  11.071  21.621  0.00  0.00    +0.000 A 
ATOM     16  C   UNL     1      -0.240  10.408  20.734  0.00  0.00    +0.000 A 
ENDBRANCH   1   9
BRANCH   4  17
ATOM     17  C   UNL     1       3.356   6.075  18.823  0.00  0.00    +0.000 A 
ATOM     18  C   UNL     1       2.883   4.801  19.153  0.00  0.00    +0.000 A 
ATOM     19  C   UNL     1       3.758   3.712  19.197  0.00  0.00    +0.000 A 
ATOM     20  C   UNL     1       5.119   3.903  18.969  0.00  0.00    +0.000 A 
ATOM     21  C   UNL     1       5.585   5.185  18.668  0.00  0.00    +0.000 A 
ATOM     22  C   UNL     1       4.705   6.261  18.531  0.00  0.00    +0.000 A 
BRANCH  21  23
ATOM     23  S   UNL     1       7.321   5.490  18.581  0.00  0.00    +0.000 S 
ATOM     24  O   UNL     1       7.986   4.324  18.042  0.00  0.00    +0.000 OA
ATOM     25  O   UNL     1       7.546   6.818  18.058  0.00  0.00    +0.000 OA
BRANCH  23  26
ATOM     26  N   UNL     1       7.704   5.553  20.206  0.00  0.00    +0.000 NA
ATOM     27  H   UNL     1       8.596   5.100  20.391  0.00  0.00    +0.000 HD
ATOM     28  H   UNL     1       7.617   6.502  20.570  0.00  0.00    +0.000 HD
ENDBRANCH  23  26
ENDBRANCH  21  23
ENDBRANCH   4  17
TORSDOF 4
ENDMDL
MODEL 6
REMARK VINA RESULT:      -8.0      3.854      8.019
REMARK  Name = 
REMARK  5 active torsions:
REMARK  status: ('A' for Active; 'I' for Inactive)
REMARK    1  A    between atoms: C_1  and  C_2
REMARK    2  A    between atoms: C_3  and  N_4
REMARK    3  A    between atoms: N_7  and  C_8
REMARK    4  A    between atoms: C_12  and  S_13
REMARK    5  A    between atoms: S_13  and  N_14
REMARK                            x       y       z     vdW  Elec       q    Type
REMARK                         _______ _______ _______ _____ _____    ______ ____
ROOT
ATOM      1  N   UNL     1       1.830   7.356  21.012  0.00  0.00    +0.000 N 
ATOM      2  C   UNL     1       1.116   8.516  20.842  0.00  0.00    +0.000 C 
ATOM      3  O   UNL     1       0.844   9.191  21.834  0.00  0.00    +0.000 OA
ATOM      4  N   UNL     1       0.763   8.842  19.559  0.00  0.00    +0.000 N 
ATOM      5  H   UNL     1       2.117   7.191  21.966  0.00  0.00    +0.000 HD
ATOM      6  H   UNL     1       0.658   8.043  18.946  0.00  0.00    +0.000 HD
ENDROOT
BRANCH   1   9
ATOM      7  C   UNL     1       1.422   4.180  20.529  0.00  0.00    +0.000 C 
ATOM      8  C   UNL     1       2.189   5.198  19.770  0.00  0.00    +0.000 A 
ATOM      9  C   UNL     1       2.337   6.554  20.019  0.00  0.00    +0.000 A 
ATOM     10  O   UNL     1       3.138   7.122  19.075  0.00  0.00    +0.000 OA
ATOM     11  C   UNL     1       3.554   6.139  18.243  0.00  0.00    +0.000 A 
ATOM     12  C   UNL     1       4.413   6.313  17.162  0.00  0.00    +0.000 A 
ATOM     13  C   UNL     1       4.748   5.160  16.449  0.00  0.00    +0.000 A 
ATOM     14  C   UNL     1       4.236   3.911  16.812  0.00  0.00    +0.000 A 
ATOM     15  C   UNL     1       3.361   3.775  17.900  0.00  0.00    +0.000 A 
ATOM     16  C   UNL     1       3.010   4.923  18.631  0.00  0.00    +0.000 A 
ENDBRANCH   1   9
BRANCH   4  17
ATOM     17  C   UNL     1       0.195  10.055  19.150  0.00  0.00    +0.000 A 
ATOM     18  C   UNL     1       0.905  11.259  19.176  0.00  0.00    +0.000 A 
ATOM     19  C   UNL     1       0.303  12.443  18.738  0.00  0.00    +0.000 A 
ATOM     20  C   UNL     1      -1.029  12.436  18.328  0.00  0.00    +0.000 A 
ATOM     21  C   UNL     1      -1.736  11.232  18.334  0.00  0.00    +0.000 A 
ATOM     22  C   UNL     1      -1.116  10.030  18.681  0.00  0.00    +0.000 A 
BRANCH  21  23
ATOM     23  S   UNL     1      -3.473  11.233  18.021  0.00  0.00    +0.000 S 
ATOM     24  O   UNL     1      -3.941   9.870  17.911  0.00  0.00    +0.000 OA
ATOM     25  O   UNL     1      -4.112  12.202  18.882  0.00  0.00    +0.000 OA
BRANCH  23  26
ATOM     26  N   UNL     1      -3.506  11.880  16.480  0.00  0.00    +0.000 NA
ATOM     27  H   UNL     1      -3.733  11.167  15.789  0.00  0.00    +0.000 HD
ATOM     28  H   UNL     1      -4.086  12.718  16.443  0.00  0.00    +0.000 HD
ENDBRANCH  23  26
ENDBRANCH  21  23
ENDBRANCH   4  17
TORSDOF 4
ENDMDL
MODEL 7
REMARK VINA RESULT:      -7.9      3.361      7.269
REMARK  Name = 
REMARK  5 active torsions:
REMARK  status: ('A' for Active; 'I' for Inactive)
REMARK    1  A    between atoms: C_1  and  C_2
REMARK    2  A    between atoms: C_3  and  N_4
REMARK    3  A    between atoms: N_7  and  C_8
REMARK    4  A    between atoms: C_12  and  S_13
REMARK    5  A    between atoms: S_13  and  N_14
REMARK                            x       y       z     vdW  Elec       q    Type
REMARK                         _______ _______ _______ _____ _____    ______ ____
ROOT
ATOM      1  N   UNL     1       1.695   7.269  20.974  0.00  0.00    +0.000 N 
ATOM      2  C   UNL     1       1.101   8.500  20.846  0.00  0.00    +0.000 C 
ATOM      3  O   UNL     1       0.785   9.109  21.866  0.00  0.00    +0.000 OA
ATOM      4  N   UNL     1       0.912   8.965  19.572  0.00  0.00    +0.000 N 
ATOM      5  H   UNL     1       1.867   6.998  21.931  0.00  0.00    +0.000 HD
ATOM      6  H   UNL     1       0.805   8.233  18.879  0.00  0.00    +0.000 HD
ENDROOT
BRANCH   1   9
ATOM      7  C   UNL     1       1.208   4.147  20.264  0.00  0.00    +0.000 C 
ATOM      8  C   UNL     1       2.056   5.180  19.620  0.00  0.00    +0.000 A 
ATOM      9  C   UNL     1       2.235   6.511  19.964  0.00  0.00    +0.000 A 
ATOM     10  O   UNL     1       3.111   7.105  19.108  0.00  0.00    +0.000 OA
ATOM     11  C   UNL     1       3.544   6.161  18.240  0.00  0.00    +0.000 A 
ATOM     12  C   UNL     1       4.474   6.368  17.226  0.00  0.00    +0.000 A 
ATOM     13  C   UNL     1       4.812   5.250  16.461  0.00  0.00    +0.000 A 
ATOM     14  C   UNL     1       4.236   4.000  16.712  0.00  0.00    +0.000 A 
ATOM     15  C   UNL     1       3.291   3.832  17.735  0.00  0.00    +0.000 A 
ATOM     16  C   UNL     1       2.935   4.945  18.516  0.00  0.00    +0.000 A 
ENDBRANCH   1   9
BRANCH   4  17
ATOM     17  C   UNL     1       0.492  10.254  19.225  0.00  0.00    +0.000 A 
ATOM     18  C   UNL     1      -0.791  10.516  18.733  0.00  0.00    +0.000 A 
ATOM     19  C   UNL     1      -1.173  11.824  18.419  0.00  0.00    +0.000 A 
ATOM     20  C   UNL     1      -0.256  12.866  18.540  0.00  0.00    +0.000 A 
ATOM     21  C   UNL     1       1.032  12.588  19.004  0.00  0.00    +0.000 A 
ATOM     22  C   UNL     1       1.393  11.301  19.408  0.00  0.00    +0.000 A 
BRANCH  21  23
ATOM     23  S   UNL     1       2.269  13.846  18.968  0.00  0.00    +0.000 S 
ATOM     24  O   UNL     1       1.676  15.088  18.524  0.00  0.00    +0.000 OA
ATOM     25  O   UNL     1       3.072  13.759  20.167  0.00  0.00    +0.000 OA
BRANCH  23  26
ATOM     26  N   UNL     1       3.229  13.297  17.716  0.00  0.00    +0.000 NA
ATOM     27  H   UNL     1       2.676  12.802  17.020  0.00  0.00    +0.000 HD
ATOM     28  H   UNL     1       3.821  14.042  17.348  0.00  0.00    +0.000 HD
ENDBRANCH  23  26
ENDBRANCH  21  23
ENDBRANCH   4  17
TORSDOF 4
ENDMDL
MODEL 8
REMARK VINA RESULT:      -7.9      3.639      8.174
REMARK  Name = 
REMARK  5 active torsions:
REMARK  status: ('A' for Active; 'I' for Inactive)
REMARK    1  A    between atoms: C_1  and  C_2
REMARK    2  A    between atoms: C_3  and  N_4
REMARK    3  A    between atoms: N_7  and  C_8
REMARK    4  A    between atoms: C_12  and  S_13
REMARK    5  A    between atoms: S_13  and  N_14
REMARK                            x       y       z     vdW  Elec       q    Type
REMARK                         _______ _______ _______ _____ _____    ______ ____
ROOT
ATOM      1  N   UNL     1       3.135   7.655  17.438  0.00  0.00    +0.000 N 
ATOM      2  C   UNL     1       2.450   8.699  18.009  0.00  0.00    +0.000 C 
ATOM      3  O   UNL     1       2.435   9.782  17.426  0.00  0.00    +0.000 OA
ATOM      4  N   UNL     1       1.820   8.446  19.199  0.00  0.00    +0.000 N 
ATOM      5  H   UNL     1       3.531   7.875  16.535  0.00  0.00    +0.000 HD
ATOM      6  H   UNL     1       2.256   7.715  19.748  0.00  0.00    +0.000 HD
ENDROOT
BRANCH   1   9
ATOM      7  C   UNL     1       5.654   5.786  18.242  0.00  0.00    +0.000 C 
ATOM      8  C   UNL     1       4.196   5.515  18.225  0.00  0.00    +0.000 A 
ATOM      9  C   UNL     1       3.150   6.351  17.868  0.00  0.00    +0.000 A 
ATOM     10  O   UNL     1       1.961   5.698  17.990  0.00  0.00    +0.000 OA
ATOM     11  C   UNL     1       2.227   4.428  18.375  0.00  0.00    +0.000 A 
ATOM     12  C   UNL     1       1.273   3.435  18.579  0.00  0.00    +0.000 A 
ATOM     13  C   UNL     1       1.761   2.177  18.940  0.00  0.00    +0.000 A 
ATOM     14  C   UNL     1       3.132   1.948  19.088  0.00  0.00    +0.000 A 
ATOM     15  C   UNL     1       4.064   2.977  18.886  0.00  0.00    +0.000 A 
ATOM     16  C   UNL     1       3.595   4.251  18.523  0.00  0.00    +0.000 A 
ENDBRANCH   1   9
BRANCH   4  17
ATOM     17  C   UNL     1       0.932   9.308  19.853  0.00  0.00    +0.000 A 
ATOM     18  C   UNL     1       0.936   9.473  21.242  0.00  0.00    +0.000 A 
ATOM     19  C   UNL     1       0.043  10.360  21.850  0.00  0.00    +0.000 A 
ATOM     20  C   UNL     1      -0.896  11.041  21.078  0.00  0.00    +0.000 A 
ATOM     21  C   UNL     1      -0.911  10.846  19.695  0.00  0.00    +0.000 A 
ATOM     22  C   UNL     1       0.038  10.034  19.070  0.00  0.00    +0.000 A 
BRANCH  21  23
ATOM     23  S   UNL     1      -2.216  11.531  18.726  0.00  0.00    +0.000 S 
ATOM     24  O   UNL     1      -2.823  10.486  17.932  0.00  0.00    +0.000 OA
ATOM     25  O   UNL     1      -2.997  12.430  19.546  0.00  0.00    +0.000 OA
BRANCH  23  26
ATOM     26  N   UNL     1      -1.345  12.491  17.672  0.00  0.00    +0.000 NA
ATOM     27  H   UNL     1      -1.379  13.469  17.954  0.00  0.00    +0.000 HD
ATOM     28  H   UNL     1      -0.408  12.117  17.520  0.00  0.00    +0.000 HD
ENDBRANCH  23  26
ENDBRANCH  21  23
ENDBRANCH   4  17
TORSDOF 4
ENDMDL
MODEL 9
REMARK VINA RESULT:      -7.9      3.801      8.078
REMARK  Name = 
REMARK  5 active torsions:
REMARK  status: ('A' for Active; 'I' for Inactive)
REMARK    1  A    between atoms: C_1  and  C_2
REMARK    2  A    between atoms: C_3  and  N_4
REMARK    3  A    between atoms: N_7  and  C_8
REMARK    4  A    between atoms: C_12  and  S_13
REMARK    5  A    between atoms: S_13  and  N_14
REMARK                            x       y       z     vdW  Elec       q    Type
REMARK                         _______ _______ _______ _____ _____    ______ ____
ROOT
ATOM      1  N   UNL     1       3.179   7.366  17.902  0.00  0.00    +0.000 N 
ATOM      2  C   UNL     1       2.462   8.532  18.011  0.00  0.00    +0.000 C 
ATOM      3  O   UNL     1       2.590   9.385  17.134  0.00  0.00    +0.000 OA
ATOM      4  N   UNL     1       1.642   8.654  19.101  0.00  0.00    +0.000 N 
ATOM      5  H   UNL     1       3.721   7.300  17.053  0.00  0.00    +0.000 HD
ATOM      6  H   UNL     1       1.951   8.126  19.909  0.00  0.00    +0.000 HD
ENDROOT
BRANCH   1   9
ATOM      7  C   UNL     1       5.491   5.404  19.036  0.00  0.00    +0.000 C 
ATOM      8  C   UNL     1       4.019   5.391  19.214  0.00  0.00    +0.000 A 
ATOM      9  C   UNL     1       3.064   6.256  18.703  0.00  0.00    +0.000 A 
ATOM     10  O   UNL     1       1.820   5.877  19.107  0.00  0.00    +0.000 OA
ATOM     11  C   UNL     1       1.951   4.744  19.835  0.00  0.00    +0.000 A 
ATOM     12  C   UNL     1       0.901   4.028  20.401  0.00  0.00    +0.000 A 
ATOM     13  C   UNL     1       1.248   2.861  21.085  0.00  0.00    +0.000 A 
ATOM     14  C   UNL     1       2.582   2.453  21.189  0.00  0.00    +0.000 A 
ATOM     15  C   UNL     1       3.616   3.208  20.616  0.00  0.00    +0.000 A 
ATOM     16  C   UNL     1       3.289   4.386  19.924  0.00  0.00    +0.000 A 
ENDBRANCH   1   9
BRANCH   4  17
ATOM     17  C   UNL     1       0.703   9.671  19.309  0.00  0.00    +0.000 A 
ATOM     18  C   UNL     1       0.771  10.539  20.403  0.00  0.00    +0.000 A 
ATOM     19  C   UNL     1      -0.178  11.553  20.560  0.00  0.00    +0.000 A 
ATOM     20  C   UNL     1      -1.231  11.667  19.655  0.00  0.00    +0.000 A 
ATOM     21  C   UNL     1      -1.306  10.776  18.582  0.00  0.00    +0.000 A 
ATOM     22  C   UNL     1      -0.311   9.819  18.366  0.00  0.00    +0.000 A 
BRANCH  21  23
ATOM     23  S   UNL     1      -2.735  10.766  17.547  0.00  0.00    +0.000 S 
ATOM     24  O   UNL     1      -2.373  11.227  16.225  0.00  0.00    +0.000 OA
ATOM     25  O   UNL     1      -3.470   9.540  17.763  0.00  0.00    +0.000 OA
BRANCH  23  26
ATOM     26  N   UNL     1      -3.634  11.984  18.253  0.00  0.00    +0.000 NA
ATOM     27  H   UNL     1      -3.971  12.643  17.554  0.00  0.00    +0.000 HD
ATOM     28  H   UNL     1      -4.351  11.605  18.871  0.00  0.00    +0.000 HD
ENDBRANCH  23  26
ENDBRANCH  21  23
ENDBRANCH   4  17
TORSDOF 4
ENDMDL
