MODEL 1
REMARK VINA RESULT:      -7.4      0.000      0.000
REMARK  Name = 
REMARK  12 active torsions:
REMARK  status: ('A' for Active; 'I' for Inactive)
REMARK    1  A    between atoms: C_1  and  C_2
REMARK    2  A    between atoms: C_2  and  O_3
REMARK    3  A    between atoms: O_3  and  C_4
REMARK    4  A    between atoms: C_4  and  C_6
REMARK    5  A    between atoms: C_9  and  N_10
REMARK    6  A    between atoms: N_10  and  C_11
REMARK    7  A    between atoms: C_11  and  C_12
REMARK    8  A    between atoms: C_12  and  C_13
REMARK    9  A    between atoms: C_13  and  C_14
REMARK   10  A    between atoms: C_17  and  O_18
REMARK   11  A    between atoms: O_18  and  C_19
REMARK   12  A    between atoms: C_19  and  C_20
REMARK                            x       y       z     vdW  Elec       q    Type
REMARK                         _______ _______ _______ _____ _____    ______ ____
ROOT
ATOM      1  C   UNL     1       1.182   4.046  20.363  0.00  0.00    +0.000 C 
ENDROOT
BRANCH   1   2
ATOM      2  C   UNL     1       1.835   2.675  20.285  0.00  0.00    +0.000 C 
BRANCH   2   3
ATOM      3  N   UNL     1       2.192   2.397  18.895  0.00  0.00    +0.000 N 
ATOM      4  H   UNL     1       2.156   1.404  18.675  0.00  0.00    +0.000 HD
BRANCH   3   8
ATOM      5  C   UNL     1       5.576   4.351  17.316  0.00  0.00    +0.000 A 
ATOM      6  C   UNL     1       4.449   4.121  16.524  0.00  0.00    +0.000 A 
ATOM      7  C   UNL     1       3.339   3.465  17.064  0.00  0.00    +0.000 A 
ATOM      8  C   UNL     1       3.347   2.994  18.384  0.00  0.00    +0.000 A 
ATOM      9  C   UNL     1       4.470   3.260  19.173  0.00  0.00    +0.000 A 
ATOM     10  C   UNL     1       5.578   3.923  18.647  0.00  0.00    +0.000 A 
BRANCH   5  11
ATOM     11  C   UNL     1       6.763   4.987  16.694  0.00  0.00    +0.000 C 
ATOM     12  O   UNL     1       7.875   4.487  16.675  0.00  0.00    +0.000 OA
BRANCH  11  13
ATOM     13  O   UNL     1       6.433   6.237  16.290  0.00  0.00    +0.000 OA
BRANCH  13  15
ATOM     14  C   UNL     1       7.717   7.830  17.514  0.00  0.00    +0.000 C 
ATOM     15  C   UNL     1       6.341   7.215  17.331  0.00  0.00    +0.000 C 
ENDBRANCH  13  15
ENDBRANCH  11  13
ENDBRANCH   5  11
ENDBRANCH   3   8
ENDBRANCH   2   3
ENDBRANCH   1   2
BRANCH   1  16
ATOM     16  C   UNL     1       2.174   5.099  20.863  0.00  0.00    +0.000 C 
BRANCH  16  17
ATOM     17  C   UNL     1       2.048   6.444  20.190  0.00  0.00    +0.000 A 
ATOM     18  C   UNL     1       2.510   6.661  18.887  0.00  0.00    +0.000 A 
ATOM     19  C   UNL     1       2.341   7.891  18.264  0.00  0.00    +0.000 A 
ATOM     20  C   UNL     1       1.654   8.918  18.907  0.00  0.00    +0.000 A 
ATOM     21  C   UNL     1       1.210   8.729  20.215  0.00  0.00    +0.000 A 
ATOM     22  C   UNL     1       1.398   7.498  20.850  0.00  0.00    +0.000 A 
BRANCH  20  23
ATOM     23  O   UNL     1       1.355  10.126  18.331  0.00  0.00    +0.000 OA
BRANCH  23  24
ATOM     24  C   UNL     1      -0.050  10.377  18.210  0.00  0.00    +0.000 C 
BRANCH  24  25
ATOM     25  C   UNL     1      -0.448  11.647  18.916  0.00  0.00    +0.000 A 
ATOM     26  C   UNL     1      -0.113  12.908  18.414  0.00  0.00    +0.000 A 
ATOM     27  C   UNL     1      -0.514  14.061  19.089  0.00  0.00    +0.000 A 
ATOM     28  C   UNL     1      -1.264  13.967  20.258  0.00  0.00    +0.000 A 
ATOM     29  C   UNL     1      -1.625  12.717  20.754  0.00  0.00    +0.000 A 
ATOM     30  C   UNL     1      -1.225  11.562  20.083  0.00  0.00    +0.000 A 
ENDBRANCH  24  25
ENDBRANCH  23  24
ENDBRANCH  20  23
ENDBRANCH  16  17
ENDBRANCH   1  16
TORSDOF 11
ENDMDL
MODEL 2
REMARK VINA RESULT:      -7.2      1.440      2.337
REMARK  Name = 
REMARK  12 active torsions:
REMARK  status: ('A' for Active; 'I' for Inactive)
REMARK    1  A    between atoms: C_1  and  C_2
REMARK    2  A    between atoms: C_2  and  O_3
REMARK    3  A    between atoms: O_3  and  C_4
REMARK    4  A    between atoms: C_4  and  C_6
REMARK    5  A    between atoms: C_9  and  N_10
REMARK    6  A    between atoms: N_10  and  C_11
REMARK    7  A    between atoms: C_11  and  C_12
REMARK    8  A    between atoms: C_12  and  C_13
REMARK    9  A    between atoms: C_13  and  C_14
REMARK   10  A    between atoms: C_17  and  O_18
REMARK   11  A    between atoms: O_18  and  C_19
REMARK   12  A    between atoms: C_19  and  C_20
REMARK                            x       y       z     vdW  Elec       q    Type
REMARK                         _______ _______ _______ _____ _____    ______ ____
ROOT
ATOM      1  C   UNL     1       1.808   2.137  20.422  0.00  0.00    +0.000 C 
ENDROOT
BRANCH   1   2
ATOM      2  C   UNL     1       3.113   2.754  20.898  0.00  0.00    +0.000 C 
BRANCH   2   3
ATOM      3  N   UNL     1       4.176   2.403  19.959  0.00  0.00    +0.000 N 
ATOM      4  H   UNL     1       4.965   1.951  20.415  0.00  0.00    +0.000 HD
BRANCH   3   8
ATOM      5  C   UNL     1       5.626   5.326  17.292  0.00  0.00    +0.000 A 
ATOM      6  C   UNL     1       5.752   5.493  18.672  0.00  0.00    +0.000 A 
ATOM      7  C   UNL     1       5.258   4.516  19.541  0.00  0.00    +0.000 A 
ATOM      8  C   UNL     1       4.599   3.380  19.054  0.00  0.00    +0.000 A 
ATOM      9  C   UNL     1       4.509   3.211  17.668  0.00  0.00    +0.000 A 
ATOM     10  C   UNL     1       5.007   4.175  16.793  0.00  0.00    +0.000 A 
BRANCH   5  11
ATOM     11  C   UNL     1       6.097   6.414  16.399  0.00  0.00    +0.000 C 
ATOM     12  O   UNL     1       5.541   6.737  15.363  0.00  0.00    +0.000 OA
BRANCH  11  13
ATOM     13  O   UNL     1       7.289   6.871  16.852  0.00  0.00    +0.000 OA
BRANCH  13  15
ATOM     14  C   UNL     1       8.461   8.339  18.321  0.00  0.00    +0.000 C 
ATOM     15  C   UNL     1       7.276   8.201  17.381  0.00  0.00    +0.000 C 
ENDBRANCH  13  15
ENDBRANCH  11  13
ENDBRANCH   5  11
ENDBRANCH   3   8
ENDBRANCH   2   3
ENDBRANCH   1   2
BRANCH   1  16
ATOM     16  C   UNL     1       0.791   3.219  20.052  0.00  0.00    +0.000 C 
BRANCH  16  17
ATOM     17  C   UNL     1       1.403   4.518  19.588  0.00  0.00    +0.000 A 
ATOM     18  C   UNL     1       1.543   4.821  18.229  0.00  0.00    +0.000 A 
ATOM     19  C   UNL     1       2.063   6.042  17.819  0.00  0.00    +0.000 A 
ATOM     20  C   UNL     1       2.403   7.014  18.757  0.00  0.00    +0.000 A 
ATOM     21  C   UNL     1       2.296   6.720  20.115  0.00  0.00    +0.000 A 
ATOM     22  C   UNL     1       1.792   5.483  20.529  0.00  0.00    +0.000 A 
BRANCH  20  23
ATOM     23  O   UNL     1       2.827   8.278  18.438  0.00  0.00    +0.000 OA
BRANCH  23  24
ATOM     24  C   UNL     1       1.855   9.051  17.726  0.00  0.00    +0.000 C 
BRANCH  24  25
ATOM     25  C   UNL     1       1.270  10.138  18.590  0.00  0.00    +0.000 A 
ATOM     26  C   UNL     1       0.319   9.864  19.578  0.00  0.00    +0.000 A 
ATOM     27  C   UNL     1      -0.187  10.897  20.369  0.00  0.00    +0.000 A 
ATOM     28  C   UNL     1       0.260  12.203  20.192  0.00  0.00    +0.000 A 
ATOM     29  C   UNL     1       1.225  12.482  19.228  0.00  0.00    +0.000 A 
ATOM     30  C   UNL     1       1.733  11.455  18.435  0.00  0.00    +0.000 A 
ENDBRANCH  24  25
ENDBRANCH  23  24
ENDBRANCH  20  23
ENDBRANCH  16  17
ENDBRANCH   1  16
TORSDOF 11
ENDMDL
MODEL 3
REMARK VINA RESULT:      -7.1      1.481      2.451
REMARK  Name = 
REMARK  12 active torsions:
REMARK  status: ('A' for Active; 'I' for Inactive)
REMARK    1  A    between atoms: C_1  and  C_2
REMARK    2  A    between atoms: C_2  and  O_3
REMARK    3  A    between atoms: O_3  and  C_4
REMARK    4  A    between atoms: C_4  and  C_6
REMARK    5  A    between atoms: C_9  and  N_10
REMARK    6  A    between atoms: N_10  and  C_11
REMARK    7  A    between atoms: C_11  and  C_12
REMARK    8  A    between atoms: C_12  and  C_13
REMARK    9  A    between atoms: C_13  and  C_14
REMARK   10  A    between atoms: C_17  and  O_18
REMARK   11  A    between atoms: O_18  and  C_19
REMARK   12  A    between atoms: C_19  and  C_20
REMARK                            x       y       z     vdW  Elec       q    Type
REMARK                         _______ _______ _______ _____ _____    ______ ____
ROOT
ATOM      1  C   UNL     1       2.177   2.734  20.904  0.00  0.00    +0.000 C 
ENDROOT
BRANCH   1   2
ATOM      2  C   UNL     1       2.734   1.871  19.782  0.00  0.00    +0.000 C 
BRANCH   2   3
ATOM      3  N   UNL     1       4.166   2.128  19.651  0.00  0.00    +0.000 N 
ATOM      4  H   UNL     1       4.633   2.198  20.552  0.00  0.00    +0.000 HD
BRANCH   3   8
ATOM      5  C   UNL     1       5.212   5.221  16.986  0.00  0.00    +0.000 A 
ATOM      6  C   UNL     1       4.577   4.066  16.526  0.00  0.00    +0.000 A 
ATOM      7  C   UNL     1       4.245   3.048  17.424  0.00  0.00    +0.000 A 
ATOM      8  C   UNL     1       4.572   3.145  18.783  0.00  0.00    +0.000 A 
ATOM      9  C   UNL     1       5.179   4.321  19.233  0.00  0.00    +0.000 A 
ATOM     10  C   UNL     1       5.505   5.347  18.347  0.00  0.00    +0.000 A 
BRANCH   5  11
ATOM     11  C   UNL     1       5.615   6.252  15.997  0.00  0.00    +0.000 C 
ATOM     12  O   UNL     1       4.834   6.997  15.430  0.00  0.00    +0.000 OA
BRANCH  11  13
ATOM     13  O   UNL     1       6.939   6.125  15.742  0.00  0.00    +0.000 OA
BRANCH  13  15
ATOM     14  C   UNL     1       6.968   4.779  13.774  0.00  0.00    +0.000 C 
ATOM     15  C   UNL     1       7.349   4.847  15.242  0.00  0.00    +0.000 C 
ENDBRANCH  13  15
ENDBRANCH  11  13
ENDBRANCH   5  11
ENDBRANCH   3   8
ENDBRANCH   2   3
ENDBRANCH   1   2
BRANCH   1  16
ATOM     16  C   UNL     1       1.012   3.594  20.409  0.00  0.00    +0.000 C 
BRANCH  16  17
ATOM     17  C   UNL     1       1.421   4.939  19.858  0.00  0.00    +0.000 A 
ATOM     18  C   UNL     1       1.703   6.022  20.697  0.00  0.00    +0.000 A 
ATOM     19  C   UNL     1       2.126   7.239  20.176  0.00  0.00    +0.000 A 
ATOM     20  C   UNL     1       2.333   7.385  18.806  0.00  0.00    +0.000 A 
ATOM     21  C   UNL     1       2.031   6.325  17.953  0.00  0.00    +0.000 A 
ATOM     22  C   UNL     1       1.586   5.107  18.475  0.00  0.00    +0.000 A 
BRANCH  20  23
ATOM     23  O   UNL     1       2.842   8.514  18.219  0.00  0.00    +0.000 OA
BRANCH  23  24
ATOM     24  C   UNL     1       1.863   9.297  17.528  0.00  0.00    +0.000 C 
BRANCH  24  25
ATOM     25  C   UNL     1       1.241  10.330  18.431  0.00  0.00    +0.000 A 
ATOM     26  C   UNL     1       0.044  10.089  19.114  0.00  0.00    +0.000 A 
ATOM     27  C   UNL     1      -0.492  11.066  19.954  0.00  0.00    +0.000 A 
ATOM     28  C   UNL     1       0.166  12.279  20.133  0.00  0.00    +0.000 A 
ATOM     29  C   UNL     1       1.371  12.519  19.477  0.00  0.00    +0.000 A 
ATOM     30  C   UNL     1       1.910  11.548  18.636  0.00  0.00    +0.000 A 
ENDBRANCH  24  25
ENDBRANCH  23  24
ENDBRANCH  20  23
ENDBRANCH  16  17
ENDBRANCH   1  16
TORSDOF 11
ENDMDL
MODEL 4
REMARK VINA RESULT:      -7.1      1.988      2.812
REMARK  Name = 
REMARK  12 active torsions:
REMARK  status: ('A' for Active; 'I' for Inactive)
REMARK    1  A    between atoms: C_1  and  C_2
REMARK    2  A    between atoms: C_2  and  O_3
REMARK    3  A    between atoms: O_3  and  C_4
REMARK    4  A    between atoms: C_4  and  C_6
REMARK    5  A    between atoms: C_9  and  N_10
REMARK    6  A    between atoms: N_10  and  C_11
REMARK    7  A    between atoms: C_11  and  C_12
REMARK    8  A    between atoms: C_12  and  C_13
REMARK    9  A    between atoms: C_13  and  C_14
REMARK   10  A    between atoms: C_17  and  O_18
REMARK   11  A    between atoms: O_18  and  C_19
REMARK   12  A    between atoms: C_19  and  C_20
REMARK                            x       y       z     vdW  Elec       q    Type
REMARK                         _______ _______ _______ _____ _____    ______ ____
ROOT
ATOM      1  C   UNL     1       1.633   4.960  20.870  0.00  0.00    +0.000 C 
ENDROOT
BRANCH   1   2
ATOM      2  C   UNL     1       1.280   4.218  19.590  0.00  0.00    +0.000 C 
BRANCH   2   3
ATOM      3  N   UNL     1       2.425   3.411  19.178  0.00  0.00    +0.000 N 
ATOM      4  H   UNL     1       2.761   2.801  19.921  0.00  0.00    +0.000 HD
BRANCH   3   8
ATOM      5  C   UNL     1       5.685   5.189  17.183  0.00  0.00    +0.000 A 
ATOM      6  C   UNL     1       5.887   4.378  18.302  0.00  0.00    +0.000 A 
ATOM      7  C   UNL     1       4.793   3.803  18.954  0.00  0.00    +0.000 A 
ATOM      8  C   UNL     1       3.482   4.056  18.530  0.00  0.00    +0.000 A 
ATOM      9  C   UNL     1       3.297   4.844  17.390  0.00  0.00    +0.000 A 
ATOM     10  C   UNL     1       4.382   5.414  16.726  0.00  0.00    +0.000 A 
BRANCH   5  11
ATOM     11  C   UNL     1       6.861   5.841  16.556  0.00  0.00    +0.000 C 
ATOM     12  O   UNL     1       7.744   6.403  17.180  0.00  0.00    +0.000 OA
BRANCH  11  13
ATOM     13  O   UNL     1       6.709   5.823  15.210  0.00  0.00    +0.000 OA
BRANCH  13  15
ATOM     14  C   UNL     1       6.099   3.907  13.928  0.00  0.00    +0.000 C 
ATOM     15  C   UNL     1       7.253   4.677  14.546  0.00  0.00    +0.000 C 
ENDBRANCH  13  15
ENDBRANCH  11  13
ENDBRANCH   5  11
ENDBRANCH   3   8
ENDBRANCH   2   3
ENDBRANCH   1   2
BRANCH   1  16
ATOM     16  C   UNL     1       2.643   6.077  20.596  0.00  0.00    +0.000 C 
BRANCH  16  17
ATOM     17  C   UNL     1       2.036   7.348  20.054  0.00  0.00    +0.000 A 
ATOM     18  C   UNL     1       2.224   7.744  18.725  0.00  0.00    +0.000 A 
ATOM     19  C   UNL     1       1.617   8.891  18.229  0.00  0.00    +0.000 A 
ATOM     20  C   UNL     1       0.760   9.639  19.033  0.00  0.00    +0.000 A 
ATOM     21  C   UNL     1       0.583   9.275  20.367  0.00  0.00    +0.000 A 
ATOM     22  C   UNL     1       1.210   8.132  20.873  0.00  0.00    +0.000 A 
BRANCH  20  23
ATOM     23  O   UNL     1       0.044  10.724  18.597  0.00  0.00    +0.000 OA
BRANCH  23  24
ATOM     24  C   UNL     1      -1.339  10.688  18.964  0.00  0.00    +0.000 C 
BRANCH  24  25
ATOM     25  C   UNL     1      -2.234  10.689  17.752  0.00  0.00    +0.000 A 
ATOM     26  C   UNL     1      -2.015   9.829  16.671  0.00  0.00    +0.000 A 
ATOM     27  C   UNL     1      -2.877   9.850  15.573  0.00  0.00    +0.000 A 
ATOM     28  C   UNL     1      -3.967  10.715  15.550  0.00  0.00    +0.000 A 
ATOM     29  C   UNL     1      -4.208  11.558  16.632  0.00  0.00    +0.000 A 
ATOM     30  C   UNL     1      -3.350  11.542  17.731  0.00  0.00    +0.000 A 
ENDBRANCH  24  25
ENDBRANCH  23  24
ENDBRANCH  20  23
ENDBRANCH  16  17
ENDBRANCH   1  16
TORSDOF 11
ENDMDL
MODEL 5
REMARK VINA RESULT:      -7.1      2.831      7.849
REMARK  Name = 
REMARK  12 active torsions:
REMARK  status: ('A' for Active; 'I' for Inactive)
REMARK    1  A    between atoms: C_1  and  C_2
REMARK    2  A    between atoms: C_2  and  O_3
REMARK    3  A    between atoms: O_3  and  C_4
REMARK    4  A    between atoms: C_4  and  C_6
REMARK    5  A    between atoms: C_9  and  N_10
REMARK    6  A    between atoms: N_10  and  C_11
REMARK    7  A    between atoms: C_11  and  C_12
REMARK    8  A    between atoms: C_12  and  C_13
REMARK    9  A    between atoms: C_13  and  C_14
REMARK   10  A    between atoms: C_17  and  O_18
REMARK   11  A    between atoms: O_18  and  C_19
REMARK   12  A    between atoms: C_19  and  C_20
REMARK                            x       y       z     vdW  Elec       q    Type
REMARK                         _______ _______ _______ _____ _____    ______ ____
ROOT
ATOM      1  C   UNL     1       3.787   4.339  19.250  0.00  0.00    +0.000 C 
ENDROOT
BRANCH   1   2
ATOM      2  C   UNL     1       2.530   5.189  19.157  0.00  0.00    +0.000 C 
BRANCH   2   3
ATOM      3  N   UNL     1       2.467   6.073  20.318  0.00  0.00    +0.000 N 
ATOM      4  H   UNL     1       2.038   5.627  21.126  0.00  0.00    +0.000 HD
BRANCH   3   8
ATOM      5  C   UNL     1       0.878   9.913  19.614  0.00  0.00    +0.000 A 
ATOM      6  C   UNL     1       1.553   9.223  18.606  0.00  0.00    +0.000 A 
ATOM      7  C   UNL     1       2.080   7.954  18.860  0.00  0.00    +0.000 A 
ATOM      8  C   UNL     1       1.977   7.368  20.129  0.00  0.00    +0.000 A 
ATOM      9  C   UNL     1       1.271   8.058  21.120  0.00  0.00    +0.000 A 
ATOM     10  C   UNL     1       0.734   9.320  20.873  0.00  0.00    +0.000 A 
BRANCH   5  11
ATOM     11  C   UNL     1       0.393  11.287  19.333  0.00  0.00    +0.000 C 
ATOM     12  O   UNL     1      -0.606  11.539  18.682  0.00  0.00    +0.000 OA
BRANCH  11  13
ATOM     13  O   UNL     1       1.304  12.178  19.793  0.00  0.00    +0.000 OA
BRANCH  13  15
ATOM     14  C   UNL     1       2.638  12.904  17.954  0.00  0.00    +0.000 C 
ATOM     15  C   UNL     1       1.551  13.300  18.938  0.00  0.00    +0.000 C 
ENDBRANCH  13  15
ENDBRANCH  11  13
ENDBRANCH   5  11
ENDBRANCH   3   8
ENDBRANCH   2   3
ENDBRANCH   1   2
BRANCH   1  16
ATOM     16  C   UNL     1       4.609   4.431  17.962  0.00  0.00    +0.000 C 
BRANCH  16  17
ATOM     17  C   UNL     1       5.744   5.425  18.017  0.00  0.00    +0.000 A 
ATOM     18  C   UNL     1       5.730   6.600  17.258  0.00  0.00    +0.000 A 
ATOM     19  C   UNL     1       6.759   7.528  17.358  0.00  0.00    +0.000 A 
ATOM     20  C   UNL     1       7.800   7.331  18.263  0.00  0.00    +0.000 A 
ATOM     21  C   UNL     1       7.845   6.153  19.007  0.00  0.00    +0.000 A 
ATOM     22  C   UNL     1       6.819   5.210  18.892  0.00  0.00    +0.000 A 
BRANCH  20  23
ATOM     23  O   UNL     1       8.800   8.239  18.497  0.00  0.00    +0.000 OA
BRANCH  23  24
ATOM     24  C   UNL     1       8.454   9.583  18.143  0.00  0.00    +0.000 C 
BRANCH  24  25
ATOM     25  C   UNL     1       9.376  10.581  18.795  0.00  0.00    +0.000 A 
ATOM     26  C   UNL     1       9.392  10.777  20.179  0.00  0.00    +0.000 A 
ATOM     27  C   UNL     1      10.272  11.701  20.746  0.00  0.00    +0.000 A 
ATOM     28  C   UNL     1      11.150  12.422  19.942  0.00  0.00    +0.000 A 
ATOM     29  C   UNL     1      11.159  12.216  18.564  0.00  0.00    +0.000 A 
ATOM     30  C   UNL     1      10.282  11.295  17.993  0.00  0.00    +0.000 A 
ENDBRANCH  24  25
ENDBRANCH  23  24
ENDBRANCH  20  23
ENDBRANCH  16  17
ENDBRANCH   1  16
TORSDOF 11
ENDMDL
MODEL 6
REMARK VINA RESULT:      -7.0      6.228      8.976
REMARK  Name = 
REMARK  12 active torsions:
REMARK  status: ('A' for Active; 'I' for Inactive)
REMARK    1  A    between atoms: C_1  and  C_2
REMARK    2  A    between atoms: C_2  and  O_3
REMARK    3  A    between atoms: O_3  and  C_4
REMARK    4  A    between atoms: C_4  and  C_6
REMARK    5  A    between atoms: C_9  and  N_10
REMARK    6  A    between atoms: N_10  and  C_11
REMARK    7  A    between atoms: C_11  and  C_12
REMARK    8  A    between atoms: C_12  and  C_13
REMARK    9  A    between atoms: C_13  and  C_14
REMARK   10  A    between atoms: C_17  and  O_18
REMARK   11  A    between atoms: O_18  and  C_19
REMARK   12  A    between atoms: C_19  and  C_20
REMARK                            x       y       z     vdW  Elec       q    Type
REMARK                         _______ _______ _______ _____ _____    ______ ____
ROOT
ATOM      1  C   UNL     1       8.247   9.353  17.878  0.00  0.00    +0.000 C 
ENDROOT
BRANCH   1   2
ATOM      2  C   UNL     1       8.109   7.862  18.141  0.00  0.00    +0.000 C 
BRANCH   2   3
ATOM      3  N   UNL     1       7.428   7.240  17.008  0.00  0.00    +0.000 N 
ATOM      4  H   UNL     1       7.091   7.923  16.333  0.00  0.00    +0.000 HD
BRANCH   3   8
ATOM      5  C   UNL     1       4.566   4.217  17.667  0.00  0.00    +0.000 A 
ATOM      6  C   UNL     1       4.527   4.998  16.510  0.00  0.00    +0.000 A 
ATOM      7  C   UNL     1       5.480   6.001  16.313  0.00  0.00    +0.000 A 
ATOM      8  C   UNL     1       6.461   6.268  17.278  0.00  0.00    +0.000 A 
ATOM      9  C   UNL     1       6.506   5.457  18.416  0.00  0.00    +0.000 A 
ATOM     10  C   UNL     1       5.566   4.447  18.617  0.00  0.00    +0.000 A 
BRANCH   5  11
ATOM     11  C   UNL     1       3.498   3.209  17.879  0.00  0.00    +0.000 C 
ATOM     12  O   UNL     1       3.683   2.004  17.864  0.00  0.00    +0.000 OA
BRANCH  11  13
ATOM     13  O   UNL     1       2.302   3.842  17.949  0.00  0.00    +0.000 OA
BRANCH  13  15
ATOM     14  C   UNL     1       0.967   3.474  19.890  0.00  0.00    +0.000 C 
ATOM     15  C   UNL     1       1.974   4.397  19.227  0.00  0.00    +0.000 C 
ENDBRANCH  13  15
ENDBRANCH  11  13
ENDBRANCH   5  11
ENDBRANCH   3   8
ENDBRANCH   2   3
ENDBRANCH   1   2
BRANCH   1  16
ATOM     16  C   UNL     1       9.034  10.038  18.998  0.00  0.00    +0.000 C 
BRANCH  16  17
ATOM     17  C   UNL     1       9.886  11.197  18.542  0.00  0.00    +0.000 A 
ATOM     18  C   UNL     1       9.360  12.237  17.767  0.00  0.00    +0.000 A 
ATOM     19  C   UNL     1      10.146  13.321  17.398  0.00  0.00    +0.000 A 
ATOM     20  C   UNL     1      11.463  13.421  17.843  0.00  0.00    +0.000 A 
ATOM     21  C   UNL     1      12.011  12.382  18.593  0.00  0.00    +0.000 A 
ATOM     22  C   UNL     1      11.226  11.281  18.948  0.00  0.00    +0.000 A 
BRANCH  20  23
ATOM     23  O   UNL     1      12.275  14.500  17.611  0.00  0.00    +0.000 OA
BRANCH  23  24
ATOM     24  C   UNL     1      12.333  15.426  18.702  0.00  0.00    +0.000 C 
BRANCH  24  25
ATOM     25  C   UNL     1      11.326  16.535  18.541  0.00  0.00    +0.000 A 
ATOM     26  C   UNL     1      11.364  17.415  17.455  0.00  0.00    +0.000 A 
ATOM     27  C   UNL     1      10.403  18.420  17.334  0.00  0.00    +0.000 A 
ATOM     28  C   UNL     1       9.392  18.546  18.282  0.00  0.00    +0.000 A 
ATOM     29  C   UNL     1       9.331  17.659  19.355  0.00  0.00    +0.000 A 
ATOM     30  C   UNL     1      10.289  16.654  19.481  0.00  0.00    +0.000 A 
ENDBRANCH  24  25
ENDBRANCH  23  24
ENDBRANCH  20  23
ENDBRANCH  16  17
ENDBRANCH   1  16
TORSDOF 11
ENDMDL
MODEL 7
REMARK VINA RESULT:      -7.0      5.394      8.959
REMARK  Name = 
REMARK  12 active torsions:
REMARK  status: ('A' for Active; 'I' for Inactive)
REMARK    1  A    between atoms: C_1  and  C_2
REMARK    2  A    between atoms: C_2  and  O_3
REMARK    3  A    between atoms: O_3  and  C_4
REMARK    4  A    between atoms: C_4  and  C_6
REMARK    5  A    between atoms: C_9  and  N_10
REMARK    6  A    between atoms: N_10  and  C_11
REMARK    7  A    between atoms: C_11  and  C_12
REMARK    8  A    between atoms: C_12  and  C_13
REMARK    9  A    between atoms: C_13  and  C_14
REMARK   10  A    between atoms: C_17  and  O_18
REMARK   11  A    between atoms: O_18  and  C_19
REMARK   12  A    between atoms: C_19  and  C_20
REMARK                            x       y       z     vdW  Elec       q    Type
REMARK                         _______ _______ _______ _____ _____    ______ ____
ROOT
ATOM      1  C   UNL     1       7.619   7.268  18.332  0.00  0.00    +0.000 C 
ENDROOT
BRANCH   1   2
ATOM      2  C   UNL     1       8.211   8.638  18.039  0.00  0.00    +0.000 C 
BRANCH   2   3
ATOM      3  N   UNL     1       8.915   9.115  19.227  0.00  0.00    +0.000 N 
ATOM      4  H   UNL     1       8.375   8.983  20.080  0.00  0.00    +0.000 HD
BRANCH   3   8
ATOM      5  C   UNL     1      10.503  13.012  19.003  0.00  0.00    +0.000 A 
ATOM      6  C   UNL     1      10.142  12.320  17.845  0.00  0.00    +0.000 A 
ATOM      7  C   UNL     1       9.624  11.026  17.940  0.00  0.00    +0.000 A 
ATOM      8  C   UNL     1       9.493  10.386  19.180  0.00  0.00    +0.000 A 
ATOM      9  C   UNL     1       9.830  11.103  20.332  0.00  0.00    +0.000 A 
ATOM     10  C   UNL     1      10.338  12.399  20.249  0.00  0.00    +0.000 A 
BRANCH   5  11
ATOM     11  C   UNL     1      11.115  14.357  18.865  0.00  0.00    +0.000 C 
ATOM     12  O   UNL     1      12.184  14.568  18.317  0.00  0.00    +0.000 OA
BRANCH  11  13
ATOM     13  O   UNL     1      10.370  15.254  19.553  0.00  0.00    +0.000 OA
BRANCH  13  15
ATOM     14  C   UNL     1       9.501  16.720  17.884  0.00  0.00    +0.000 C 
ATOM     15  C   UNL     1       9.154  15.661  18.916  0.00  0.00    +0.000 C 
ENDBRANCH  13  15
ENDBRANCH  11  13
ENDBRANCH   5  11
ENDBRANCH   3   8
ENDBRANCH   2   3
ENDBRANCH   1   2
BRANCH   1  16
ATOM     16  C   UNL     1       7.516   6.430  17.056  0.00  0.00    +0.000 C 
BRANCH  16  17
ATOM     17  C   UNL     1       6.208   5.694  16.897  0.00  0.00    +0.000 A 
ATOM     18  C   UNL     1       6.106   4.533  16.124  0.00  0.00    +0.000 A 
ATOM     19  C   UNL     1       4.906   3.840  16.028  0.00  0.00    +0.000 A 
ATOM     20  C   UNL     1       3.791   4.260  16.750  0.00  0.00    +0.000 A 
ATOM     21  C   UNL     1       3.865   5.430  17.504  0.00  0.00    +0.000 A 
ATOM     22  C   UNL     1       5.068   6.139  17.584  0.00  0.00    +0.000 A 
BRANCH  20  23
ATOM     23  O   UNL     1       2.600   3.582  16.793  0.00  0.00    +0.000 OA
BRANCH  23  24
ATOM     24  C   UNL     1       2.659   2.356  17.531  0.00  0.00    +0.000 C 
BRANCH  24  25
ATOM     25  C   UNL     1       2.347   2.572  18.989  0.00  0.00    +0.000 A 
ATOM     26  C   UNL     1       1.038   2.754  19.446  0.00  0.00    +0.000 A 
ATOM     27  C   UNL     1       0.790   2.935  20.807  0.00  0.00    +0.000 A 
ATOM     28  C   UNL     1       1.838   2.920  21.722  0.00  0.00    +0.000 A 
ATOM     29  C   UNL     1       3.143   2.714  21.281  0.00  0.00    +0.000 A 
ATOM     30  C   UNL     1       3.397   2.534  19.922  0.00  0.00    +0.000 A 
ENDBRANCH  24  25
ENDBRANCH  23  24
ENDBRANCH  20  23
ENDBRANCH  16  17
ENDBRANCH   1  16
TORSDOF 11
ENDMDL
MODEL 8
REMARK VINA RESULT:      -7.0      5.306      9.093
REMARK  Name = 
REMARK  12 active torsions:
REMARK  status: ('A' for Active; 'I' for Inactive)
REMARK    1  A    between atoms: C_1  and  C_2
REMARK    2  A    between atoms: C_2  and  O_3
REMARK    3  A    between atoms: O_3  and  C_4
REMARK    4  A    between atoms: C_4  and  C_6
REMARK    5  A    between atoms: C_9  and  N_10
REMARK    6  A    between atoms: N_10  and  C_11
REMARK    7  A    between atoms: C_11  and  C_12
REMARK    8  A    between atoms: C_12  and  C_13
REMARK    9  A    between atoms: C_13  and  C_14
REMARK   10  A    between atoms: C_17  and  O_18
REMARK   11  A    between atoms: O_18  and  C_19
REMARK   12  A    between atoms: C_19  and  C_20
REMARK                            x       y       z     vdW  Elec       q    Type
REMARK                         _______ _______ _______ _____ _____    ______ ____
ROOT
ATOM      1  C   UNL     1       7.476   7.494  18.224  0.00  0.00    +0.000 C 
ENDROOT
BRANCH   1   2
ATOM      2  C   UNL     1       8.244   8.776  17.941  0.00  0.00    +0.000 C 
BRANCH   2   3
ATOM      3  N   UNL     1       8.993   9.155  19.136  0.00  0.00    +0.000 N 
ATOM      4  H   UNL     1       8.516   8.892  19.996  0.00  0.00    +0.000 HD
BRANCH   3   8
ATOM      5  C   UNL     1      10.660  13.013  19.451  0.00  0.00    +0.000 A 
ATOM      6  C   UNL     1      10.289  12.300  20.592  0.00  0.00    +0.000 A 
ATOM      7  C   UNL     1       9.731  11.024  20.467  0.00  0.00    +0.000 A 
ATOM      8  C   UNL     1       9.498  10.456  19.208  0.00  0.00    +0.000 A 
ATOM      9  C   UNL     1       9.904  11.169  18.076  0.00  0.00    +0.000 A 
ATOM     10  C   UNL     1      10.470  12.438  18.190  0.00  0.00    +0.000 A 
BRANCH   5  11
ATOM     11  C   UNL     1      11.183  14.392  19.614  0.00  0.00    +0.000 C 
ATOM     12  O   UNL     1      12.248  14.777  19.161  0.00  0.00    +0.000 OA
BRANCH  11  13
ATOM     13  O   UNL     1      10.363  15.079  20.445  0.00  0.00    +0.000 OA
BRANCH  13  15
ATOM     14  C   UNL     1       8.471  16.460  20.891  0.00  0.00    +0.000 C 
ATOM     15  C   UNL     1       9.254  15.730  19.815  0.00  0.00    +0.000 C 
ENDBRANCH  13  15
ENDBRANCH  11  13
ENDBRANCH   5  11
ENDBRANCH   3   8
ENDBRANCH   2   3
ENDBRANCH   1   2
BRANCH   1  16
ATOM     16  C   UNL     1       7.228   6.706  16.936  0.00  0.00    +0.000 C 
BRANCH  16  17
ATOM     17  C   UNL     1       6.008   5.818  16.974  0.00  0.00    +0.000 A 
ATOM     18  C   UNL     1       4.800   6.251  17.530  0.00  0.00    +0.000 A 
ATOM     19  C   UNL     1       3.672   5.440  17.511  0.00  0.00    +0.000 A 
ATOM     20  C   UNL     1       3.710   4.197  16.884  0.00  0.00    +0.000 A 
ATOM     21  C   UNL     1       4.911   3.737  16.348  0.00  0.00    +0.000 A 
ATOM     22  C   UNL     1       6.052   4.545  16.385  0.00  0.00    +0.000 A 
BRANCH  20  23
ATOM     23  O   UNL     1       2.621   3.377  16.732  0.00  0.00    +0.000 OA
BRANCH  23  24
ATOM     24  C   UNL     1       2.659   2.209  17.560  0.00  0.00    +0.000 C 
BRANCH  24  25
ATOM     25  C   UNL     1       2.340   2.537  18.996  0.00  0.00    +0.000 A 
ATOM     26  C   UNL     1       1.071   2.973  19.390  0.00  0.00    +0.000 A 
ATOM     27  C   UNL     1       0.812   3.252  20.732  0.00  0.00    +0.000 A 
ATOM     28  C   UNL     1       1.806   3.083  21.692  0.00  0.00    +0.000 A 
ATOM     29  C   UNL     1       3.066   2.625  21.313  0.00  0.00    +0.000 A 
ATOM     30  C   UNL     1       3.331   2.347  19.973  0.00  0.00    +0.000 A 
ENDBRANCH  24  25
ENDBRANCH  23  24
ENDBRANCH  20  23
ENDBRANCH  16  17
ENDBRANCH   1  16
TORSDOF 11
ENDMDL
MODEL 9
REMARK VINA RESULT:      -6.9      5.207      7.651
REMARK  Name = 
REMARK  12 active torsions:
REMARK  status: ('A' for Active; 'I' for Inactive)
REMARK    1  A    between atoms: C_1  and  C_2
REMARK    2  A    between atoms: C_2  and  O_3
REMARK    3  A    between atoms: O_3  and  C_4
REMARK    4  A    between atoms: C_4  and  C_6
REMARK    5  A    between atoms: C_9  and  N_10
REMARK    6  A    between atoms: N_10  and  C_11
REMARK    7  A    between atoms: C_11  and  C_12
REMARK    8  A    between atoms: C_12  and  C_13
REMARK    9  A    between atoms: C_13  and  C_14
REMARK   10  A    between atoms: C_17  and  O_18
REMARK   11  A    between atoms: O_18  and  C_19
REMARK   12  A    between atoms: C_19  and  C_20
REMARK                            x       y       z     vdW  Elec       q    Type
REMARK                         _______ _______ _______ _____ _____    ______ ____
ROOT
ATOM      1  C   UNL     1       7.819   8.272  17.445  0.00  0.00    +0.000 C 
ENDROOT
BRANCH   1   2
ATOM      2  C   UNL     1       7.310   6.840  17.462  0.00  0.00    +0.000 C 
BRANCH   2   3
ATOM      3  N   UNL     1       6.079   6.763  16.678  0.00  0.00    +0.000 N 
ATOM      4  H   UNL     1       5.775   7.674  16.341  0.00  0.00    +0.000 HD
BRANCH   3   8
ATOM      5  C   UNL     1       2.752   4.621  18.128  0.00  0.00    +0.000 A 
ATOM      6  C   UNL     1       2.748   6.017  18.104  0.00  0.00    +0.000 A 
ATOM      7  C   UNL     1       3.864   6.710  17.627  0.00  0.00    +0.000 A 
ATOM      8  C   UNL     1       5.013   6.029  17.203  0.00  0.00    +0.000 A 
ATOM      9  C   UNL     1       4.990   4.631  17.204  0.00  0.00    +0.000 A 
ATOM     10  C   UNL     1       3.878   3.930  17.669  0.00  0.00    +0.000 A 
BRANCH   5  11
ATOM     11  C   UNL     1       1.581   3.917  18.707  0.00  0.00    +0.000 C 
ATOM     12  O   UNL     1       0.937   3.065  18.119  0.00  0.00    +0.000 OA
BRANCH  11  13
ATOM     13  O   UNL     1       1.281   4.471  19.906  0.00  0.00    +0.000 OA
BRANCH  13  15
ATOM     14  C   UNL     1       1.470   2.728  21.522  0.00  0.00    +0.000 C 
ATOM     15  C   UNL     1       2.077   4.021  21.007  0.00  0.00    +0.000 C 
ENDBRANCH  13  15
ENDBRANCH  11  13
ENDBRANCH   5  11
ENDBRANCH   3   8
ENDBRANCH   2   3
ENDBRANCH   1   2
BRANCH   1  16
ATOM     16  C   UNL     1       8.569   8.604  18.737  0.00  0.00    +0.000 C 
BRANCH  16  17
ATOM     17  C   UNL     1       8.952  10.058  18.879  0.00  0.00    +0.000 A 
ATOM     18  C   UNL     1       9.561  10.547  20.040  0.00  0.00    +0.000 A 
ATOM     19  C   UNL     1       9.952  11.876  20.136  0.00  0.00    +0.000 A 
ATOM     20  C   UNL     1       9.796  12.737  19.051  0.00  0.00    +0.000 A 
ATOM     21  C   UNL     1       9.167  12.274  17.897  0.00  0.00    +0.000 A 
ATOM     22  C   UNL     1       8.754  10.941  17.807  0.00  0.00    +0.000 A 
BRANCH  20  23
ATOM     23  O   UNL     1      10.243  14.032  19.024  0.00  0.00    +0.000 OA
BRANCH  23  24
ATOM     24  C   UNL     1       9.698  14.809  17.951  0.00  0.00    +0.000 C 
BRANCH  24  25
ATOM     25  C   UNL     1       8.549  15.665  18.415  0.00  0.00    +0.000 A 
ATOM     26  C   UNL     1       7.220  15.340  18.125  0.00  0.00    +0.000 A 
ATOM     27  C   UNL     1       6.183  16.151  18.587  0.00  0.00    +0.000 A 
ATOM     28  C   UNL     1       6.459  17.280  19.353  0.00  0.00    +0.000 A 
ATOM     29  C   UNL     1       7.778  17.599  19.668  0.00  0.00    +0.000 A 
ATOM     30  C   UNL     1       8.818  16.793  19.209  0.00  0.00    +0.000 A 
ENDBRANCH  24  25
ENDBRANCH  23  24
ENDBRANCH  20  23
ENDBRANCH  16  17
ENDBRANCH   1  16
TORSDOF 11
ENDMDL
