MODEL 1
REMARK VINA RESULT:      -7.6      0.000      0.000
REMARK  Name = 
REMARK  10 active torsions:
REMARK  status: ('A' for Active; 'I' for Inactive)
REMARK    1  A    between atoms: C_1  and  O_2
REMARK    2  A    between atoms: O_2  and  C_3
REMARK    3  A    between atoms: C_5  and  C_6
REMARK    4  A    between atoms: N_7  and  N_8
REMARK    5  A    between atoms: C_9  and  C_11
REMARK    6  A    between atoms: C_11  and  O_12
REMARK    7  A    between atoms: O_12  and  C_13
REMARK    8  A    between atoms: C_17  and  C_18
REMARK    9  A    between atoms: C_20  and  O_21
REMARK   10  A    between atoms: C_22  and  N_23
REMARK                            x       y       z     vdW  Elec       q    Type
REMARK                         _______ _______ _______ _____ _____    ______ ____
ROOT
ATOM      1  C   UNL     1       3.217   7.778  17.543  0.00  0.00    +0.000 C 
ATOM      2  N   UNL     1       2.303   7.994  18.443  0.00  0.00    +0.000 NA
ENDROOT
BRANCH   1   5
ATOM      3  C   UNL     1       4.551   4.439  18.685  0.00  0.00    +0.000 A 
ATOM      4  C   UNL     1       3.832   5.639  18.620  0.00  0.00    +0.000 A 
ATOM      5  C   UNL     1       3.999   6.520  17.539  0.00  0.00    +0.000 A 
ATOM      6  C   UNL     1       4.887   6.199  16.505  0.00  0.00    +0.000 A 
ATOM      7  C   UNL     1       5.593   4.999  16.588  0.00  0.00    +0.000 A 
ATOM      8  C   UNL     1       5.442   4.116  17.666  0.00  0.00    +0.000 A 
BRANCH   7   9
ATOM      9  N   UNL     1       6.526   4.629  15.545  0.00  0.00    +0.000 N 
ATOM     10  O   UNL     1       7.459   5.408  15.306  0.00  0.00    +0.000 OA
ATOM     11  O   UNL     1       6.265   3.600  14.905  0.00  0.00    +0.000 OA
ENDBRANCH   7   9
BRANCH   3  13
ATOM     12  C   UNL     1       4.302   2.261  19.618  0.00  0.00    +0.000 C 
ATOM     13  O   UNL     1       4.296   3.676  19.791  0.00  0.00    +0.000 OA
ENDBRANCH   3  13
BRANCH   6  14
ATOM     14  O   UNL     1       5.091   7.034  15.441  0.00  0.00    +0.000 OA
ATOM     15  H   UNL     1       5.903   6.744  14.969  0.00  0.00    +0.000 HD
ENDBRANCH   6  14
ENDBRANCH   1   5
BRANCH   2  16
ATOM     16  N   UNL     1       1.585   9.160  18.349  0.00  0.00    +0.000 N 
ATOM     17  C   UNL     1       0.731   9.644  19.342  0.00  0.00    +0.000 C 
ATOM     18  O   UNL     1       0.530   9.098  20.425  0.00  0.00    +0.000 OA
ATOM     19  H   UNL     1       1.977   9.846  17.708  0.00  0.00    +0.000 HD
BRANCH  17  20
ATOM     20  C   UNL     1      -0.039  10.887  18.907  0.00  0.00    +0.000 C 
BRANCH  20  21
ATOM     21  O   UNL     1      -1.404  10.923  19.298  0.00  0.00    +0.000 OA
BRANCH  21  22
ATOM     22  C   UNL     1      -2.302  10.868  18.258  0.00  0.00    +0.000 A 
ATOM     23  C   UNL     1      -1.907  10.143  17.132  0.00  0.00    +0.000 A 
ATOM     24  C   UNL     1      -2.734  10.077  16.004  0.00  0.00    +0.000 A 
ATOM     25  C   UNL     1      -3.954  10.755  15.985  0.00  0.00    +0.000 A 
ATOM     26  C   UNL     1      -4.364  11.482  17.104  0.00  0.00    +0.000 A 
ATOM     27  C   UNL     1      -5.606  12.324  17.089  0.00  0.00    +0.000 C 
ATOM     28  C   UNL     1      -3.550  11.502  18.243  0.00  0.00    +0.000 A 
ENDBRANCH  21  22
ENDBRANCH  20  21
ENDBRANCH  17  20
ENDBRANCH   2  16
TORSDOF 8
ENDMDL
MODEL 2
REMARK VINA RESULT:      -7.5      1.523      3.137
REMARK  Name = 
REMARK  10 active torsions:
REMARK  status: ('A' for Active; 'I' for Inactive)
REMARK    1  A    between atoms: C_1  and  O_2
REMARK    2  A    between atoms: O_2  and  C_3
REMARK    3  A    between atoms: C_5  and  C_6
REMARK    4  A    between atoms: N_7  and  N_8
REMARK    5  A    between atoms: C_9  and  C_11
REMARK    6  A    between atoms: C_11  and  O_12
REMARK    7  A    between atoms: O_12  and  C_13
REMARK    8  A    between atoms: C_17  and  C_18
REMARK    9  A    between atoms: C_20  and  O_21
REMARK   10  A    between atoms: C_22  and  N_23
REMARK                            x       y       z     vdW  Elec       q    Type
REMARK                         _______ _______ _______ _____ _____    ______ ____
ROOT
ATOM      1  C   UNL     1       2.303   7.279  17.980  0.00  0.00    +0.000 C 
ATOM      2  N   UNL     1       2.280   8.000  19.062  0.00  0.00    +0.000 NA
ENDROOT
BRANCH   1   5
ATOM      3  C   UNL     1       5.361   5.515  16.649  0.00  0.00    +0.000 A 
ATOM      4  C   UNL     1       4.370   6.476  16.885  0.00  0.00    +0.000 A 
ATOM      5  C   UNL     1       3.326   6.225  17.791  0.00  0.00    +0.000 A 
ATOM      6  C   UNL     1       3.273   5.006  18.477  0.00  0.00    +0.000 A 
ATOM      7  C   UNL     1       4.270   4.062  18.229  0.00  0.00    +0.000 A 
ATOM      8  C   UNL     1       5.311   4.297  17.321  0.00  0.00    +0.000 A 
BRANCH   7   9
ATOM      9  N   UNL     1       4.252   2.786  18.912  0.00  0.00    +0.000 N 
ATOM     10  O   UNL     1       3.517   1.900  18.454  0.00  0.00    +0.000 OA
ATOM     11  O   UNL     1       4.908   2.708  19.961  0.00  0.00    +0.000 OA
ENDBRANCH   7   9
BRANCH   3  13
ATOM     12  C   UNL     1       7.106   4.846  15.171  0.00  0.00    +0.000 C 
ATOM     13  O   UNL     1       6.316   5.886  15.743  0.00  0.00    +0.000 OA
ENDBRANCH   3  13
BRANCH   6  14
ATOM     14  O   UNL     1       2.267   4.714  19.357  0.00  0.00    +0.000 OA
ATOM     15  H   UNL     1       1.582   4.189  18.884  0.00  0.00    +0.000 HD
ENDBRANCH   6  14
ENDBRANCH   1   5
BRANCH   2  16
ATOM     16  N   UNL     1       1.271   8.922  19.188  0.00  0.00    +0.000 N 
ATOM     17  C   UNL     1       1.302  10.208  18.646  0.00  0.00    +0.000 C 
ATOM     18  O   UNL     1       2.225  10.667  17.976  0.00  0.00    +0.000 OA
ATOM     19  H   UNL     1       0.351   8.519  19.359  0.00  0.00    +0.000 HD
BRANCH  17  20
ATOM     20  C   UNL     1       0.104  11.056  19.063  0.00  0.00    +0.000 C 
BRANCH  20  21
ATOM     21  O   UNL     1      -1.123  10.352  19.188  0.00  0.00    +0.000 OA
BRANCH  21  22
ATOM     22  C   UNL     1      -2.062  10.661  18.233  0.00  0.00    +0.000 A 
ATOM     23  C   UNL     1      -3.176  11.384  18.665  0.00  0.00    +0.000 A 
ATOM     24  C   UNL     1      -4.209  11.697  17.772  0.00  0.00    +0.000 A 
ATOM     25  C   UNL     1      -4.146  11.269  16.445  0.00  0.00    +0.000 A 
ATOM     26  C   UNL     1      -3.038  10.547  15.997  0.00  0.00    +0.000 A 
ATOM     27  C   UNL     1      -2.980   9.962  14.617  0.00  0.00    +0.000 C 
ATOM     28  C   UNL     1      -1.991  10.280  16.887  0.00  0.00    +0.000 A 
ENDBRANCH  21  22
ENDBRANCH  20  21
ENDBRANCH  17  20
ENDBRANCH   2  16
TORSDOF 8
ENDMDL
MODEL 3
REMARK VINA RESULT:      -7.5      0.782      1.442
REMARK  Name = 
REMARK  10 active torsions:
REMARK  status: ('A' for Active; 'I' for Inactive)
REMARK    1  A    between atoms: C_1  and  O_2
REMARK    2  A    between atoms: O_2  and  C_3
REMARK    3  A    between atoms: C_5  and  C_6
REMARK    4  A    between atoms: N_7  and  N_8
REMARK    5  A    between atoms: C_9  and  C_11
REMARK    6  A    between atoms: C_11  and  O_12
REMARK    7  A    between atoms: O_12  and  C_13
REMARK    8  A    between atoms: C_17  and  C_18
REMARK    9  A    between atoms: C_20  and  O_21
REMARK   10  A    between atoms: C_22  and  N_23
REMARK                            x       y       z     vdW  Elec       q    Type
REMARK                         _______ _______ _______ _____ _____    ______ ____
ROOT
ATOM      1  C   UNL     1       3.003   7.631  17.522  0.00  0.00    +0.000 C 
ATOM      2  N   UNL     1       2.354   8.121  18.537  0.00  0.00    +0.000 NA
ENDROOT
BRANCH   1   5
ATOM      3  C   UNL     1       4.123   4.291  18.874  0.00  0.00    +0.000 A 
ATOM      4  C   UNL     1       3.430   5.495  18.692  0.00  0.00    +0.000 A 
ATOM      5  C   UNL     1       3.768   6.368  17.646  0.00  0.00    +0.000 A 
ATOM      6  C   UNL     1       4.803   6.036  16.763  0.00  0.00    +0.000 A 
ATOM      7  C   UNL     1       5.480   4.833  16.960  0.00  0.00    +0.000 A 
ATOM      8  C   UNL     1       5.159   3.958  18.006  0.00  0.00    +0.000 A 
BRANCH   7   9
ATOM      9  N   UNL     1       6.560   4.452  16.075  0.00  0.00    +0.000 N 
ATOM     10  O   UNL     1       7.720   4.608  16.484  0.00  0.00    +0.000 OA
ATOM     11  O   UNL     1       6.242   4.082  14.936  0.00  0.00    +0.000 OA
ENDBRANCH   7   9
BRANCH   3  13
ATOM     12  C   UNL     1       2.568   4.018  20.658  0.00  0.00    +0.000 C 
ATOM     13  O   UNL     1       3.696   3.536  19.931  0.00  0.00    +0.000 OA
ENDBRANCH   3  13
BRANCH   6  14
ATOM     14  O   UNL     1       5.174   6.864  15.739  0.00  0.00    +0.000 OA
ATOM     15  H   UNL     1       4.399   6.998  15.149  0.00  0.00    +0.000 HD
ENDBRANCH   6  14
ENDBRANCH   1   5
BRANCH   2  16
ATOM     16  N   UNL     1       1.626   9.266  18.331  0.00  0.00    +0.000 N 
ATOM     17  C   UNL     1       0.785   9.850  19.280  0.00  0.00    +0.000 C 
ATOM     18  O   UNL     1       0.606   9.423  20.420  0.00  0.00    +0.000 OA
ATOM     19  H   UNL     1       2.003   9.881  17.613  0.00  0.00    +0.000 HD
BRANCH  17  20
ATOM     20  C   UNL     1      -0.000  11.034  18.727  0.00  0.00    +0.000 C 
BRANCH  20  21
ATOM     21  O   UNL     1      -1.328  11.164  19.217  0.00  0.00    +0.000 OA
BRANCH  21  22
ATOM     22  C   UNL     1      -2.298  11.203  18.244  0.00  0.00    +0.000 A 
ATOM     23  C   UNL     1      -3.540  11.718  18.622  0.00  0.00    +0.000 A 
ATOM     24  C   UNL     1      -4.604  11.748  17.712  0.00  0.00    +0.000 A 
ATOM     25  C   UNL     1      -4.440  11.242  16.421  0.00  0.00    +0.000 A 
ATOM     26  C   UNL     1      -3.203  10.728  16.026  0.00  0.00    +0.000 A 
ATOM     27  C   UNL     1      -3.012  10.064  14.694  0.00  0.00    +0.000 C 
ATOM     28  C   UNL     1      -2.135  10.746  16.931  0.00  0.00    +0.000 A 
ENDBRANCH  21  22
ENDBRANCH  20  21
ENDBRANCH  17  20
ENDBRANCH   2  16
TORSDOF 8
ENDMDL
MODEL 4
REMARK VINA RESULT:      -7.5      2.674      3.569
REMARK  Name = 
REMARK  10 active torsions:
REMARK  status: ('A' for Active; 'I' for Inactive)
REMARK    1  A    between atoms: C_1  and  O_2
REMARK    2  A    between atoms: O_2  and  C_3
REMARK    3  A    between atoms: C_5  and  C_6
REMARK    4  A    between atoms: N_7  and  N_8
REMARK    5  A    between atoms: C_9  and  C_11
REMARK    6  A    between atoms: C_11  and  O_12
REMARK    7  A    between atoms: O_12  and  C_13
REMARK    8  A    between atoms: C_17  and  C_18
REMARK    9  A    between atoms: C_20  and  O_21
REMARK   10  A    between atoms: C_22  and  N_23
REMARK                            x       y       z     vdW  Elec       q    Type
REMARK                         _______ _______ _______ _____ _____    ______ ____
ROOT
ATOM      1  C   UNL     1       2.671   7.352  18.319  0.00  0.00    +0.000 C 
ATOM      2  N   UNL     1       2.561   8.421  17.586  0.00  0.00    +0.000 NA
ENDROOT
BRANCH   1   5
ATOM      3  C   UNL     1       3.187   3.735  17.379  0.00  0.00    +0.000 A 
ATOM      4  C   UNL     1       2.616   4.926  17.845  0.00  0.00    +0.000 A 
ATOM      5  C   UNL     1       3.331   6.134  17.795  0.00  0.00    +0.000 A 
ATOM      6  C   UNL     1       4.627   6.160  17.266  0.00  0.00    +0.000 A 
ATOM      7  C   UNL     1       5.177   4.963  16.806  0.00  0.00    +0.000 A 
ATOM      8  C   UNL     1       4.478   3.750  16.860  0.00  0.00    +0.000 A 
BRANCH   7   9
ATOM      9  N   UNL     1       6.516   4.941  16.256  0.00  0.00    +0.000 N 
ATOM     10  O   UNL     1       6.699   5.503  15.167  0.00  0.00    +0.000 OA
ATOM     11  O   UNL     1       7.361   4.279  16.875  0.00  0.00    +0.000 OA
ENDBRANCH   7   9
BRANCH   3  13
ATOM     12  C   UNL     1       1.369   2.666  18.488  0.00  0.00    +0.000 C 
ATOM     13  O   UNL     1       2.385   2.632  17.489  0.00  0.00    +0.000 OA
ENDBRANCH   3  13
BRANCH   6  14
ATOM     14  O   UNL     1       5.364   7.311  17.211  0.00  0.00    +0.000 OA
ATOM     15  H   UNL     1       6.106   7.236  17.851  0.00  0.00    +0.000 HD
ENDBRANCH   6  14
ENDBRANCH   1   5
BRANCH   2  16
ATOM     16  N   UNL     1       1.985   9.527  18.159  0.00  0.00    +0.000 N 
ATOM     17  C   UNL     1       0.630   9.849  18.068  0.00  0.00    +0.000 C 
ATOM     18  O   UNL     1      -0.216   9.177  17.481  0.00  0.00    +0.000 OA
ATOM     19  H   UNL     1       2.491   9.898  18.960  0.00  0.00    +0.000 HD
BRANCH  17  20
ATOM     20  C   UNL     1       0.301  11.205  18.683  0.00  0.00    +0.000 C 
BRANCH  20  21
ATOM     21  O   UNL     1       1.016  11.523  19.869  0.00  0.00    +0.000 OA
BRANCH  21  22
ATOM     22  C   UNL     1       0.382  11.165  21.036  0.00  0.00    +0.000 A 
ATOM     23  C   UNL     1       0.775   9.955  21.612  0.00  0.00    +0.000 A 
ATOM     24  C   UNL     1       0.146   9.484  22.772  0.00  0.00    +0.000 A 
ATOM     25  C   UNL     1      -0.895  10.210  23.352  0.00  0.00    +0.000 A 
ATOM     26  C   UNL     1      -1.297  11.423  22.789  0.00  0.00    +0.000 A 
ATOM     27  C   UNL     1      -2.488  12.177  23.303  0.00  0.00    +0.000 C 
ATOM     28  C   UNL     1      -0.631  11.906  21.657  0.00  0.00    +0.000 A 
ENDBRANCH  21  22
ENDBRANCH  20  21
ENDBRANCH  17  20
ENDBRANCH   2  16
TORSDOF 8
ENDMDL
MODEL 5
REMARK VINA RESULT:      -7.5      1.309      1.856
REMARK  Name = 
REMARK  10 active torsions:
REMARK  status: ('A' for Active; 'I' for Inactive)
REMARK    1  A    between atoms: C_1  and  O_2
REMARK    2  A    between atoms: O_2  and  C_3
REMARK    3  A    between atoms: C_5  and  C_6
REMARK    4  A    between atoms: N_7  and  N_8
REMARK    5  A    between atoms: C_9  and  C_11
REMARK    6  A    between atoms: C_11  and  O_12
REMARK    7  A    between atoms: O_12  and  C_13
REMARK    8  A    between atoms: C_17  and  C_18
REMARK    9  A    between atoms: C_20  and  O_21
REMARK   10  A    between atoms: C_22  and  N_23
REMARK                            x       y       z     vdW  Elec       q    Type
REMARK                         _______ _______ _______ _____ _____    ______ ____
ROOT
ATOM      1  C   UNL     1       2.594   7.560  17.921  0.00  0.00    +0.000 C 
ATOM      2  N   UNL     1       2.143   8.223  18.945  0.00  0.00    +0.000 NA
ENDROOT
BRANCH   1   5
ATOM      3  C   UNL     1       3.173   3.970  18.928  0.00  0.00    +0.000 A 
ATOM      4  C   UNL     1       2.574   5.219  18.716  0.00  0.00    +0.000 A 
ATOM      5  C   UNL     1       3.285   6.261  18.100  0.00  0.00    +0.000 A 
ATOM      6  C   UNL     1       4.605   6.057  17.680  0.00  0.00    +0.000 A 
ATOM      7  C   UNL     1       5.183   4.807  17.900  0.00  0.00    +0.000 A 
ATOM      8  C   UNL     1       4.488   3.762  18.522  0.00  0.00    +0.000 A 
BRANCH   7   9
ATOM      9  N   UNL     1       6.547   4.553  17.488  0.00  0.00    +0.000 N 
ATOM     10  O   UNL     1       6.765   4.419  16.276  0.00  0.00    +0.000 OA
ATOM     11  O   UNL     1       7.381   4.396  18.391  0.00  0.00    +0.000 OA
ENDBRANCH   7   9
BRANCH   3  13
ATOM     12  C   UNL     1       1.645   2.157  18.695  0.00  0.00    +0.000 C 
ATOM     13  O   UNL     1       2.372   3.046  19.540  0.00  0.00    +0.000 OA
ENDBRANCH   3  13
BRANCH   6  14
ATOM     14  O   UNL     1       5.338   7.049  17.089  0.00  0.00    +0.000 OA
ATOM     15  H   UNL     1       5.316   7.842  17.671  0.00  0.00    +0.000 HD
ENDBRANCH   6  14
ENDBRANCH   1   5
BRANCH   2  16
ATOM     16  N   UNL     1       1.469   9.392  18.696  0.00  0.00    +0.000 N 
ATOM     17  C   UNL     1       0.472   9.920  19.518  0.00  0.00    +0.000 C 
ATOM     18  O   UNL     1       0.088   9.416  20.572  0.00  0.00    +0.000 OA
ATOM     19  H   UNL     1       1.972  10.051  18.105  0.00  0.00    +0.000 HD
BRANCH  17  20
ATOM     20  C   UNL     1      -0.196  11.155  18.921  0.00  0.00    +0.000 C 
BRANCH  20  21
ATOM     21  O   UNL     1      -1.529  11.391  19.351  0.00  0.00    +0.000 OA
BRANCH  21  22
ATOM     22  C   UNL     1      -2.471  11.356  18.350  0.00  0.00    +0.000 A 
ATOM     23  C   UNL     1      -3.761  11.765  18.694  0.00  0.00    +0.000 A 
ATOM     24  C   UNL     1      -4.797  11.713  17.753  0.00  0.00    +0.000 A 
ATOM     25  C   UNL     1      -4.555  11.229  16.466  0.00  0.00    +0.000 A 
ATOM     26  C   UNL     1      -3.269  10.819  16.106  0.00  0.00    +0.000 A 
ATOM     27  C   UNL     1      -2.986  10.181  14.778  0.00  0.00    +0.000 C 
ATOM     28  C   UNL     1      -2.232  10.920  17.041  0.00  0.00    +0.000 A 
ENDBRANCH  21  22
ENDBRANCH  20  21
ENDBRANCH  17  20
ENDBRANCH   2  16
TORSDOF 8
ENDMDL
MODEL 6
REMARK VINA RESULT:      -7.4      1.425      1.974
REMARK  Name = 
REMARK  10 active torsions:
REMARK  status: ('A' for Active; 'I' for Inactive)
REMARK    1  A    between atoms: C_1  and  O_2
REMARK    2  A    between atoms: O_2  and  C_3
REMARK    3  A    between atoms: C_5  and  C_6
REMARK    4  A    between atoms: N_7  and  N_8
REMARK    5  A    between atoms: C_9  and  C_11
REMARK    6  A    between atoms: C_11  and  O_12
REMARK    7  A    between atoms: O_12  and  C_13
REMARK    8  A    between atoms: C_17  and  C_18
REMARK    9  A    between atoms: C_20  and  O_21
REMARK   10  A    between atoms: C_22  and  N_23
REMARK                            x       y       z     vdW  Elec       q    Type
REMARK                         _______ _______ _______ _____ _____    ______ ____
ROOT
ATOM      1  C   UNL     1       2.386   6.917  18.204  0.00  0.00    +0.000 C 
ATOM      2  N   UNL     1       2.333   8.116  17.702  0.00  0.00    +0.000 NA
ENDROOT
BRANCH   1   5
ATOM      3  C   UNL     1       3.992   3.617  17.329  0.00  0.00    +0.000 A 
ATOM      4  C   UNL     1       3.065   4.587  17.731  0.00  0.00    +0.000 A 
ATOM      5  C   UNL     1       3.411   5.948  17.752  0.00  0.00    +0.000 A 
ATOM      6  C   UNL     1       4.692   6.351  17.359  0.00  0.00    +0.000 A 
ATOM      7  C   UNL     1       5.601   5.370  16.960  0.00  0.00    +0.000 A 
ATOM      8  C   UNL     1       5.271   4.008  16.944  0.00  0.00    +0.000 A 
BRANCH   7   9
ATOM      9  N   UNL     1       6.939   5.740  16.550  0.00  0.00    +0.000 N 
ATOM     10  O   UNL     1       7.265   5.509  15.378  0.00  0.00    +0.000 OA
ATOM     11  O   UNL     1       7.691   6.177  17.434  0.00  0.00    +0.000 OA
ENDBRANCH   7   9
BRANCH   3  13
ATOM     12  C   UNL     1       3.537   1.667  18.618  0.00  0.00    +0.000 C 
ATOM     13  O   UNL     1       3.527   2.331  17.358  0.00  0.00    +0.000 OA
ENDBRANCH   3  13
BRANCH   6  14
ATOM     14  O   UNL     1       5.076   7.663  17.377  0.00  0.00    +0.000 OA
ATOM     15  H   UNL     1       5.545   7.839  18.224  0.00  0.00    +0.000 HD
ENDBRANCH   6  14
ENDBRANCH   1   5
BRANCH   2  16
ATOM     16  N   UNL     1       1.389   8.974  18.208  0.00  0.00    +0.000 N 
ATOM     17  C   UNL     1       1.531  10.362  18.264  0.00  0.00    +0.000 C 
ATOM     18  O   UNL     1       2.507  10.987  17.852  0.00  0.00    +0.000 OA
ATOM     19  H   UNL     1       0.438   8.612  18.192  0.00  0.00    +0.000 HD
BRANCH  17  20
ATOM     20  C   UNL     1       0.385  11.046  19.002  0.00  0.00    +0.000 C 
BRANCH  20  21
ATOM     21  O   UNL     1      -0.798  10.270  19.137  0.00  0.00    +0.000 OA
BRANCH  21  22
ATOM     22  C   UNL     1      -1.812  10.614  18.274  0.00  0.00    +0.000 A 
ATOM     23  C   UNL     1      -2.837  11.404  18.800  0.00  0.00    +0.000 A 
ATOM     24  C   UNL     1      -3.937  11.758  18.009  0.00  0.00    +0.000 A 
ATOM     25  C   UNL     1      -4.031  11.307  16.692  0.00  0.00    +0.000 A 
ATOM     26  C   UNL     1      -3.013  10.520  16.150  0.00  0.00    +0.000 A 
ATOM     27  C   UNL     1      -3.126   9.911  14.783  0.00  0.00    +0.000 C 
ATOM     28  C   UNL     1      -1.896  10.210  16.936  0.00  0.00    +0.000 A 
ENDBRANCH  21  22
ENDBRANCH  20  21
ENDBRANCH  17  20
ENDBRANCH   2  16
TORSDOF 8
ENDMDL
MODEL 7
REMARK VINA RESULT:      -7.4      2.736      9.275
REMARK  Name = 
REMARK  10 active torsions:
REMARK  status: ('A' for Active; 'I' for Inactive)
REMARK    1  A    between atoms: C_1  and  O_2
REMARK    2  A    between atoms: O_2  and  C_3
REMARK    3  A    between atoms: C_5  and  C_6
REMARK    4  A    between atoms: N_7  and  N_8
REMARK    5  A    between atoms: C_9  and  C_11
REMARK    6  A    between atoms: C_11  and  O_12
REMARK    7  A    between atoms: O_12  and  C_13
REMARK    8  A    between atoms: C_17  and  C_18
REMARK    9  A    between atoms: C_20  and  O_21
REMARK   10  A    between atoms: C_22  and  N_23
REMARK                            x       y       z     vdW  Elec       q    Type
REMARK                         _______ _______ _______ _____ _____    ______ ____
ROOT
ATOM      1  C   UNL     1       2.204   7.558  19.694  0.00  0.00    +0.000 C 
ATOM      2  N   UNL     1       2.109   6.442  20.356  0.00  0.00    +0.000 NA
ENDROOT
BRANCH   1   5
ATOM      3  C   UNL     1      -0.304  10.281  18.967  0.00  0.00    +0.000 A 
ATOM      4  C   UNL     1       0.601   9.222  18.816  0.00  0.00    +0.000 A 
ATOM      5  C   UNL     1       1.249   8.665  19.930  0.00  0.00    +0.000 A 
ATOM      6  C   UNL     1       0.988   9.161  21.212  0.00  0.00    +0.000 A 
ATOM      7  C   UNL     1       0.084  10.216  21.343  0.00  0.00    +0.000 A 
ATOM      8  C   UNL     1      -0.562  10.787  20.238  0.00  0.00    +0.000 A 
BRANCH   7   9
ATOM      9  N   UNL     1      -0.212  10.764  22.649  0.00  0.00    +0.000 N 
ATOM     10  O   UNL     1      -0.422   9.966  23.573  0.00  0.00    +0.000 OA
ATOM     11  O   UNL     1      -0.325  11.997  22.723  0.00  0.00    +0.000 OA
ENDBRANCH   7   9
BRANCH   3  13
ATOM     12  C   UNL     1      -2.086  10.127  17.394  0.00  0.00    +0.000 C 
ATOM     13  O   UNL     1      -0.862  10.731  17.802  0.00  0.00    +0.000 OA
ENDBRANCH   3  13
BRANCH   6  14
ATOM     14  O   UNL     1       1.608   8.658  22.323  0.00  0.00    +0.000 OA
ATOM     15  H   UNL     1       1.181   9.045  23.120  0.00  0.00    +0.000 HD
ENDBRANCH   6  14
ENDBRANCH   1   5
BRANCH   2  16
ATOM     16  N   UNL     1       3.062   5.482  20.120  0.00  0.00    +0.000 N 
ATOM     17  C   UNL     1       2.912   4.422  19.225  0.00  0.00    +0.000 C 
ATOM     18  O   UNL     1       1.920   4.226  18.525  0.00  0.00    +0.000 OA
ATOM     19  H   UNL     1       4.015   5.775  20.328  0.00  0.00    +0.000 HD
BRANCH  17  20
ATOM     20  C   UNL     1       4.076   3.437  19.273  0.00  0.00    +0.000 C 
BRANCH  20  21
ATOM     21  O   UNL     1       5.361   4.023  19.423  0.00  0.00    +0.000 OA
BRANCH  21  22
ATOM     22  C   UNL     1       5.887   4.557  18.271  0.00  0.00    +0.000 A 
ATOM     23  C   UNL     1       6.734   5.658  18.424  0.00  0.00    +0.000 A 
ATOM     24  C   UNL     1       7.273   6.300  17.302  0.00  0.00    +0.000 A 
ATOM     25  C   UNL     1       6.952   5.861  16.017  0.00  0.00    +0.000 A 
ATOM     26  C   UNL     1       6.109   4.760  15.847  0.00  0.00    +0.000 A 
ATOM     27  C   UNL     1       5.639   4.326  14.490  0.00  0.00    +0.000 C 
ATOM     28  C   UNL     1       5.613   4.098  16.977  0.00  0.00    +0.000 A 
ENDBRANCH  21  22
ENDBRANCH  20  21
ENDBRANCH  17  20
ENDBRANCH   2  16
TORSDOF 8
ENDMDL
MODEL 8
REMARK VINA RESULT:      -7.4      1.470      3.102
REMARK  Name = 
REMARK  10 active torsions:
REMARK  status: ('A' for Active; 'I' for Inactive)
REMARK    1  A    between atoms: C_1  and  O_2
REMARK    2  A    between atoms: O_2  and  C_3
REMARK    3  A    between atoms: C_5  and  C_6
REMARK    4  A    between atoms: N_7  and  N_8
REMARK    5  A    between atoms: C_9  and  C_11
REMARK    6  A    between atoms: C_11  and  O_12
REMARK    7  A    between atoms: O_12  and  C_13
REMARK    8  A    between atoms: C_17  and  C_18
REMARK    9  A    between atoms: C_20  and  O_21
REMARK   10  A    between atoms: C_22  and  N_23
REMARK                            x       y       z     vdW  Elec       q    Type
REMARK                         _______ _______ _______ _____ _____    ______ ____
ROOT
ATOM      1  C   UNL     1       2.555   8.078  18.063  0.00  0.00    +0.000 C 
ATOM      2  N   UNL     1       1.971   8.294  19.205  0.00  0.00    +0.000 NA
ENDROOT
BRANCH   1   5
ATOM      3  C   UNL     1       5.124   5.774  16.539  0.00  0.00    +0.000 A 
ATOM      4  C   UNL     1       4.322   6.890  16.805  0.00  0.00    +0.000 A 
ATOM      5  C   UNL     1       3.381   6.868  17.848  0.00  0.00    +0.000 A 
ATOM      6  C   UNL     1       3.244   5.723  18.642  0.00  0.00    +0.000 A 
ATOM      7  C   UNL     1       4.053   4.622  18.362  0.00  0.00    +0.000 A 
ATOM      8  C   UNL     1       4.988   4.629  17.318  0.00  0.00    +0.000 A 
BRANCH   7   9
ATOM      9  N   UNL     1       3.942   3.416  19.154  0.00  0.00    +0.000 N 
ATOM     10  O   UNL     1       2.817   2.911  19.277  0.00  0.00    +0.000 OA
ATOM     11  O   UNL     1       4.971   3.029  19.727  0.00  0.00    +0.000 OA
ENDBRANCH   7   9
BRANCH   3  13
ATOM     12  C   UNL     1       7.015   4.943  15.352  0.00  0.00    +0.000 C 
ATOM     13  O   UNL     1       5.995   5.928  15.495  0.00  0.00    +0.000 OA
ENDBRANCH   3  13
BRANCH   6  14
ATOM     14  O   UNL     1       2.331   5.653  19.659  0.00  0.00    +0.000 OA
ATOM     15  H   UNL     1       1.997   4.730  19.714  0.00  0.00    +0.000 HD
ENDBRANCH   6  14
ENDBRANCH   1   5
BRANCH   2  16
ATOM     16  N   UNL     1       1.180   9.410  19.311  0.00  0.00    +0.000 N 
ATOM     17  C   UNL     1       0.196   9.592  20.285  0.00  0.00    +0.000 C 
ATOM     18  O   UNL     1      -0.072   8.787  21.174  0.00  0.00    +0.000 OA
ATOM     19  H   UNL     1       1.582  10.252  18.904  0.00  0.00    +0.000 HD
BRANCH  17  20
ATOM     20  C   UNL     1      -0.618  10.865  20.074  0.00  0.00    +0.000 C 
BRANCH  20  21
ATOM     21  O   UNL     1      -0.612  11.377  18.749  0.00  0.00    +0.000 OA
BRANCH  21  22
ATOM     22  C   UNL     1      -1.827  11.323  18.107  0.00  0.00    +0.000 A 
ATOM     23  C   UNL     1      -2.940  11.728  18.847  0.00  0.00    +0.000 A 
ATOM     24  C   UNL     1      -4.225  11.656  18.293  0.00  0.00    +0.000 A 
ATOM     25  C   UNL     1      -4.407  11.159  17.001  0.00  0.00    +0.000 A 
ATOM     26  C   UNL     1      -3.303  10.753  16.248  0.00  0.00    +0.000 A 
ATOM     27  C   UNL     1      -3.458  10.101  14.906  0.00  0.00    +0.000 C 
ATOM     28  C   UNL     1      -2.021  10.873  16.796  0.00  0.00    +0.000 A 
ENDBRANCH  21  22
ENDBRANCH  20  21
ENDBRANCH  17  20
ENDBRANCH   2  16
TORSDOF 8
ENDMDL
MODEL 9
REMARK VINA RESULT:      -7.4      3.366      9.038
REMARK  Name = 
REMARK  10 active torsions:
REMARK  status: ('A' for Active; 'I' for Inactive)
REMARK    1  A    between atoms: C_1  and  O_2
REMARK    2  A    between atoms: O_2  and  C_3
REMARK    3  A    between atoms: C_5  and  C_6
REMARK    4  A    between atoms: N_7  and  N_8
REMARK    5  A    between atoms: C_9  and  C_11
REMARK    6  A    between atoms: C_11  and  O_12
REMARK    7  A    between atoms: O_12  and  C_13
REMARK    8  A    between atoms: C_17  and  C_18
REMARK    9  A    between atoms: C_20  and  O_21
REMARK   10  A    between atoms: C_22  and  N_23
REMARK                            x       y       z     vdW  Elec       q    Type
REMARK                         _______ _______ _______ _____ _____    ______ ____
ROOT
ATOM      1  C   UNL     1       1.631   8.373  19.996  0.00  0.00    +0.000 C 
ATOM      2  N   UNL     1       1.447   7.320  20.738  0.00  0.00    +0.000 NA
ENDROOT
BRANCH   1   5
ATOM      3  C   UNL     1      -0.324  11.123  21.684  0.00  0.00    +0.000 A 
ATOM      4  C   UNL     1       0.487  10.003  21.462  0.00  0.00    +0.000 A 
ATOM      5  C   UNL     1       0.780   9.575  20.157  0.00  0.00    +0.000 A 
ATOM      6  C   UNL     1       0.268  10.275  19.058  0.00  0.00    +0.000 A 
ATOM      7  C   UNL     1      -0.536  11.389  19.300  0.00  0.00    +0.000 A 
ATOM      8  C   UNL     1      -0.844  11.821  20.597  0.00  0.00    +0.000 A 
BRANCH   7   9
ATOM      9  N   UNL     1      -1.091  12.140  18.195  0.00  0.00    +0.000 N 
ATOM     10  O   UNL     1      -1.881  11.555  17.441  0.00  0.00    +0.000 OA
ATOM     11  O   UNL     1      -0.661  13.292  18.033  0.00  0.00    +0.000 OA
ENDBRANCH   7   9
BRANCH   3  13
ATOM     12  C   UNL     1      -1.574  12.358  23.293  0.00  0.00    +0.000 C 
ATOM     13  O   UNL     1      -0.532  11.430  23.000  0.00  0.00    +0.000 OA
ENDBRANCH   3  13
BRANCH   6  14
ATOM     14  O   UNL     1       0.517   9.885  17.771  0.00  0.00    +0.000 OA
ATOM     15  H   UNL     1      -0.180   9.246  17.499  0.00  0.00    +0.000 HD
ENDBRANCH   6  14
ENDBRANCH   1   5
BRANCH   2  16
ATOM     16  N   UNL     1       2.309   6.265  20.567  0.00  0.00    +0.000 N 
ATOM     17  C   UNL     1       1.912   4.934  20.435  0.00  0.00    +0.000 C 
ATOM     18  O   UNL     1       0.746   4.543  20.437  0.00  0.00    +0.000 OA
ATOM     19  H   UNL     1       3.208   6.518  20.162  0.00  0.00    +0.000 HD
BRANCH  17  20
ATOM     20  C   UNL     1       3.090   3.965  20.397  0.00  0.00    +0.000 C 
BRANCH  20  21
ATOM     21  O   UNL     1       3.536   3.603  19.098  0.00  0.00    +0.000 OA
BRANCH  21  22
ATOM     22  C   UNL     1       4.401   4.499  18.517  0.00  0.00    +0.000 A 
ATOM     23  C   UNL     1       4.041   4.987  17.258  0.00  0.00    +0.000 A 
ATOM     24  C   UNL     1       4.888   5.862  16.567  0.00  0.00    +0.000 A 
ATOM     25  C   UNL     1       6.112   6.240  17.120  0.00  0.00    +0.000 A 
ATOM     26  C   UNL     1       6.485   5.764  18.378  0.00  0.00    +0.000 A 
ATOM     27  C   UNL     1       7.840   6.043  18.960  0.00  0.00    +0.000 C 
ATOM     28  C   UNL     1       5.610   4.926  19.080  0.00  0.00    +0.000 A 
ENDBRANCH  21  22
ENDBRANCH  20  21
ENDBRANCH  17  20
ENDBRANCH   2  16
TORSDOF 8
ENDMDL
