MODEL 1
REMARK VINA RESULT:      -7.3      0.000      0.000
REMARK  Name = 
REMARK  2 active torsions:
REMARK  status: ('A' for Active; 'I' for Inactive)
REMARK    1  A    between atoms: N_1  and  C_2
REMARK    2  A    between atoms: C_8  and  C_9
REMARK                            x       y       z     vdW  Elec       q    Type
REMARK                         _______ _______ _______ _____ _____    ______ ____
ROOT
ATOM      1  C   UNL     1       7.546   6.005  19.207  0.00  0.00    +0.000 A 
ATOM      2  N   UNL     1       8.258   6.898  18.489  0.00  0.00    +0.000 NA
ATOM      3  C   UNL     1       7.659   7.511  17.452  0.00  0.00    +0.000 A 
ATOM      4  N   UNL     1       6.406   7.340  17.007  0.00  0.00    +0.000 NA
ATOM      5  C   UNL     1       5.741   6.434  17.743  0.00  0.00    +0.000 A 
ATOM      6  S   UNL     1       4.129   6.005  17.422  0.00  0.00    +0.000 S 
ATOM      7  C   UNL     1       4.149   4.921  18.768  0.00  0.00    +0.000 A 
ATOM      8  N   UNL     1       5.309   4.832  19.396  0.00  0.00    +0.000 NA
ATOM      9  C   UNL     1       6.218   5.726  18.833  0.00  0.00    +0.000 A 
ENDROOT
BRANCH   7  10
ATOM     10  C   UNL     1       2.947   4.147  19.124  0.00  0.00    +0.000 A 
ATOM     11  C   UNL     1       2.462   4.185  20.442  0.00  0.00    +0.000 A 
ATOM     12  C   UNL     1       1.319   3.468  20.808  0.00  0.00    +0.000 A 
ATOM     13  C   UNL     1       0.637   2.709  19.861  0.00  0.00    +0.000 A 
ATOM     14  C   UNL     1       1.096   2.667  18.547  0.00  0.00    +0.000 A 
ATOM     15  C   UNL     1       2.240   3.382  18.181  0.00  0.00    +0.000 A 
ENDBRANCH   7  10
BRANCH   1  16
ATOM     16  N   UNL     1       8.177   5.397  20.285  0.00  0.00    +0.000 N 
ATOM     17  H   UNL     1       7.521   5.093  20.993  0.00  0.00    +0.000 HD
ATOM     18  H   UNL     1       9.023   5.861  20.589  0.00  0.00    +0.000 HD
ENDBRANCH   1  16
TORSDOF 2
ENDMDL
MODEL 2
REMARK VINA RESULT:      -7.2      0.064      1.205
REMARK  Name = 
REMARK  2 active torsions:
REMARK  status: ('A' for Active; 'I' for Inactive)
REMARK    1  A    between atoms: N_1  and  C_2
REMARK    2  A    between atoms: C_8  and  C_9
REMARK                            x       y       z     vdW  Elec       q    Type
REMARK                         _______ _______ _______ _____ _____    ______ ____
ROOT
ATOM      1  C   UNL     1       7.538   5.970  19.196  0.00  0.00    +0.000 A 
ATOM      2  N   UNL     1       8.258   6.855  18.476  0.00  0.00    +0.000 NA
ATOM      3  C   UNL     1       7.659   7.484  17.449  0.00  0.00    +0.000 A 
ATOM      4  N   UNL     1       6.399   7.338  17.016  0.00  0.00    +0.000 NA
ATOM      5  C   UNL     1       5.726   6.439  17.753  0.00  0.00    +0.000 A 
ATOM      6  S   UNL     1       4.103   6.040  17.445  0.00  0.00    +0.000 S 
ATOM      7  C   UNL     1       4.119   4.948  18.785  0.00  0.00    +0.000 A 
ATOM      8  N   UNL     1       5.283   4.835  19.400  0.00  0.00    +0.000 NA
ATOM      9  C   UNL     1       6.202   5.717  18.834  0.00  0.00    +0.000 A 
ENDROOT
BRANCH   7  10
ATOM     10  C   UNL     1       2.906   4.192  19.148  0.00  0.00    +0.000 A 
ATOM     11  C   UNL     1       2.291   3.368  18.191  0.00  0.00    +0.000 A 
ATOM     12  C   UNL     1       1.144   2.632  18.508  0.00  0.00    +0.000 A 
ATOM     13  C   UNL     1       0.601   2.702  19.788  0.00  0.00    +0.000 A 
ATOM     14  C   UNL     1       1.203   3.505  20.753  0.00  0.00    +0.000 A 
ATOM     15  C   UNL     1       2.348   4.242  20.435  0.00  0.00    +0.000 A 
ENDBRANCH   7  10
BRANCH   1  16
ATOM     16  N   UNL     1       8.168   5.345  20.264  0.00  0.00    +0.000 N 
ATOM     17  H   UNL     1       7.660   5.458  21.131  0.00  0.00    +0.000 HD
ATOM     18  H   UNL     1       9.174   5.464  20.283  0.00  0.00    +0.000 HD
ENDBRANCH   1  16
TORSDOF 2
ENDMDL
MODEL 3
REMARK VINA RESULT:      -7.1      2.145      2.331
REMARK  Name = 
REMARK  2 active torsions:
REMARK  status: ('A' for Active; 'I' for Inactive)
REMARK    1  A    between atoms: N_1  and  C_2
REMARK    2  A    between atoms: C_8  and  C_9
REMARK                            x       y       z     vdW  Elec       q    Type
REMARK                         _______ _______ _______ _____ _____    ______ ____
ROOT
ATOM      1  C   UNL     1       7.267   4.557  17.101  0.00  0.00    +0.000 A 
ATOM      2  N   UNL     1       7.651   4.821  15.835  0.00  0.00    +0.000 NA
ATOM      3  C   UNL     1       6.714   4.829  14.870  0.00  0.00    +0.000 A 
ATOM      4  N   UNL     1       5.401   4.588  14.995  0.00  0.00    +0.000 NA
ATOM      5  C   UNL     1       5.068   4.319  16.268  0.00  0.00    +0.000 A 
ATOM      6  S   UNL     1       3.473   3.974  16.739  0.00  0.00    +0.000 S 
ATOM      7  C   UNL     1       3.994   3.811  18.380  0.00  0.00    +0.000 A 
ATOM      8  N   UNL     1       5.295   3.947  18.569  0.00  0.00    +0.000 NA
ATOM      9  C   UNL     1       5.913   4.275  17.364  0.00  0.00    +0.000 A 
ENDROOT
BRANCH   7  10
ATOM     10  C   UNL     1       3.024   3.504  19.446  0.00  0.00    +0.000 A 
ATOM     11  C   UNL     1       3.444   2.789  20.581  0.00  0.00    +0.000 A 
ATOM     12  C   UNL     1       2.548   2.490  21.613  0.00  0.00    +0.000 A 
ATOM     13  C   UNL     1       1.223   2.907  21.530  0.00  0.00    +0.000 A 
ATOM     14  C   UNL     1       0.790   3.625  20.419  0.00  0.00    +0.000 A 
ATOM     15  C   UNL     1       1.684   3.922  19.386  0.00  0.00    +0.000 A 
ENDBRANCH   7  10
BRANCH   1  16
ATOM     16  N   UNL     1       8.246   4.571  18.086  0.00  0.00    +0.000 N 
ATOM     17  H   UNL     1       8.581   3.643  18.310  0.00  0.00    +0.000 HD
ATOM     18  H   UNL     1       8.058   5.206  18.852  0.00  0.00    +0.000 HD
ENDBRANCH   1  16
TORSDOF 2
ENDMDL
MODEL 4
REMARK VINA RESULT:      -7.1      2.026      2.485
REMARK  Name = 
REMARK  2 active torsions:
REMARK  status: ('A' for Active; 'I' for Inactive)
REMARK    1  A    between atoms: N_1  and  C_2
REMARK    2  A    between atoms: C_8  and  C_9
REMARK                            x       y       z     vdW  Elec       q    Type
REMARK                         _______ _______ _______ _____ _____    ______ ____
ROOT
ATOM      1  C   UNL     1       6.946   5.831  16.880  0.00  0.00    +0.000 A 
ATOM      2  N   UNL     1       7.493   5.707  15.652  0.00  0.00    +0.000 NA
ATOM      3  C   UNL     1       6.961   4.810  14.802  0.00  0.00    +0.000 A 
ATOM      4  N   UNL     1       5.931   3.981  15.018  0.00  0.00    +0.000 NA
ATOM      5  C   UNL     1       5.428   4.131  16.255  0.00  0.00    +0.000 A 
ATOM      6  S   UNL     1       4.113   3.217  16.821  0.00  0.00    +0.000 S 
ATOM      7  C   UNL     1       4.181   4.056  18.331  0.00  0.00    +0.000 A 
ATOM      8  N   UNL     1       5.164   4.933  18.439  0.00  0.00    +0.000 NA
ATOM      9  C   UNL     1       5.863   5.006  17.236  0.00  0.00    +0.000 A 
ENDROOT
BRANCH   7  10
ATOM     10  C   UNL     1       3.214   3.751  19.401  0.00  0.00    +0.000 A 
ATOM     11  C   UNL     1       1.942   4.348  19.377  0.00  0.00    +0.000 A 
ATOM     12  C   UNL     1       1.000   4.072  20.374  0.00  0.00    +0.000 A 
ATOM     13  C   UNL     1       1.312   3.189  21.403  0.00  0.00    +0.000 A 
ATOM     14  C   UNL     1       2.563   2.579  21.438  0.00  0.00    +0.000 A 
ATOM     15  C   UNL     1       3.505   2.857  20.444  0.00  0.00    +0.000 A 
ENDBRANCH   7  10
BRANCH   1  16
ATOM     16  N   UNL     1       7.497   6.775  17.737  0.00  0.00    +0.000 N 
ATOM     17  H   UNL     1       8.285   6.410  18.257  0.00  0.00    +0.000 HD
ATOM     18  H   UNL     1       6.816   7.333  18.236  0.00  0.00    +0.000 HD
ENDBRANCH   1  16
TORSDOF 2
ENDMDL
MODEL 5
REMARK VINA RESULT:      -7.0      0.899      1.203
REMARK  Name = 
REMARK  2 active torsions:
REMARK  status: ('A' for Active; 'I' for Inactive)
REMARK    1  A    between atoms: N_1  and  C_2
REMARK    2  A    between atoms: C_8  and  C_9
REMARK                            x       y       z     vdW  Elec       q    Type
REMARK                         _______ _______ _______ _____ _____    ______ ____
ROOT
ATOM      1  C   UNL     1       7.735   6.045  19.195  0.00  0.00    +0.000 A 
ATOM      2  N   UNL     1       8.419   7.073  18.650  0.00  0.00    +0.000 NA
ATOM      3  C   UNL     1       7.852   7.756  17.640  0.00  0.00    +0.000 A 
ATOM      4  N   UNL     1       6.659   7.540  17.068  0.00  0.00    +0.000 NA
ATOM      5  C   UNL     1       6.022   6.501  17.633  0.00  0.00    +0.000 A 
ATOM      6  S   UNL     1       4.486   5.986  17.120  0.00  0.00    +0.000 S 
ATOM      7  C   UNL     1       4.497   4.752  18.331  0.00  0.00    +0.000 A 
ATOM      8  N   UNL     1       5.606   4.681  19.047  0.00  0.00    +0.000 NA
ATOM      9  C   UNL     1       6.473   5.707  18.674  0.00  0.00    +0.000 A 
ENDROOT
BRANCH   7  10
ATOM     10  C   UNL     1       3.345   3.846  18.487  0.00  0.00    +0.000 A 
ATOM     11  C   UNL     1       3.553   2.456  18.504  0.00  0.00    +0.000 A 
ATOM     12  C   UNL     1       2.481   1.572  18.658  0.00  0.00    +0.000 A 
ATOM     13  C   UNL     1       1.187   2.062  18.806  0.00  0.00    +0.000 A 
ATOM     14  C   UNL     1       0.962   3.436  18.802  0.00  0.00    +0.000 A 
ATOM     15  C   UNL     1       2.033   4.320  18.645  0.00  0.00    +0.000 A 
ENDBRANCH   7  10
BRANCH   1  16
ATOM     16  N   UNL     1       8.330   5.364  20.249  0.00  0.00    +0.000 N 
ATOM     17  H   UNL     1       8.459   4.380  20.049  0.00  0.00    +0.000 HD
ATOM     18  H   UNL     1       7.978   5.621  21.163  0.00  0.00    +0.000 HD
ENDBRANCH   1  16
TORSDOF 2
ENDMDL
MODEL 6
REMARK VINA RESULT:      -6.8      2.188      5.978
REMARK  Name = 
REMARK  2 active torsions:
REMARK  status: ('A' for Active; 'I' for Inactive)
REMARK    1  A    between atoms: N_1  and  C_2
REMARK    2  A    between atoms: C_8  and  C_9
REMARK                            x       y       z     vdW  Elec       q    Type
REMARK                         _______ _______ _______ _____ _____    ______ ____
ROOT
ATOM      1  C   UNL     1       1.989   3.195  20.635  0.00  0.00    +0.000 A 
ATOM      2  N   UNL     1       0.925   2.464  20.242  0.00  0.00    +0.000 NA
ATOM      3  C   UNL     1       0.707   2.305  18.924  0.00  0.00    +0.000 A 
ATOM      4  N   UNL     1       1.421   2.804  17.906  0.00  0.00    +0.000 NA
ATOM      5  C   UNL     1       2.461   3.533  18.344  0.00  0.00    +0.000 A 
ATOM      6  S   UNL     1       3.551   4.294  17.285  0.00  0.00    +0.000 S 
ATOM      7  C   UNL     1       4.445   4.893  18.638  0.00  0.00    +0.000 A 
ATOM      8  N   UNL     1       3.935   4.596  19.821  0.00  0.00    +0.000 NA
ATOM      9  C   UNL     1       2.814   3.785  19.659  0.00  0.00    +0.000 A 
ENDROOT
BRANCH   7  10
ATOM     10  C   UNL     1       5.660   5.703  18.433  0.00  0.00    +0.000 A 
ATOM     11  C   UNL     1       6.790   5.474  19.236  0.00  0.00    +0.000 A 
ATOM     12  C   UNL     1       7.959   6.221  19.059  0.00  0.00    +0.000 A 
ATOM     13  C   UNL     1       8.020   7.200  18.072  0.00  0.00    +0.000 A 
ATOM     14  C   UNL     1       6.914   7.434  17.260  0.00  0.00    +0.000 A 
ATOM     15  C   UNL     1       5.744   6.690  17.438  0.00  0.00    +0.000 A 
ENDBRANCH   7  10
BRANCH   1  16
ATOM     16  N   UNL     1       2.207   3.332  21.999  0.00  0.00    +0.000 N 
ATOM     17  H   UNL     1       1.587   4.010  22.423  0.00  0.00    +0.000 HD
ATOM     18  H   UNL     1       3.184   3.349  22.266  0.00  0.00    +0.000 HD
ENDBRANCH   1  16
TORSDOF 2
ENDMDL
MODEL 7
REMARK VINA RESULT:      -6.7      2.208      6.049
REMARK  Name = 
REMARK  2 active torsions:
REMARK  status: ('A' for Active; 'I' for Inactive)
REMARK    1  A    between atoms: N_1  and  C_2
REMARK    2  A    between atoms: C_8  and  C_9
REMARK                            x       y       z     vdW  Elec       q    Type
REMARK                         _______ _______ _______ _____ _____    ______ ____
ROOT
ATOM      1  C   UNL     1       1.986   3.025  20.537  0.00  0.00    +0.000 A 
ATOM      2  N   UNL     1       0.887   2.375  20.099  0.00  0.00    +0.000 NA
ATOM      3  C   UNL     1       0.643   2.347  18.776  0.00  0.00    +0.000 A 
ATOM      4  N   UNL     1       1.363   2.910  17.795  0.00  0.00    +0.000 NA
ATOM      5  C   UNL     1       2.437   3.555  18.278  0.00  0.00    +0.000 A 
ATOM      6  S   UNL     1       3.541   4.367  17.274  0.00  0.00    +0.000 S 
ATOM      7  C   UNL     1       4.479   4.802  18.659  0.00  0.00    +0.000 A 
ATOM      8  N   UNL     1       3.975   4.418  19.819  0.00  0.00    +0.000 NA
ATOM      9  C   UNL     1       2.819   3.669  19.604  0.00  0.00    +0.000 A 
ENDROOT
BRANCH   7  10
ATOM     10  C   UNL     1       5.722   5.580  18.507  0.00  0.00    +0.000 A 
ATOM     11  C   UNL     1       5.809   6.558  17.502  0.00  0.00    +0.000 A 
ATOM     12  C   UNL     1       6.972   7.317  17.338  0.00  0.00    +0.000 A 
ATOM     13  C   UNL     1       8.062   7.117  18.181  0.00  0.00    +0.000 A 
ATOM     14  C   UNL     1       7.991   6.160  19.189  0.00  0.00    +0.000 A 
ATOM     15  C   UNL     1       6.829   5.399  19.351  0.00  0.00    +0.000 A 
ENDBRANCH   7  10
BRANCH   1  16
ATOM     16  N   UNL     1       2.230   3.026  21.904  0.00  0.00    +0.000 N 
ATOM     17  H   UNL     1       2.612   2.147  22.228  0.00  0.00    +0.000 HD
ATOM     18  H   UNL     1       1.502   3.460  22.457  0.00  0.00    +0.000 HD
ENDBRANCH   1  16
TORSDOF 2
ENDMDL
MODEL 8
REMARK VINA RESULT:      -6.7      2.178      5.983
REMARK  Name = 
REMARK  2 active torsions:
REMARK  status: ('A' for Active; 'I' for Inactive)
REMARK    1  A    between atoms: N_1  and  C_2
REMARK    2  A    between atoms: C_8  and  C_9
REMARK                            x       y       z     vdW  Elec       q    Type
REMARK                         _______ _______ _______ _____ _____    ______ ____
ROOT
ATOM      1  C   UNL     1       3.090   1.796  18.586  0.00  0.00    +0.000 A 
ATOM      2  N   UNL     1       1.778   1.515  18.731  0.00  0.00    +0.000 NA
ATOM      3  C   UNL     1       0.912   2.538  18.842  0.00  0.00    +0.000 A 
ATOM      4  N   UNL     1       1.184   3.850  18.841  0.00  0.00    +0.000 NA
ATOM      5  C   UNL     1       2.500   4.081  18.708  0.00  0.00    +0.000 A 
ATOM      6  S   UNL     1       3.151   5.650  18.672  0.00  0.00    +0.000 S 
ATOM      7  C   UNL     1       4.734   4.987  18.465  0.00  0.00    +0.000 A 
ATOM      8  N   UNL     1       4.794   3.667  18.479  0.00  0.00    +0.000 NA
ATOM      9  C   UNL     1       3.507   3.140  18.583  0.00  0.00    +0.000 A 
ENDROOT
BRANCH   7  10
ATOM     10  C   UNL     1       5.904   5.874  18.328  0.00  0.00    +0.000 A 
ATOM     11  C   UNL     1       7.026   5.674  19.151  0.00  0.00    +0.000 A 
ATOM     12  C   UNL     1       8.154   6.493  19.038  0.00  0.00    +0.000 A 
ATOM     13  C   UNL     1       8.182   7.517  18.096  0.00  0.00    +0.000 A 
ATOM     14  C   UNL     1       7.084   7.724  17.265  0.00  0.00    +0.000 A 
ATOM     15  C   UNL     1       5.956   6.908  17.379  0.00  0.00    +0.000 A 
ENDBRANCH   7  10
BRANCH   1  16
ATOM     16  N   UNL     1       3.966   0.726  18.455  0.00  0.00    +0.000 N 
ATOM     17  H   UNL     1       4.843   0.997  18.028  0.00  0.00    +0.000 HD
ATOM     18  H   UNL     1       3.532  -0.134  18.145  0.00  0.00    +0.000 HD
ENDBRANCH   1  16
TORSDOF 2
ENDMDL
MODEL 9
REMARK VINA RESULT:      -6.7      2.181      6.051
REMARK  Name = 
REMARK  2 active torsions:
REMARK  status: ('A' for Active; 'I' for Inactive)
REMARK    1  A    between atoms: N_1  and  C_2
REMARK    2  A    between atoms: C_8  and  C_9
REMARK                            x       y       z     vdW  Elec       q    Type
REMARK                         _______ _______ _______ _____ _____    ______ ____
ROOT
ATOM      1  C   UNL     1       3.088   1.800  18.573  0.00  0.00    +0.000 A 
ATOM      2  N   UNL     1       1.774   1.527  18.716  0.00  0.00    +0.000 NA
ATOM      3  C   UNL     1       0.912   2.555  18.819  0.00  0.00    +0.000 A 
ATOM      4  N   UNL     1       1.192   3.866  18.811  0.00  0.00    +0.000 NA
ATOM      5  C   UNL     1       2.509   4.089  18.680  0.00  0.00    +0.000 A 
ATOM      6  S   UNL     1       3.169   5.654  18.637  0.00  0.00    +0.000 S 
ATOM      7  C   UNL     1       4.749   4.982  18.439  0.00  0.00    +0.000 A 
ATOM      8  N   UNL     1       4.801   3.661  18.460  0.00  0.00    +0.000 NA
ATOM      9  C   UNL     1       3.512   3.142  18.563  0.00  0.00    +0.000 A 
ENDROOT
BRANCH   7  10
ATOM     10  C   UNL     1       5.924   5.861  18.299  0.00  0.00    +0.000 A 
ATOM     11  C   UNL     1       5.897   6.912  17.367  0.00  0.00    +0.000 A 
ATOM     12  C   UNL     1       6.993   7.768  17.218  0.00  0.00    +0.000 A 
ATOM     13  C   UNL     1       8.129   7.591  18.004  0.00  0.00    +0.000 A 
ATOM     14  C   UNL     1       8.171   6.562  18.939  0.00  0.00    +0.000 A 
ATOM     15  C   UNL     1       7.076   5.705  19.087  0.00  0.00    +0.000 A 
ENDBRANCH   7  10
BRANCH   1  16
ATOM     16  N   UNL     1       3.959   0.725  18.451  0.00  0.00    +0.000 N 
ATOM     17  H   UNL     1       3.566  -0.133  18.816  0.00  0.00    +0.000 HD
ATOM     18  H   UNL     1       4.922   0.941  18.677  0.00  0.00    +0.000 HD
ENDBRANCH   1  16
TORSDOF 2
ENDMDL
