MODEL 1
REMARK VINA RESULT:      -8.3      0.000      0.000
REMARK  Name = 
REMARK  6 active torsions:
REMARK  status: ('A' for Active; 'I' for Inactive)
REMARK    1  A    between atoms: C_1  and  C_2
REMARK    2  A    between atoms: C_2  and  C_3
REMARK    3  A    between atoms: C_2  and  C_4
REMARK    4  A    between atoms: C_2  and  O_5
REMARK    5  A    between atoms: O_5  and  C_6
REMARK    6  A    between atoms: N_11  and  C_12
REMARK                            x       y       z     vdW  Elec       q    Type
REMARK                         _______ _______ _______ _____ _____    ______ ____
ROOT
ATOM      1  C   UNL     1       1.496   7.782  20.333  0.00  0.00    +0.000 A 
ATOM      2  C   UNL     1       1.116   6.708  21.174  0.00  0.00    +0.000 A 
ATOM      3  C   UNL     1       1.529   5.394  20.948  0.00  0.00    +0.000 A 
ATOM      4  C   UNL     1       2.360   5.182  19.871  0.00  0.00    +0.000 A 
ATOM      5  C   UNL     1       2.793   6.207  19.033  0.00  0.00    +0.000 A 
ATOM      6  C   UNL     1       2.364   7.505  19.255  0.00  0.00    +0.000 A 
ATOM      7  N   UNL     1       3.653   5.707  18.036  0.00  0.00    +0.000 N 
ATOM      8  C   UNL     1       3.796   4.329  18.180  0.00  0.00    +0.000 A 
ATOM      9  N   UNL     1       4.494   3.553  17.435  0.00  0.00    +0.000 NA
ATOM     10  C   UNL     1       5.197   4.173  16.383  0.00  0.00    +0.000 A 
ATOM     11  C   UNL     1       5.987   3.402  15.534  0.00  0.00    +0.000 A 
ATOM     12  C   UNL     1       6.677   4.035  14.512  0.00  0.00    +0.000 A 
ATOM     13  N   UNL     1       6.633   5.369  14.288  0.00  0.00    +0.000 NA
ATOM     14  C   UNL     1       5.861   6.102  15.123  0.00  0.00    +0.000 A 
ATOM     15  C   UNL     1       5.141   5.552  16.162  0.00  0.00    +0.000 A 
ATOM     16  C   UNL     1       4.301   6.390  17.044  0.00  0.00    +0.000 A 
ATOM     17  O   UNL     1       4.241   7.600  16.850  0.00  0.00    +0.000 OA
ATOM     18  C   UNL     1       2.951   3.933  19.382  0.00  0.00    +0.000 C 
ATOM     19  O   UNL     1       2.792   2.819  19.824  0.00  0.00    +0.000 OA
ENDROOT
BRANCH   1  25
ATOM     20  C   UNL     1      -1.046  12.603  21.189  0.00  0.00    +0.000 C 
ATOM     21  O   UNL     1      -1.492  13.215  20.227  0.00  0.00    +0.000 OA
ATOM     22  N   UNL     1      -0.609  11.308  21.063  0.00  0.00    +0.000 N 
ATOM     23  C   UNL     1      -0.594  10.683  19.736  0.00  0.00    +0.000 C 
ATOM     24  C   UNL     1       0.766  10.013  19.482  0.00  0.00    +0.000 C 
ATOM     25  N   UNL     1       1.039   9.063  20.577  0.00  0.00    +0.000 N 
ATOM     26  C   UNL     1       1.022   9.653  21.933  0.00  0.00    +0.000 C 
ATOM     27  C   UNL     1      -0.297  10.413  22.170  0.00  0.00    +0.000 C 
BRANCH  20  28
ATOM     28  O   UNL     1      -0.895  13.119  22.455  0.00  0.00    +0.000 OA
BRANCH  28  30
ATOM     29  C   UNL     1      -1.641  14.453  24.353  0.00  0.00    +0.000 C 
ATOM     30  C   UNL     1      -2.072  13.679  23.108  0.00  0.00    +0.000 C 
ATOM     31  C   UNL     1      -3.046  12.556  23.480  0.00  0.00    +0.000 C 
ATOM     32  C   UNL     1      -2.780  14.696  22.176  0.00  0.00    +0.000 C 
ENDBRANCH  28  30
ENDBRANCH  20  28
ENDBRANCH   1  25
TORSDOF 3
ENDMDL
MODEL 2
REMARK VINA RESULT:      -8.1      2.017     10.649
REMARK  Name = 
REMARK  6 active torsions:
REMARK  status: ('A' for Active; 'I' for Inactive)
REMARK    1  A    between atoms: C_1  and  C_2
REMARK    2  A    between atoms: C_2  and  C_3
REMARK    3  A    between atoms: C_2  and  C_4
REMARK    4  A    between atoms: C_2  and  O_5
REMARK    5  A    between atoms: O_5  and  C_6
REMARK    6  A    between atoms: N_11  and  C_12
REMARK                            x       y       z     vdW  Elec       q    Type
REMARK                         _______ _______ _______ _____ _____    ______ ____
ROOT
ATOM      1  C   UNL     1       0.264   9.672  18.902  0.00  0.00    +0.000 A 
ATOM      2  C   UNL     1      -0.635   9.623  17.809  0.00  0.00    +0.000 A 
ATOM      3  C   UNL     1      -1.823  10.357  17.779  0.00  0.00    +0.000 A 
ATOM      4  C   UNL     1      -2.078  11.168  18.861  0.00  0.00    +0.000 A 
ATOM      5  C   UNL     1      -1.211  11.280  19.946  0.00  0.00    +0.000 A 
ATOM      6  C   UNL     1      -0.044  10.535  19.976  0.00  0.00    +0.000 A 
ATOM      7  N   UNL     1      -1.711  12.198  20.891  0.00  0.00    +0.000 N 
ATOM      8  C   UNL     1      -2.935  12.704  20.459  0.00  0.00    +0.000 A 
ATOM      9  N   UNL     1      -3.672  13.549  21.081  0.00  0.00    +0.000 NA
ATOM     10  C   UNL     1      -3.172  14.020  22.311  0.00  0.00    +0.000 A 
ATOM     11  C   UNL     1      -3.907  14.947  23.045  0.00  0.00    +0.000 A 
ATOM     12  C   UNL     1      -3.389  15.403  24.248  0.00  0.00    +0.000 A 
ATOM     13  N   UNL     1      -2.203  15.001  24.757  0.00  0.00    +0.000 NA
ATOM     14  C   UNL     1      -1.502  14.099  24.031  0.00  0.00    +0.000 A 
ATOM     15  C   UNL     1      -1.944  13.593  22.827  0.00  0.00    +0.000 A 
ATOM     16  C   UNL     1      -1.150  12.602  22.071  0.00  0.00    +0.000 A 
ATOM     17  O   UNL     1      -0.076  12.217  22.522  0.00  0.00    +0.000 OA
ATOM     18  C   UNL     1      -3.223  12.045  19.119  0.00  0.00    +0.000 C 
ATOM     19  O   UNL     1      -4.202  12.203  18.426  0.00  0.00    +0.000 OA
ENDROOT
BRANCH   1  25
ATOM     20  C   UNL     1       4.384   6.007  18.735  0.00  0.00    +0.000 C 
ATOM     21  O   UNL     1       4.514   5.221  19.665  0.00  0.00    +0.000 OA
ATOM     22  N   UNL     1       3.257   6.782  18.615  0.00  0.00    +0.000 N 
ATOM     23  C   UNL     1       2.238   6.730  19.669  0.00  0.00    +0.000 C 
ATOM     24  C   UNL     1       1.845   8.153  20.096  0.00  0.00    +0.000 C 
ATOM     25  N   UNL     1       1.413   8.905  18.904  0.00  0.00    +0.000 N 
ATOM     26  C   UNL     1       2.410   8.971  17.814  0.00  0.00    +0.000 C 
ATOM     27  C   UNL     1       2.888   7.555  17.437  0.00  0.00    +0.000 C 
BRANCH  20  28
ATOM     28  O   UNL     1       5.320   6.235  17.754  0.00  0.00    +0.000 OA
BRANCH  28  30
ATOM     29  C   UNL     1       6.957   4.545  17.118  0.00  0.00    +0.000 C 
ATOM     30  C   UNL     1       5.593   5.160  16.808  0.00  0.00    +0.000 C 
ATOM     31  C   UNL     1       5.560   5.705  15.375  0.00  0.00    +0.000 C 
ATOM     32  C   UNL     1       4.550   4.024  16.958  0.00  0.00    +0.000 C 
ENDBRANCH  28  30
ENDBRANCH  20  28
ENDBRANCH   1  25
TORSDOF 3
ENDMDL
MODEL 3
REMARK VINA RESULT:      -8.0      1.165      1.800
REMARK  Name = 
REMARK  6 active torsions:
REMARK  status: ('A' for Active; 'I' for Inactive)
REMARK    1  A    between atoms: C_1  and  C_2
REMARK    2  A    between atoms: C_2  and  C_3
REMARK    3  A    between atoms: C_2  and  C_4
REMARK    4  A    between atoms: C_2  and  O_5
REMARK    5  A    between atoms: O_5  and  C_6
REMARK    6  A    between atoms: N_11  and  C_12
REMARK                            x       y       z     vdW  Elec       q    Type
REMARK                         _______ _______ _______ _____ _____    ______ ____
ROOT
ATOM      1  C   UNL     1       1.390   7.306  20.409  0.00  0.00    +0.000 A 
ATOM      2  C   UNL     1       1.116   6.172  21.212  0.00  0.00    +0.000 A 
ATOM      3  C   UNL     1       1.646   4.911  20.937  0.00  0.00    +0.000 A 
ATOM      4  C   UNL     1       2.486   4.815  19.851  0.00  0.00    +0.000 A 
ATOM      5  C   UNL     1       2.818   5.905  19.049  0.00  0.00    +0.000 A 
ATOM      6  C   UNL     1       2.273   7.149  19.318  0.00  0.00    +0.000 A 
ATOM      7  N   UNL     1       3.713   5.522  18.032  0.00  0.00    +0.000 N 
ATOM      8  C   UNL     1       3.984   4.159  18.126  0.00  0.00    +0.000 A 
ATOM      9  N   UNL     1       4.746   3.478  17.351  0.00  0.00    +0.000 NA
ATOM     10  C   UNL     1       5.382   4.197  16.320  0.00  0.00    +0.000 A 
ATOM     11  C   UNL     1       6.234   3.532  15.441  0.00  0.00    +0.000 A 
ATOM     12  C   UNL     1       6.857   4.263  14.440  0.00  0.00    +0.000 A 
ATOM     13  N   UNL     1       6.689   5.594  14.265  0.00  0.00    +0.000 NA
ATOM     14  C   UNL     1       5.857   6.223  15.128  0.00  0.00    +0.000 A 
ATOM     15  C   UNL     1       5.197   5.571  16.149  0.00  0.00    +0.000 A 
ATOM     16  C   UNL     1       4.290   6.296  17.063  0.00  0.00    +0.000 A 
ATOM     17  O   UNL     1       4.117   7.502  16.913  0.00  0.00    +0.000 OA
ATOM     18  C   UNL     1       3.187   3.644  19.315  0.00  0.00    +0.000 C 
ATOM     19  O   UNL     1       3.134   2.505  19.717  0.00  0.00    +0.000 OA
ENDROOT
BRANCH   1  25
ATOM     20  C   UNL     1      -0.388  12.223  22.170  0.00  0.00    +0.000 C 
ATOM     21  O   UNL     1      -1.087  12.274  23.174  0.00  0.00    +0.000 OA
ATOM     22  N   UNL     1       0.262  11.066  21.818  0.00  0.00    +0.000 N 
ATOM     23  C   UNL     1       0.039   9.851  22.609  0.00  0.00    +0.000 C 
ATOM     24  C   UNL     1      -0.273   8.666  21.682  0.00  0.00    +0.000 C 
ATOM     25  N   UNL     1       0.818   8.530  20.700  0.00  0.00    +0.000 N 
ATOM     26  C   UNL     1       1.081   9.739  19.889  0.00  0.00    +0.000 C 
ATOM     27  C   UNL     1       1.301  10.960  20.803  0.00  0.00    +0.000 C 
BRANCH  20  28
ATOM     28  O   UNL     1      -0.200  13.256  21.283  0.00  0.00    +0.000 OA
BRANCH  28  30
ATOM     29  C   UNL     1      -0.660  14.003  19.009  0.00  0.00    +0.000 C 
ATOM     30  C   UNL     1      -1.269  13.543  20.333  0.00  0.00    +0.000 C 
ATOM     31  C   UNL     1      -2.198  14.621  20.903  0.00  0.00    +0.000 C 
ATOM     32  C   UNL     1      -2.083  12.261  20.026  0.00  0.00    +0.000 C 
ENDBRANCH  28  30
ENDBRANCH  20  28
ENDBRANCH   1  25
TORSDOF 3
ENDMDL
MODEL 4
REMARK VINA RESULT:      -7.9      2.381      3.080
REMARK  Name = 
REMARK  6 active torsions:
REMARK  status: ('A' for Active; 'I' for Inactive)
REMARK    1  A    between atoms: C_1  and  C_2
REMARK    2  A    between atoms: C_2  and  C_3
REMARK    3  A    between atoms: C_2  and  C_4
REMARK    4  A    between atoms: C_2  and  O_5
REMARK    5  A    between atoms: O_5  and  C_6
REMARK    6  A    between atoms: N_11  and  C_12
REMARK                            x       y       z     vdW  Elec       q    Type
REMARK                         _______ _______ _______ _____ _____    ______ ____
ROOT
ATOM      1  C   UNL     1       0.878   9.574  19.941  0.00  0.00    +0.000 A 
ATOM      2  C   UNL     1       0.496   8.883  21.116  0.00  0.00    +0.000 A 
ATOM      3  C   UNL     1       0.904   7.575  21.385  0.00  0.00    +0.000 A 
ATOM      4  C   UNL     1       1.732   6.981  20.459  0.00  0.00    +0.000 A 
ATOM      5  C   UNL     1       2.166   7.628  19.304  0.00  0.00    +0.000 A 
ATOM      6  C   UNL     1       1.742   8.919  19.037  0.00  0.00    +0.000 A 
ATOM      7  N   UNL     1       3.022   6.794  18.558  0.00  0.00    +0.000 N 
ATOM      8  C   UNL     1       3.161   5.564  19.196  0.00  0.00    +0.000 A 
ATOM      9  N   UNL     1       3.855   4.567  18.784  0.00  0.00    +0.000 NA
ATOM     10  C   UNL     1       4.558   4.757  17.578  0.00  0.00    +0.000 A 
ATOM     11  C   UNL     1       5.343   3.726  17.069  0.00  0.00    +0.000 A 
ATOM     12  C   UNL     1       6.033   3.940  15.885  0.00  0.00    +0.000 A 
ATOM     13  N   UNL     1       5.993   5.099  15.190  0.00  0.00    +0.000 NA
ATOM     14  C   UNL     1       5.224   6.090  15.700  0.00  0.00    +0.000 A 
ATOM     15  C   UNL     1       4.505   5.960  16.869  0.00  0.00    +0.000 A 
ATOM     16  C   UNL     1       3.671   7.065  17.385  0.00  0.00    +0.000 A 
ATOM     17  O   UNL     1       3.614   8.121  16.762  0.00  0.00    +0.000 OA
ATOM     18  C   UNL     1       2.318   5.638  20.459  0.00  0.00    +0.000 C 
ATOM     19  O   UNL     1       2.156   4.763  21.278  0.00  0.00    +0.000 OA
ENDROOT
BRANCH   1  25
ATOM     20  C   UNL     1      -0.645  14.871  19.690  0.00  0.00    +0.000 C 
ATOM     21  O   UNL     1      -1.614  15.239  20.341  0.00  0.00    +0.000 OA
ATOM     22  N   UNL     1      -0.090  13.631  19.886  0.00  0.00    +0.000 N 
ATOM     23  C   UNL     1      -0.727  12.702  20.825  0.00  0.00    +0.000 C 
ATOM     24  C   UNL     1      -0.892  11.320  20.173  0.00  0.00    +0.000 C 
ATOM     25  N   UNL     1       0.425  10.858  19.700  0.00  0.00    +0.000 N 
ATOM     26  C   UNL     1       1.106  11.772  18.758  0.00  0.00    +0.000 C 
ATOM     27  C   UNL     1       1.194  13.189  19.357  0.00  0.00    +0.000 C 
BRANCH  20  28
ATOM     28  O   UNL     1      -0.035  15.600  18.696  0.00  0.00    +0.000 OA
BRANCH  28  30
ATOM     29  C   UNL     1       1.724  17.175  18.091  0.00  0.00    +0.000 C 
ATOM     30  C   UNL     1       0.588  16.867  19.065  0.00  0.00    +0.000 C 
ATOM     31  C   UNL     1       1.115  16.789  20.502  0.00  0.00    +0.000 C 
ATOM     32  C   UNL     1      -0.429  18.030  18.943  0.00  0.00    +0.000 C 
ENDBRANCH  28  30
ENDBRANCH  20  28
ENDBRANCH   1  25
TORSDOF 3
ENDMDL
MODEL 5
REMARK VINA RESULT:      -7.8      1.119      1.423
REMARK  Name = 
REMARK  6 active torsions:
REMARK  status: ('A' for Active; 'I' for Inactive)
REMARK    1  A    between atoms: C_1  and  C_2
REMARK    2  A    between atoms: C_2  and  C_3
REMARK    3  A    between atoms: C_2  and  C_4
REMARK    4  A    between atoms: C_2  and  O_5
REMARK    5  A    between atoms: O_5  and  C_6
REMARK    6  A    between atoms: N_11  and  C_12
REMARK                            x       y       z     vdW  Elec       q    Type
REMARK                         _______ _______ _______ _____ _____    ______ ____
ROOT
ATOM      1  C   UNL     1       1.339   8.514  20.149  0.00  0.00    +0.000 A 
ATOM      2  C   UNL     1       0.950   7.564  21.124  0.00  0.00    +0.000 A 
ATOM      3  C   UNL     1       1.347   6.227  21.071  0.00  0.00    +0.000 A 
ATOM      4  C   UNL     1       2.172   5.865  20.030  0.00  0.00    +0.000 A 
ATOM      5  C   UNL     1       2.614   6.767  19.064  0.00  0.00    +0.000 A 
ATOM      6  C   UNL     1       2.200   8.088  19.114  0.00  0.00    +0.000 A 
ATOM      7  N   UNL     1       3.464   6.130  18.140  0.00  0.00    +0.000 N 
ATOM      8  C   UNL     1       3.593   4.782  18.464  0.00  0.00    +0.000 A 
ATOM      9  N   UNL     1       4.280   3.908  17.826  0.00  0.00    +0.000 NA
ATOM     10  C   UNL     1       4.987   4.375  16.700  0.00  0.00    +0.000 A 
ATOM     11  C   UNL     1       5.765   3.490  15.958  0.00  0.00    +0.000 A 
ATOM     12  C   UNL     1       6.459   3.977  14.860  0.00  0.00    +0.000 A 
ATOM     13  N   UNL     1       6.429   5.269  14.463  0.00  0.00    +0.000 NA
ATOM     14  C   UNL     1       5.667   6.115  15.196  0.00  0.00    +0.000 A 
ATOM     15  C   UNL     1       4.944   5.714  16.299  0.00  0.00    +0.000 A 
ATOM     16  C   UNL     1       4.117   6.670  17.066  0.00  0.00    +0.000 A 
ATOM     17  O   UNL     1       4.069   7.845  16.714  0.00  0.00    +0.000 OA
ATOM     18  C   UNL     1       2.748   4.557  19.708  0.00  0.00    +0.000 C 
ATOM     19  O   UNL     1       2.579   3.513  20.293  0.00  0.00    +0.000 OA
ENDROOT
BRANCH   1  25
ATOM     20  C   UNL     1      -0.954  13.525  19.902  0.00  0.00    +0.000 C 
ATOM     21  O   UNL     1      -0.718  14.237  18.934  0.00  0.00    +0.000 OA
ATOM     22  N   UNL     1      -0.598  12.200  19.910  0.00  0.00    +0.000 N 
ATOM     23  C   UNL     1       0.158  11.655  18.778  0.00  0.00    +0.000 C 
ATOM     24  C   UNL     1       1.369  10.856  19.285  0.00  0.00    +0.000 C 
ATOM     25  N   UNL     1       0.896   9.821  20.223  0.00  0.00    +0.000 N 
ATOM     26  C   UNL     1       0.120  10.330  21.374  0.00  0.00    +0.000 C 
ATOM     27  C   UNL     1      -1.044  11.214  20.886  0.00  0.00    +0.000 C 
BRANCH  20  28
ATOM     28  O   UNL     1      -1.546  13.947  21.069  0.00  0.00    +0.000 OA
BRANCH  28  30
ATOM     29  C   UNL     1      -1.078  14.314  23.433  0.00  0.00    +0.000 C 
ATOM     30  C   UNL     1      -0.738  14.726  22.002  0.00  0.00    +0.000 C 
ATOM     31  C   UNL     1      -0.999  16.222  21.794  0.00  0.00    +0.000 C 
ATOM     32  C   UNL     1       0.769  14.425  21.799  0.00  0.00    +0.000 C 
ENDBRANCH  28  30
ENDBRANCH  20  28
ENDBRANCH   1  25
TORSDOF 3
ENDMDL
MODEL 6
REMARK VINA RESULT:      -7.8      2.139      9.797
REMARK  Name = 
REMARK  6 active torsions:
REMARK  status: ('A' for Active; 'I' for Inactive)
REMARK    1  A    between atoms: C_1  and  C_2
REMARK    2  A    between atoms: C_2  and  C_3
REMARK    3  A    between atoms: C_2  and  C_4
REMARK    4  A    between atoms: C_2  and  O_5
REMARK    5  A    between atoms: O_5  and  C_6
REMARK    6  A    between atoms: N_11  and  C_12
REMARK                            x       y       z     vdW  Elec       q    Type
REMARK                         _______ _______ _______ _____ _____    ______ ____
ROOT
ATOM      1  C   UNL     1       0.988   8.532  20.691  0.00  0.00    +0.000 A 
ATOM      2  C   UNL     1       0.259   8.179  21.853  0.00  0.00    +0.000 A 
ATOM      3  C   UNL     1      -0.534   9.092  22.550  0.00  0.00    +0.000 A 
ATOM      4  C   UNL     1      -0.606  10.368  22.039  0.00  0.00    +0.000 A 
ATOM      5  C   UNL     1       0.062  10.759  20.880  0.00  0.00    +0.000 A 
ATOM      6  C   UNL     1       0.860   9.852  20.205  0.00  0.00    +0.000 A 
ATOM      7  N   UNL     1      -0.213  12.107  20.578  0.00  0.00    +0.000 N 
ATOM      8  C   UNL     1      -1.059  12.647  21.543  0.00  0.00    +0.000 A 
ATOM      9  N   UNL     1      -1.498  13.851  21.584  0.00  0.00    +0.000 NA
ATOM     10  C   UNL     1      -1.093  14.695  20.531  0.00  0.00    +0.000 A 
ATOM     11  C   UNL     1      -1.534  16.015  20.496  0.00  0.00    +0.000 A 
ATOM     12  C   UNL     1      -1.130  16.823  19.444  0.00  0.00    +0.000 A 
ATOM     13  N   UNL     1      -0.329  16.403  18.438  0.00  0.00    +0.000 NA
ATOM     14  C   UNL     1       0.091  15.117  18.488  0.00  0.00    +0.000 A 
ATOM     15  C   UNL     1      -0.262  14.248  19.499  0.00  0.00    +0.000 A 
ATOM     16  C   UNL     1       0.226  12.854  19.519  0.00  0.00    +0.000 A 
ATOM     17  O   UNL     1       0.963  12.458  18.620  0.00  0.00    +0.000 OA
ATOM     18  C   UNL     1      -1.343  11.532  22.538  0.00  0.00    +0.000 C 
ATOM     19  O   UNL     1      -2.020  11.602  23.537  0.00  0.00    +0.000 OA
ENDROOT
BRANCH   1  25
ATOM     20  C   UNL     1       3.502   4.499  17.890  0.00  0.00    +0.000 C 
ATOM     21  O   UNL     1       3.509   3.369  18.360  0.00  0.00    +0.000 OA
ATOM     22  N   UNL     1       2.708   5.483  18.425  0.00  0.00    +0.000 N 
ATOM     23  C   UNL     1       1.928   5.195  19.633  0.00  0.00    +0.000 C 
ATOM     24  C   UNL     1       2.128   6.311  20.671  0.00  0.00    +0.000 C 
ATOM     25  N   UNL     1       1.786   7.604  20.050  0.00  0.00    +0.000 N 
ATOM     26  C   UNL     1       2.544   7.926  18.822  0.00  0.00    +0.000 C 
ATOM     27  C   UNL     1       2.434   6.773  17.806  0.00  0.00    +0.000 C 
BRANCH  20  28
ATOM     28  O   UNL     1       4.279   4.925  16.838  0.00  0.00    +0.000 OA
BRANCH  28  30
ATOM     29  C   UNL     1       6.012   4.865  18.550  0.00  0.00    +0.000 C 
ATOM     30  C   UNL     1       5.680   5.230  17.104  0.00  0.00    +0.000 C 
ATOM     31  C   UNL     1       5.946   6.718  16.848  0.00  0.00    +0.000 C 
ATOM     32  C   UNL     1       6.605   4.372  16.205  0.00  0.00    +0.000 C 
ENDBRANCH  28  30
ENDBRANCH  20  28
ENDBRANCH   1  25
TORSDOF 3
ENDMDL
MODEL 7
REMARK VINA RESULT:      -7.7      2.942      9.692
REMARK  Name = 
REMARK  6 active torsions:
REMARK  status: ('A' for Active; 'I' for Inactive)
REMARK    1  A    between atoms: C_1  and  C_2
REMARK    2  A    between atoms: C_2  and  C_3
REMARK    3  A    between atoms: C_2  and  C_4
REMARK    4  A    between atoms: C_2  and  O_5
REMARK    5  A    between atoms: O_5  and  C_6
REMARK    6  A    between atoms: N_11  and  C_12
REMARK                            x       y       z     vdW  Elec       q    Type
REMARK                         _______ _______ _______ _____ _____    ______ ____
ROOT
ATOM      1  C   UNL     1       0.991   9.422  20.339  0.00  0.00    +0.000 A 
ATOM      2  C   UNL     1       0.103   9.277  21.433  0.00  0.00    +0.000 A 
ATOM      3  C   UNL     1      -0.431  10.370  22.118  0.00  0.00    +0.000 A 
ATOM      4  C   UNL     1      -0.078  11.620  21.662  0.00  0.00    +0.000 A 
ATOM      5  C   UNL     1       0.762  11.820  20.569  0.00  0.00    +0.000 A 
ATOM      6  C   UNL     1       1.302  10.730  19.907  0.00  0.00    +0.000 A 
ATOM      7  N   UNL     1       0.927  13.195  20.311  0.00  0.00    +0.000 N 
ATOM      8  C   UNL     1       0.210  13.941  21.243  0.00  0.00    +0.000 A 
ATOM      9  N   UNL     1       0.150  15.220  21.310  0.00  0.00    +0.000 NA
ATOM     10  C   UNL     1       0.868  15.927  20.326  0.00  0.00    +0.000 A 
ATOM     11  C   UNL     1       0.847  17.320  20.323  0.00  0.00    +0.000 A 
ATOM     12  C   UNL     1       1.554  17.992  19.338  0.00  0.00    +0.000 A 
ATOM     13  N   UNL     1       2.267  17.375  18.369  0.00  0.00    +0.000 NA
ATOM     14  C   UNL     1       2.277  16.022  18.387  0.00  0.00    +0.000 A 
ATOM     15  C   UNL     1       1.604  15.276  19.331  0.00  0.00    +0.000 A 
ATOM     16  C   UNL     1       1.649  13.799  19.319  0.00  0.00    +0.000 A 
ATOM     17  O   UNL     1       2.300  13.221  18.453  0.00  0.00    +0.000 OA
ATOM     18  C   UNL     1      -0.469  12.940  22.165  0.00  0.00    +0.000 C 
ATOM     19  O   UNL     1      -1.169  13.188  23.119  0.00  0.00    +0.000 OA
ENDROOT
BRANCH   1  25
ATOM     20  C   UNL     1       3.803   5.337  17.922  0.00  0.00    +0.000 C 
ATOM     21  O   UNL     1       4.237   5.508  16.790  0.00  0.00    +0.000 OA
ATOM     22  N   UNL     1       3.297   6.385  18.652  0.00  0.00    +0.000 N 
ATOM     23  C   UNL     1       3.194   7.708  18.027  0.00  0.00    +0.000 C 
ATOM     24  C   UNL     1       1.793   8.296  18.261  0.00  0.00    +0.000 C 
ATOM     25  N   UNL     1       1.521   8.312  19.710  0.00  0.00    +0.000 N 
ATOM     26  C   UNL     1       1.625   6.997  20.379  0.00  0.00    +0.000 C 
ATOM     27  C   UNL     1       2.989   6.349  20.075  0.00  0.00    +0.000 C 
BRANCH  20  28
ATOM     28  O   UNL     1       3.732   4.126  18.569  0.00  0.00    +0.000 OA
BRANCH  28  30
ATOM     29  C   UNL     1       2.875   2.071  17.579  0.00  0.00    +0.000 C 
ATOM     30  C   UNL     1       2.529   3.323  18.384  0.00  0.00    +0.000 C 
ATOM     31  C   UNL     1       1.457   4.149  17.663  0.00  0.00    +0.000 C 
ATOM     32  C   UNL     1       1.982   2.836  19.750  0.00  0.00    +0.000 C 
ENDBRANCH  28  30
ENDBRANCH  20  28
ENDBRANCH   1  25
TORSDOF 3
ENDMDL
MODEL 8
REMARK VINA RESULT:      -7.7      1.225      1.919
REMARK  Name = 
REMARK  6 active torsions:
REMARK  status: ('A' for Active; 'I' for Inactive)
REMARK    1  A    between atoms: C_1  and  C_2
REMARK    2  A    between atoms: C_2  and  C_3
REMARK    3  A    between atoms: C_2  and  C_4
REMARK    4  A    between atoms: C_2  and  O_5
REMARK    5  A    between atoms: O_5  and  C_6
REMARK    6  A    between atoms: N_11  and  C_12
REMARK                            x       y       z     vdW  Elec       q    Type
REMARK                         _______ _______ _______ _____ _____    ______ ____
ROOT
ATOM      1  C   UNL     1       1.391   7.631  20.329  0.00  0.00    +0.000 A 
ATOM      2  C   UNL     1       1.138   6.559  21.218  0.00  0.00    +0.000 A 
ATOM      3  C   UNL     1       1.679   5.286  21.033  0.00  0.00    +0.000 A 
ATOM      4  C   UNL     1       2.509   5.116  19.947  0.00  0.00    +0.000 A 
ATOM      5  C   UNL     1       2.820   6.146  19.062  0.00  0.00    +0.000 A 
ATOM      6  C   UNL     1       2.264   7.401  19.243  0.00  0.00    +0.000 A 
ATOM      7  N   UNL     1       3.709   5.696  18.066  0.00  0.00    +0.000 N 
ATOM      8  C   UNL     1       3.995   4.347  18.260  0.00  0.00    +0.000 A 
ATOM      9  N   UNL     1       4.756   3.618  17.530  0.00  0.00    +0.000 NA
ATOM     10  C   UNL     1       5.374   4.263  16.441  0.00  0.00    +0.000 A 
ATOM     11  C   UNL     1       6.224   3.543  15.605  0.00  0.00    +0.000 A 
ATOM     12  C   UNL     1       6.827   4.202  14.545  0.00  0.00    +0.000 A 
ATOM     13  N   UNL     1       6.643   5.514  14.271  0.00  0.00    +0.000 NA
ATOM     14  C   UNL     1       5.813   6.198  15.094  0.00  0.00    +0.000 A 
ATOM     15  C   UNL     1       5.172   5.619  16.168  0.00  0.00    +0.000 A 
ATOM     16  C   UNL     1       4.267   6.401  17.036  0.00  0.00    +0.000 A 
ATOM     17  O   UNL     1       4.079   7.591  16.797  0.00  0.00    +0.000 OA
ATOM     18  C   UNL     1       3.216   3.916  19.494  0.00  0.00    +0.000 C 
ATOM     19  O   UNL     1       3.181   2.810  19.981  0.00  0.00    +0.000 OA
ENDROOT
BRANCH   1  25
ATOM     20  C   UNL     1      -0.346  12.699  21.647  0.00  0.00    +0.000 C 
ATOM     21  O   UNL     1      -0.887  12.875  22.732  0.00  0.00    +0.000 OA
ATOM     22  N   UNL     1       0.301  11.522  21.362  0.00  0.00    +0.000 N 
ATOM     23  C   UNL     1       0.262  10.429  22.339  0.00  0.00    +0.000 C 
ATOM     24  C   UNL     1      -0.127   9.113  21.645  0.00  0.00    +0.000 C 
ATOM     25  N   UNL     1       0.809   8.868  20.533  0.00  0.00    +0.000 N 
ATOM     26  C   UNL     1       0.884   9.953  19.531  0.00  0.00    +0.000 C 
ATOM     27  C   UNL     1       1.179  11.299  20.221  0.00  0.00    +0.000 C 
BRANCH  20  28
ATOM     28  O   UNL     1      -0.347  13.598  20.607  0.00  0.00    +0.000 OA
BRANCH  28  30
ATOM     29  C   UNL     1       0.715  15.470  19.463  0.00  0.00    +0.000 C 
ATOM     30  C   UNL     1       0.312  14.883  20.815  0.00  0.00    +0.000 C 
ATOM     31  C   UNL     1       1.541  14.698  21.712  0.00  0.00    +0.000 C 
ATOM     32  C   UNL     1      -0.663  15.896  21.467  0.00  0.00    +0.000 C 
ENDBRANCH  28  30
ENDBRANCH  20  28
ENDBRANCH   1  25
TORSDOF 3
ENDMDL
MODEL 9
REMARK VINA RESULT:      -7.7      2.016      2.725
REMARK  Name = 
REMARK  6 active torsions:
REMARK  status: ('A' for Active; 'I' for Inactive)
REMARK    1  A    between atoms: C_1  and  C_2
REMARK    2  A    between atoms: C_2  and  C_3
REMARK    3  A    between atoms: C_2  and  C_4
REMARK    4  A    between atoms: C_2  and  O_5
REMARK    5  A    between atoms: O_5  and  C_6
REMARK    6  A    between atoms: N_11  and  C_12
REMARK                            x       y       z     vdW  Elec       q    Type
REMARK                         _______ _______ _______ _____ _____    ______ ____
ROOT
ATOM      1  C   UNL     1       0.657   9.567  20.436  0.00  0.00    +0.000 A 
ATOM      2  C   UNL     1       0.273   8.737  21.518  0.00  0.00    +0.000 A 
ATOM      3  C   UNL     1       0.686   7.409  21.629  0.00  0.00    +0.000 A 
ATOM      4  C   UNL     1       1.521   6.934  20.643  0.00  0.00    +0.000 A 
ATOM      5  C   UNL     1       1.958   7.717  19.577  0.00  0.00    +0.000 A 
ATOM      6  C   UNL     1       1.529   9.029  19.465  0.00  0.00    +0.000 A 
ATOM      7  N   UNL     1       2.821   6.984  18.740  0.00  0.00    +0.000 N 
ATOM      8  C   UNL     1       2.963   5.686  19.225  0.00  0.00    +0.000 A 
ATOM      9  N   UNL     1       3.664   4.749  18.701  0.00  0.00    +0.000 NA
ATOM     10  C   UNL     1       4.372   5.085  17.530  0.00  0.00    +0.000 A 
ATOM     11  C   UNL     1       5.165   4.127  16.904  0.00  0.00    +0.000 A 
ATOM     12  C   UNL     1       5.859   4.485  15.758  0.00  0.00    +0.000 A 
ATOM     13  N   UNL     1       5.816   5.720  15.208  0.00  0.00    +0.000 NA
ATOM     14  C   UNL     1       5.041   6.638  15.829  0.00  0.00    +0.000 A 
ATOM     15  C   UNL     1       4.316   6.365  16.970  0.00  0.00    +0.000 A 
ATOM     16  C   UNL     1       3.474   7.397  17.611  0.00  0.00    +0.000 A 
ATOM     17  O   UNL     1       3.415   8.520  17.120  0.00  0.00    +0.000 OA
ATOM     18  C   UNL     1       2.114   5.603  20.484  0.00  0.00    +0.000 C 
ATOM     19  O   UNL     1       1.953   4.635  21.191  0.00  0.00    +0.000 OA
ENDROOT
BRANCH   1  25
ATOM     20  C   UNL     1      -1.523  14.623  20.775  0.00  0.00    +0.000 C 
ATOM     21  O   UNL     1      -2.719  14.768  20.555  0.00  0.00    +0.000 OA
ATOM     22  N   UNL     1      -0.977  13.373  20.925  0.00  0.00    +0.000 N 
ATOM     23  C   UNL     1      -1.825  12.193  20.727  0.00  0.00    +0.000 C 
ATOM     24  C   UNL     1      -1.127  11.190  19.794  0.00  0.00    +0.000 C 
ATOM     25  N   UNL     1       0.200  10.868  20.349  0.00  0.00    +0.000 N 
ATOM     26  C   UNL     1       1.082  12.034  20.573  0.00  0.00    +0.000 C 
ATOM     27  C   UNL     1       0.362  13.094  21.429  0.00  0.00    +0.000 C 
BRANCH  20  28
ATOM     28  O   UNL     1      -0.605  15.643  20.860  0.00  0.00    +0.000 OA
BRANCH  28  30
ATOM     29  C   UNL     1       1.257  16.807  19.802  0.00  0.00    +0.000 C 
ATOM     30  C   UNL     1      -0.160  16.267  19.619  0.00  0.00    +0.000 C 
ATOM     31  C   UNL     1      -1.122  17.395  19.229  0.00  0.00    +0.000 C 
ATOM     32  C   UNL     1      -0.093  15.220  18.477  0.00  0.00    +0.000 C 
ENDBRANCH  28  30
ENDBRANCH  20  28
ENDBRANCH   1  25
TORSDOF 3
ENDMDL
