MODEL 1
REMARK VINA RESULT:      -9.0      0.000      0.000
REMARK  Name = 
REMARK  8 active torsions:
REMARK  status: ('A' for Active; 'I' for Inactive)
REMARK    1  A    between atoms: C_2  and  C_3
REMARK    2  A    between atoms: C_3  and  C_4
REMARK    3  A    between atoms: C_4  and  C_5
REMARK    4  A    between atoms: C_5  and  C_6
REMARK    5  A    between atoms: C_6  and  N_7
REMARK    6  A    between atoms: N_19  and  C_20
REMARK    7  A    between atoms: N_23  and  C_24
REMARK    8  A    between atoms: C_24  and  C_25
REMARK                            x       y       z     vdW  Elec       q    Type
REMARK                         _______ _______ _______ _____ _____    ______ ____
ROOT
ATOM      1  O   UNL     1       8.585   7.326  18.943  0.00  0.00    +0.000 OA
ATOM      2  C   UNL     1       8.027   7.853  17.989  0.00  0.00    +0.000 C 
ATOM      3  N   UNL     1       7.380   7.159  16.995  0.00  0.00    +0.000 N 
ATOM      4  H   UNL     1       6.873   7.686  16.299  0.00  0.00    +0.000 HD
ENDROOT
BRANCH   3   5
ATOM      5  C   UNL     1       7.209   5.710  17.019  0.00  0.00    +0.000 C 
ATOM      6  C   UNL     1       6.250   5.277  15.916  0.00  0.00    +0.000 C 
ATOM      7  C   UNL     1       4.812   5.697  16.216  0.00  0.00    +0.000 C 
ATOM      8  N   UNL     1       4.348   5.193  17.518  0.00  0.00    +0.000 NA
ATOM      9  C   UNL     1       5.237   5.612  18.614  0.00  0.00    +0.000 C 
ATOM     10  C   UNL     1       6.697   5.219  18.374  0.00  0.00    +0.000 C 
BRANCH   8  11
ATOM     11  C   UNL     1       2.963   5.634  17.802  0.00  0.00    +0.000 C 
BRANCH  11  12
ATOM     12  C   UNL     1       2.208   4.697  18.723  0.00  0.00    +0.000 A 
ATOM     13  C   UNL     1       2.177   4.931  20.106  0.00  0.00    +0.000 A 
ATOM     14  C   UNL     1       1.574   4.012  20.966  0.00  0.00    +0.000 A 
ATOM     15  C   UNL     1       0.980   2.861  20.452  0.00  0.00    +0.000 A 
ATOM     16  C   UNL     1       0.969   2.637  19.077  0.00  0.00    +0.000 A 
ATOM     17  C   UNL     1       1.576   3.552  18.214  0.00  0.00    +0.000 A 
ENDBRANCH  11  12
ENDBRANCH   8  11
ENDBRANCH   3   5
BRANCH   2  18
ATOM     18  C   UNL     1       8.038   9.354  17.770  0.00  0.00    +0.000 C 
BRANCH  18  19
ATOM     19  C   UNL     1       8.970  10.108  18.724  0.00  0.00    +0.000 C 
BRANCH  19  20
ATOM     20  C   UNL     1       9.981  11.020  18.021  0.00  0.00    +0.000 C 
BRANCH  20  21
ATOM     21  C   UNL     1      10.674  11.969  19.001  0.00  0.00    +0.000 C 
BRANCH  21  22
ATOM     22  N   UNL     1      10.158  13.325  18.929  0.00  0.00    +0.000 N 
ATOM     23  C   UNL     1       9.203  13.703  19.859  0.00  0.00    +0.000 A 
ATOM     24  O   UNL     1       8.699  12.945  20.684  0.00  0.00    +0.000 OA
ATOM     25  N   UNL     1       8.816  15.010  19.844  0.00  0.00    +0.000 N 
ATOM     26  C   UNL     1       9.338  15.959  18.973  0.00  0.00    +0.000 A 
ATOM     27  C   UNL     1       8.971  17.296  19.101  0.00  0.00    +0.000 A 
ATOM     28  C   UNL     1       9.530  18.247  18.242  0.00  0.00    +0.000 A 
ATOM     29  C   UNL     1      10.432  17.856  17.252  0.00  0.00    +0.000 A 
ATOM     30  C   UNL     1      10.784  16.513  17.114  0.00  0.00    +0.000 A 
ATOM     31  C   UNL     1      10.236  15.569  17.987  0.00  0.00    +0.000 A 
ATOM     32  C   UNL     1      10.626  14.147  17.909  0.00  0.00    +0.000 A 
ATOM     33  O   UNL     1      11.335  13.763  16.983  0.00  0.00    +0.000 OA
ATOM     34  H   UNL     1       8.149  15.269  20.559  0.00  0.00    +0.000 HD
ENDBRANCH  21  22
ENDBRANCH  20  21
ENDBRANCH  19  20
ENDBRANCH  18  19
ENDBRANCH   2  18
TORSDOF 8
ENDMDL
MODEL 2
REMARK VINA RESULT:      -9.0      1.282      2.082
REMARK  Name = 
REMARK  8 active torsions:
REMARK  status: ('A' for Active; 'I' for Inactive)
REMARK    1  A    between atoms: C_2  and  C_3
REMARK    2  A    between atoms: C_3  and  C_4
REMARK    3  A    between atoms: C_4  and  C_5
REMARK    4  A    between atoms: C_5  and  C_6
REMARK    5  A    between atoms: C_6  and  N_7
REMARK    6  A    between atoms: N_19  and  C_20
REMARK    7  A    between atoms: N_23  and  C_24
REMARK    8  A    between atoms: C_24  and  C_25
REMARK                            x       y       z     vdW  Elec       q    Type
REMARK                         _______ _______ _______ _____ _____    ______ ____
ROOT
ATOM      1  O   UNL     1       8.300   6.959  18.952  0.00  0.00    +0.000 OA
ATOM      2  C   UNL     1       7.907   7.486  17.920  0.00  0.00    +0.000 C 
ATOM      3  N   UNL     1       7.433   6.793  16.832  0.00  0.00    +0.000 N 
ATOM      4  H   UNL     1       7.048   7.320  16.063  0.00  0.00    +0.000 HD
ENDROOT
BRANCH   3   5
ATOM      5  C   UNL     1       7.262   5.343  16.826  0.00  0.00    +0.000 C 
ATOM      6  C   UNL     1       6.294   4.934  15.722  0.00  0.00    +0.000 C 
ATOM      7  C   UNL     1       4.859   5.348  16.042  0.00  0.00    +0.000 C 
ATOM      8  N   UNL     1       4.405   4.816  17.337  0.00  0.00    +0.000 NA
ATOM      9  C   UNL     1       5.302   5.212  18.434  0.00  0.00    +0.000 C 
ATOM     10  C   UNL     1       6.761   4.824  18.174  0.00  0.00    +0.000 C 
BRANCH   8  11
ATOM     11  C   UNL     1       3.022   5.251  17.641  0.00  0.00    +0.000 C 
BRANCH  11  12
ATOM     12  C   UNL     1       2.309   4.351  18.629  0.00  0.00    +0.000 A 
ATOM     13  C   UNL     1       1.883   4.853  19.868  0.00  0.00    +0.000 A 
ATOM     14  C   UNL     1       1.323   4.001  20.821  0.00  0.00    +0.000 A 
ATOM     15  C   UNL     1       1.168   2.645  20.541  0.00  0.00    +0.000 A 
ATOM     16  C   UNL     1       1.551   2.142  19.300  0.00  0.00    +0.000 A 
ATOM     17  C   UNL     1       2.116   2.991  18.345  0.00  0.00    +0.000 A 
ENDBRANCH  11  12
ENDBRANCH   8  11
ENDBRANCH   3   5
BRANCH   2  18
ATOM     18  C   UNL     1       7.952   8.987  17.707  0.00  0.00    +0.000 C 
BRANCH  18  19
ATOM     19  C   UNL     1       8.945   9.709  18.624  0.00  0.00    +0.000 C 
BRANCH  19  20
ATOM     20  C   UNL     1       9.262  11.146  18.197  0.00  0.00    +0.000 C 
BRANCH  20  21
ATOM     21  C   UNL     1      10.738  11.492  18.402  0.00  0.00    +0.000 C 
BRANCH  21  22
ATOM     22  N   UNL     1      10.948  12.897  18.707  0.00  0.00    +0.000 N 
ATOM     23  C   UNL     1      11.296  13.740  17.663  0.00  0.00    +0.000 A 
ATOM     24  O   UNL     1      11.522  13.366  16.515  0.00  0.00    +0.000 OA
ATOM     25  N   UNL     1      11.379  15.069  17.951  0.00  0.00    +0.000 N 
ATOM     26  C   UNL     1      11.118  15.605  19.206  0.00  0.00    +0.000 A 
ATOM     27  C   UNL     1      11.114  16.986  19.385  0.00  0.00    +0.000 A 
ATOM     28  C   UNL     1      10.816  17.514  20.644  0.00  0.00    +0.000 A 
ATOM     29  C   UNL     1      10.544  16.664  21.718  0.00  0.00    +0.000 A 
ATOM     30  C   UNL     1      10.566  15.280  21.540  0.00  0.00    +0.000 A 
ATOM     31  C   UNL     1      10.848  14.758  20.274  0.00  0.00    +0.000 A 
ATOM     32  C   UNL     1      10.827  13.302  20.032  0.00  0.00    +0.000 A 
ATOM     33  O   UNL     1      10.694  12.532  20.980  0.00  0.00    +0.000 OA
ATOM     34  H   UNL     1      11.593  15.667  17.163  0.00  0.00    +0.000 HD
ENDBRANCH  21  22
ENDBRANCH  20  21
ENDBRANCH  19  20
ENDBRANCH  18  19
ENDBRANCH   2  18
TORSDOF 8
ENDMDL
MODEL 3
REMARK VINA RESULT:      -8.8      6.676     10.092
REMARK  Name = 
REMARK  8 active torsions:
REMARK  status: ('A' for Active; 'I' for Inactive)
REMARK    1  A    between atoms: C_2  and  C_3
REMARK    2  A    between atoms: C_3  and  C_4
REMARK    3  A    between atoms: C_4  and  C_5
REMARK    4  A    between atoms: C_5  and  C_6
REMARK    5  A    between atoms: C_6  and  N_7
REMARK    6  A    between atoms: N_19  and  C_20
REMARK    7  A    between atoms: N_23  and  C_24
REMARK    8  A    between atoms: C_24  and  C_25
REMARK                            x       y       z     vdW  Elec       q    Type
REMARK                         _______ _______ _______ _____ _____    ______ ____
ROOT
ATOM      1  O   UNL     1       2.885   4.843  20.959  0.00  0.00    +0.000 OA
ATOM      2  C   UNL     1       1.839   5.053  20.358  0.00  0.00    +0.000 C 
ATOM      3  N   UNL     1       1.497   6.265  19.808  0.00  0.00    +0.000 N 
ATOM      4  H   UNL     1       0.655   6.316  19.254  0.00  0.00    +0.000 HD
ENDROOT
BRANCH   3   5
ATOM      5  C   UNL     1       2.392   7.419  19.806  0.00  0.00    +0.000 C 
ATOM      6  C   UNL     1       1.879   8.482  20.771  0.00  0.00    +0.000 C 
ATOM      7  C   UNL     1       0.610   9.156  20.252  0.00  0.00    +0.000 C 
ATOM      8  N   UNL     1       0.798   9.735  18.913  0.00  0.00    +0.000 NA
ATOM      9  C   UNL     1       1.270   8.732  17.946  0.00  0.00    +0.000 C 
ATOM     10  C   UNL     1       2.543   8.018  18.407  0.00  0.00    +0.000 C 
BRANCH   8  11
ATOM     11  C   UNL     1      -0.450  10.359  18.418  0.00  0.00    +0.000 C 
BRANCH  11  12
ATOM     12  C   UNL     1      -0.728  11.719  19.026  0.00  0.00    +0.000 A 
ATOM     13  C   UNL     1      -1.852  11.916  19.842  0.00  0.00    +0.000 A 
ATOM     14  C   UNL     1      -2.168  13.191  20.315  0.00  0.00    +0.000 A 
ATOM     15  C   UNL     1      -1.356  14.276  19.992  0.00  0.00    +0.000 A 
ATOM     16  C   UNL     1      -0.215  14.086  19.215  0.00  0.00    +0.000 A 
ATOM     17  C   UNL     1       0.101  12.813  18.737  0.00  0.00    +0.000 A 
ENDBRANCH  11  12
ENDBRANCH   8  11
ENDBRANCH   3   5
BRANCH   2  18
ATOM     18  C   UNL     1       0.767   3.992  20.198  0.00  0.00    +0.000 C 
BRANCH  18  19
ATOM     19  C   UNL     1       1.317   2.563  20.163  0.00  0.00    +0.000 C 
BRANCH  19  20
ATOM     20  C   UNL     1       1.462   1.981  18.753  0.00  0.00    +0.000 C 
BRANCH  20  21
ATOM     21  C   UNL     1       2.911   1.611  18.433  0.00  0.00    +0.000 C 
BRANCH  21  22
ATOM     22  N   UNL     1       3.806   2.754  18.478  0.00  0.00    +0.000 N 
ATOM     23  C   UNL     1       4.754   2.793  19.490  0.00  0.00    +0.000 A 
ATOM     24  O   UNL     1       4.832   1.971  20.400  0.00  0.00    +0.000 OA
ATOM     25  N   UNL     1       5.654   3.815  19.448  0.00  0.00    +0.000 N 
ATOM     26  C   UNL     1       5.675   4.783  18.451  0.00  0.00    +0.000 A 
ATOM     27  C   UNL     1       6.699   5.726  18.421  0.00  0.00    +0.000 A 
ATOM     28  C   UNL     1       6.730   6.674  17.394  0.00  0.00    +0.000 A 
ATOM     29  C   UNL     1       5.732   6.687  16.419  0.00  0.00    +0.000 A 
ATOM     30  C   UNL     1       4.696   5.752  16.462  0.00  0.00    +0.000 A 
ATOM     31  C   UNL     1       4.681   4.796  17.482  0.00  0.00    +0.000 A 
ATOM     32  C   UNL     1       3.633   3.757  17.530  0.00  0.00    +0.000 A 
ATOM     33  O   UNL     1       2.689   3.811  16.747  0.00  0.00    +0.000 OA
ATOM     34  H   UNL     1       6.359   3.796  20.172  0.00  0.00    +0.000 HD
ENDBRANCH  21  22
ENDBRANCH  20  21
ENDBRANCH  19  20
ENDBRANCH  18  19
ENDBRANCH   2  18
TORSDOF 8
ENDMDL
MODEL 4
REMARK VINA RESULT:      -8.4      1.271      1.566
REMARK  Name = 
REMARK  8 active torsions:
REMARK  status: ('A' for Active; 'I' for Inactive)
REMARK    1  A    between atoms: C_2  and  C_3
REMARK    2  A    between atoms: C_3  and  C_4
REMARK    3  A    between atoms: C_4  and  C_5
REMARK    4  A    between atoms: C_5  and  C_6
REMARK    5  A    between atoms: C_6  and  N_7
REMARK    6  A    between atoms: N_19  and  C_20
REMARK    7  A    between atoms: N_23  and  C_24
REMARK    8  A    between atoms: C_24  and  C_25
REMARK                            x       y       z     vdW  Elec       q    Type
REMARK                         _______ _______ _______ _____ _____    ______ ____
ROOT
ATOM      1  O   UNL     1       8.518   7.222  18.998  0.00  0.00    +0.000 OA
ATOM      2  C   UNL     1       8.041   7.893  18.092  0.00  0.00    +0.000 C 
ATOM      3  N   UNL     1       7.433   7.362  16.979  0.00  0.00    +0.000 N 
ATOM      4  H   UNL     1       6.990   7.996  16.331  0.00  0.00    +0.000 HD
ENDROOT
BRANCH   3   5
ATOM      5  C   UNL     1       7.210   5.931  16.801  0.00  0.00    +0.000 C 
ATOM      6  C   UNL     1       6.173   5.693  15.709  0.00  0.00    +0.000 C 
ATOM      7  C   UNL     1       4.772   6.104  16.157  0.00  0.00    +0.000 C 
ATOM      8  N   UNL     1       4.366   5.426  17.397  0.00  0.00    +0.000 NA
ATOM      9  C   UNL     1       5.331   5.653  18.484  0.00  0.00    +0.000 C 
ATOM     10  C   UNL     1       6.760   5.259  18.099  0.00  0.00    +0.000 C 
BRANCH   8  11
ATOM     11  C   UNL     1       3.016   5.859  17.829  0.00  0.00    +0.000 C 
BRANCH  11  12
ATOM     12  C   UNL     1       2.262   4.799  18.605  0.00  0.00    +0.000 A 
ATOM     13  C   UNL     1       1.825   3.628  17.968  0.00  0.00    +0.000 A 
ATOM     14  C   UNL     1       1.039   2.701  18.654  0.00  0.00    +0.000 A 
ATOM     15  C   UNL     1       0.697   2.925  19.987  0.00  0.00    +0.000 A 
ATOM     16  C   UNL     1       1.158   4.065  20.642  0.00  0.00    +0.000 A 
ATOM     17  C   UNL     1       1.941   4.997  19.957  0.00  0.00    +0.000 A 
ENDBRANCH  11  12
ENDBRANCH   8  11
ENDBRANCH   3   5
BRANCH   2  18
ATOM     18  C   UNL     1       8.118   9.407  18.075  0.00  0.00    +0.000 C 
BRANCH  18  19
ATOM     19  C   UNL     1       9.473   9.959  18.528  0.00  0.00    +0.000 C 
BRANCH  19  20
ATOM     20  C   UNL     1       9.720  11.419  18.131  0.00  0.00    +0.000 C 
BRANCH  20  21
ATOM     21  C   UNL     1       9.014  12.396  19.072  0.00  0.00    +0.000 C 
BRANCH  21  22
ATOM     22  N   UNL     1       9.209  13.784  18.691  0.00  0.00    +0.000 N 
ATOM     23  C   UNL     1       8.249  14.374  17.885  0.00  0.00    +0.000 A 
ATOM     24  O   UNL     1       7.289  13.780  17.400  0.00  0.00    +0.000 OA
ATOM     25  N   UNL     1       8.395  15.706  17.632  0.00  0.00    +0.000 N 
ATOM     26  C   UNL     1       9.425  16.481  18.150  0.00  0.00    +0.000 A 
ATOM     27  C   UNL     1       9.435  17.857  17.935  0.00  0.00    +0.000 A 
ATOM     28  C   UNL     1      10.457  18.631  18.490  0.00  0.00    +0.000 A 
ATOM     29  C   UNL     1      11.471  18.028  19.236  0.00  0.00    +0.000 A 
ATOM     30  C   UNL     1      11.469  16.646  19.434  0.00  0.00    +0.000 A 
ATOM     31  C   UNL     1      10.434  15.879  18.892  0.00  0.00    +0.000 A 
ATOM     32  C   UNL     1      10.366  14.423  19.125  0.00  0.00    +0.000 A 
ATOM     33  O   UNL     1      11.299  13.855  19.688  0.00  0.00    +0.000 OA
ATOM     34  H   UNL     1       7.658  16.120  17.076  0.00  0.00    +0.000 HD
ENDBRANCH  21  22
ENDBRANCH  20  21
ENDBRANCH  19  20
ENDBRANCH  18  19
ENDBRANCH   2  18
TORSDOF 8
ENDMDL
MODEL 5
REMARK VINA RESULT:      -8.3      6.591     10.620
REMARK  Name = 
REMARK  8 active torsions:
REMARK  status: ('A' for Active; 'I' for Inactive)
REMARK    1  A    between atoms: C_2  and  C_3
REMARK    2  A    between atoms: C_3  and  C_4
REMARK    3  A    between atoms: C_4  and  C_5
REMARK    4  A    between atoms: C_5  and  C_6
REMARK    5  A    between atoms: C_6  and  N_7
REMARK    6  A    between atoms: N_19  and  C_20
REMARK    7  A    between atoms: N_23  and  C_24
REMARK    8  A    between atoms: C_24  and  C_25
REMARK                            x       y       z     vdW  Elec       q    Type
REMARK                         _______ _______ _______ _____ _____    ______ ____
ROOT
ATOM      1  O   UNL     1       2.788   9.298  17.268  0.00  0.00    +0.000 OA
ATOM      2  C   UNL     1       2.041   8.689  18.023  0.00  0.00    +0.000 C 
ATOM      3  N   UNL     1       1.029   9.276  18.743  0.00  0.00    +0.000 N 
ATOM      4  H   UNL     1       0.409   8.677  19.268  0.00  0.00    +0.000 HD
ENDROOT
BRANCH   3   5
ATOM      5  C   UNL     1       0.677  10.687  18.617  0.00  0.00    +0.000 C 
ATOM      6  C   UNL     1       1.417  11.508  19.667  0.00  0.00    +0.000 C 
ATOM      7  C   UNL     1       0.881  11.247  21.074  0.00  0.00    +0.000 C 
ATOM      8  N   UNL     1      -0.567  11.490  21.168  0.00  0.00    +0.000 NA
ATOM      9  C   UNL     1      -1.319  10.694  20.185  0.00  0.00    +0.000 C 
ATOM     10  C   UNL     1      -0.830  10.911  18.751  0.00  0.00    +0.000 C 
BRANCH   8  11
ATOM     11  C   UNL     1      -1.071  11.205  22.532  0.00  0.00    +0.000 C 
BRANCH  11  12
ATOM     12  C   UNL     1      -1.836  12.360  23.146  0.00  0.00    +0.000 A 
ATOM     13  C   UNL     1      -1.222  13.611  23.311  0.00  0.00    +0.000 A 
ATOM     14  C   UNL     1      -1.888  14.643  23.973  0.00  0.00    +0.000 A 
ATOM     15  C   UNL     1      -3.178  14.443  24.461  0.00  0.00    +0.000 A 
ATOM     16  C   UNL     1      -3.813  13.218  24.269  0.00  0.00    +0.000 A 
ATOM     17  C   UNL     1      -3.148  12.181  23.611  0.00  0.00    +0.000 A 
ENDBRANCH  11  12
ENDBRANCH   8  11
ENDBRANCH   3   5
BRANCH   2  18
ATOM     18  C   UNL     1       2.189   7.203  18.287  0.00  0.00    +0.000 C 
BRANCH  18  19
ATOM     19  C   UNL     1       2.573   6.871  19.732  0.00  0.00    +0.000 C 
BRANCH  19  20
ATOM     20  C   UNL     1       2.039   5.523  20.229  0.00  0.00    +0.000 C 
BRANCH  20  21
ATOM     21  C   UNL     1       3.137   4.461  20.294  0.00  0.00    +0.000 C 
BRANCH  21  22
ATOM     22  N   UNL     1       3.772   4.231  19.009  0.00  0.00    +0.000 N 
ATOM     23  C   UNL     1       3.007   3.663  18.002  0.00  0.00    +0.000 A 
ATOM     24  O   UNL     1       1.855   3.262  18.148  0.00  0.00    +0.000 OA
ATOM     25  N   UNL     1       3.589   3.559  16.774  0.00  0.00    +0.000 N 
ATOM     26  C   UNL     1       4.874   4.004  16.489  0.00  0.00    +0.000 A 
ATOM     27  C   UNL     1       5.350   3.964  15.181  0.00  0.00    +0.000 A 
ATOM     28  C   UNL     1       6.631   4.446  14.901  0.00  0.00    +0.000 A 
ATOM     29  C   UNL     1       7.435   4.945  15.927  0.00  0.00    +0.000 A 
ATOM     30  C   UNL     1       6.963   4.967  17.240  0.00  0.00    +0.000 A 
ATOM     31  C   UNL     1       5.674   4.500  17.511  0.00  0.00    +0.000 A 
ATOM     32  C   UNL     1       5.118   4.557  18.878  0.00  0.00    +0.000 A 
ATOM     33  O   UNL     1       5.841   4.893  19.813  0.00  0.00    +0.000 OA
ATOM     34  H   UNL     1       2.995   3.180  16.048  0.00  0.00    +0.000 HD
ENDBRANCH  21  22
ENDBRANCH  20  21
ENDBRANCH  19  20
ENDBRANCH  18  19
ENDBRANCH   2  18
TORSDOF 8
ENDMDL
MODEL 6
REMARK VINA RESULT:      -8.3      1.332      2.165
REMARK  Name = 
REMARK  8 active torsions:
REMARK  status: ('A' for Active; 'I' for Inactive)
REMARK    1  A    between atoms: C_2  and  C_3
REMARK    2  A    between atoms: C_3  and  C_4
REMARK    3  A    between atoms: C_4  and  C_5
REMARK    4  A    between atoms: C_5  and  C_6
REMARK    5  A    between atoms: C_6  and  N_7
REMARK    6  A    between atoms: N_19  and  C_20
REMARK    7  A    between atoms: N_23  and  C_24
REMARK    8  A    between atoms: C_24  and  C_25
REMARK                            x       y       z     vdW  Elec       q    Type
REMARK                         _______ _______ _______ _____ _____    ______ ____
ROOT
ATOM      1  O   UNL     1       7.350   9.434  17.117  0.00  0.00    +0.000 OA
ATOM      2  C   UNL     1       7.879   8.603  17.845  0.00  0.00    +0.000 C 
ATOM      3  N   UNL     1       7.633   7.253  17.779  0.00  0.00    +0.000 N 
ATOM      4  H   UNL     1       8.185   6.640  18.360  0.00  0.00    +0.000 HD
ENDROOT
BRANCH   3   5
ATOM      5  C   UNL     1       6.772   6.650  16.766  0.00  0.00    +0.000 C 
ATOM      6  C   UNL     1       5.307   6.835  17.145  0.00  0.00    +0.000 C 
ATOM      7  C   UNL     1       4.917   5.972  18.343  0.00  0.00    +0.000 C 
ATOM      8  N   UNL     1       5.206   4.547  18.117  0.00  0.00    +0.000 NA
ATOM      9  C   UNL     1       6.619   4.325  17.772  0.00  0.00    +0.000 C 
ATOM     10  C   UNL     1       7.075   5.163  16.575  0.00  0.00    +0.000 C 
BRANCH   8  11
ATOM     11  C   UNL     1       4.846   3.731  19.300  0.00  0.00    +0.000 C 
BRANCH  11  12
ATOM     12  C   UNL     1       3.354   3.521  19.457  0.00  0.00    +0.000 A 
ATOM     13  C   UNL     1       2.632   4.240  20.422  0.00  0.00    +0.000 A 
ATOM     14  C   UNL     1       1.280   3.971  20.640  0.00  0.00    +0.000 A 
ATOM     15  C   UNL     1       0.632   2.995  19.885  0.00  0.00    +0.000 A 
ATOM     16  C   UNL     1       1.328   2.302  18.897  0.00  0.00    +0.000 A 
ATOM     17  C   UNL     1       2.682   2.566  18.680  0.00  0.00    +0.000 A 
ENDBRANCH  11  12
ENDBRANCH   8  11
ENDBRANCH   3   5
BRANCH   2  18
ATOM     18  C   UNL     1       8.842   8.989  18.951  0.00  0.00    +0.000 C 
BRANCH  18  19
ATOM     19  C   UNL     1       9.451  10.384  18.778  0.00  0.00    +0.000 C 
BRANCH  19  20
ATOM     20  C   UNL     1       9.574  11.182  20.080  0.00  0.00    +0.000 C 
BRANCH  20  21
ATOM     21  C   UNL     1      10.930  11.879  20.200  0.00  0.00    +0.000 C 
BRANCH  21  22
ATOM     22  N   UNL     1      10.982  13.135  19.472  0.00  0.00    +0.000 N 
ATOM     23  C   UNL     1      11.572  13.131  18.218  0.00  0.00    +0.000 A 
ATOM     24  O   UNL     1      12.132  12.158  17.717  0.00  0.00    +0.000 OA
ATOM     25  N   UNL     1      11.511  14.292  17.507  0.00  0.00    +0.000 N 
ATOM     26  C   UNL     1      10.881  15.444  17.964  0.00  0.00    +0.000 A 
ATOM     27  C   UNL     1      10.764  16.551  17.128  0.00  0.00    +0.000 A 
ATOM     28  C   UNL     1      10.098  17.691  17.586  0.00  0.00    +0.000 A 
ATOM     29  C   UNL     1       9.572  17.727  18.878  0.00  0.00    +0.000 A 
ATOM     30  C   UNL     1       9.706  16.622  19.721  0.00  0.00    +0.000 A 
ATOM     31  C   UNL     1      10.358  15.478  19.251  0.00  0.00    +0.000 A 
ATOM     32  C   UNL     1      10.472  14.271  20.092  0.00  0.00    +0.000 A 
ATOM     33  O   UNL     1      10.110  14.313  21.266  0.00  0.00    +0.000 OA
ATOM     34  H   UNL     1      11.912  14.250  16.580  0.00  0.00    +0.000 HD
ENDBRANCH  21  22
ENDBRANCH  20  21
ENDBRANCH  19  20
ENDBRANCH  18  19
ENDBRANCH   2  18
TORSDOF 8
ENDMDL
MODEL 7
REMARK VINA RESULT:      -8.2      2.181     10.995
REMARK  Name = 
REMARK  8 active torsions:
REMARK  status: ('A' for Active; 'I' for Inactive)
REMARK    1  A    between atoms: C_2  and  C_3
REMARK    2  A    between atoms: C_3  and  C_4
REMARK    3  A    between atoms: C_4  and  C_5
REMARK    4  A    between atoms: C_5  and  C_6
REMARK    5  A    between atoms: C_6  and  N_7
REMARK    6  A    between atoms: N_19  and  C_20
REMARK    7  A    between atoms: N_23  and  C_24
REMARK    8  A    between atoms: C_24  and  C_25
REMARK                            x       y       z     vdW  Elec       q    Type
REMARK                         _______ _______ _______ _____ _____    ______ ____
ROOT
ATOM      1  O   UNL     1       9.371   9.596  19.722  0.00  0.00    +0.000 OA
ATOM      2  C   UNL     1       9.007  10.164  18.700  0.00  0.00    +0.000 C 
ATOM      3  N   UNL     1       9.445  11.408  18.313  0.00  0.00    +0.000 N 
ATOM      4  H   UNL     1       9.157  11.754  17.410  0.00  0.00    +0.000 HD
ENDROOT
BRANCH   3   5
ATOM      5  C   UNL     1      10.468  12.153  19.040  0.00  0.00    +0.000 C 
ATOM      6  C   UNL     1       9.823  13.008  20.125  0.00  0.00    +0.000 C 
ATOM      7  C   UNL     1       9.041  14.180  19.534  0.00  0.00    +0.000 C 
ATOM      8  N   UNL     1       9.875  15.017  18.658  0.00  0.00    +0.000 NA
ATOM      9  C   UNL     1      10.496  14.230  17.582  0.00  0.00    +0.000 C 
ATOM     10  C   UNL     1      11.298  13.037  18.108  0.00  0.00    +0.000 C 
BRANCH   8  11
ATOM     11  C   UNL     1       9.091  16.131  18.075  0.00  0.00    +0.000 C 
BRANCH  11  12
ATOM     12  C   UNL     1       7.594  15.962  18.231  0.00  0.00    +0.000 A 
ATOM     13  C   UNL     1       6.860  16.842  19.040  0.00  0.00    +0.000 A 
ATOM     14  C   UNL     1       5.501  16.625  19.271  0.00  0.00    +0.000 A 
ATOM     15  C   UNL     1       4.858  15.537  18.682  0.00  0.00    +0.000 A 
ATOM     16  C   UNL     1       5.567  14.679  17.844  0.00  0.00    +0.000 A 
ATOM     17  C   UNL     1       6.928  14.891  17.616  0.00  0.00    +0.000 A 
ENDBRANCH  11  12
ENDBRANCH   8  11
ENDBRANCH   3   5
BRANCH   2  18
ATOM     18  C   UNL     1       7.975   9.568  17.763  0.00  0.00    +0.000 C 
BRANCH  18  19
ATOM     19  C   UNL     1       8.099   8.050  17.598  0.00  0.00    +0.000 C 
BRANCH  19  20
ATOM     20  C   UNL     1       6.781   7.347  17.257  0.00  0.00    +0.000 C 
BRANCH  20  21
ATOM     21  C   UNL     1       6.959   5.834  17.114  0.00  0.00    +0.000 C 
BRANCH  21  22
ATOM     22  N   UNL     1       5.954   5.079  17.841  0.00  0.00    +0.000 N 
ATOM     23  C   UNL     1       6.127   4.921  19.208  0.00  0.00    +0.000 A 
ATOM     24  O   UNL     1       7.116   5.301  19.830  0.00  0.00    +0.000 OA
ATOM     25  N   UNL     1       5.118   4.306  19.887  0.00  0.00    +0.000 N 
ATOM     26  C   UNL     1       3.945   3.862  19.289  0.00  0.00    +0.000 A 
ATOM     27  C   UNL     1       2.916   3.348  20.075  0.00  0.00    +0.000 A 
ATOM     28  C   UNL     1       1.727   2.936  19.466  0.00  0.00    +0.000 A 
ATOM     29  C   UNL     1       1.580   3.020  18.081  0.00  0.00    +0.000 A 
ATOM     30  C   UNL     1       2.620   3.518  17.294  0.00  0.00    +0.000 A 
ATOM     31  C   UNL     1       3.800   3.945  17.910  0.00  0.00    +0.000 A 
ATOM     32  C   UNL     1       4.900   4.529  17.118  0.00  0.00    +0.000 A 
ATOM     33  O   UNL     1       4.837   4.517  15.891  0.00  0.00    +0.000 OA
ATOM     34  H   UNL     1       5.251   4.241  20.887  0.00  0.00    +0.000 HD
ENDBRANCH  21  22
ENDBRANCH  20  21
ENDBRANCH  19  20
ENDBRANCH  18  19
ENDBRANCH   2  18
TORSDOF 8
ENDMDL
MODEL 8
REMARK VINA RESULT:      -8.2      1.281      2.387
REMARK  Name = 
REMARK  8 active torsions:
REMARK  status: ('A' for Active; 'I' for Inactive)
REMARK    1  A    between atoms: C_2  and  C_3
REMARK    2  A    between atoms: C_3  and  C_4
REMARK    3  A    between atoms: C_4  and  C_5
REMARK    4  A    between atoms: C_5  and  C_6
REMARK    5  A    between atoms: C_6  and  N_7
REMARK    6  A    between atoms: N_19  and  C_20
REMARK    7  A    between atoms: N_23  and  C_24
REMARK    8  A    between atoms: C_24  and  C_25
REMARK                            x       y       z     vdW  Elec       q    Type
REMARK                         _______ _______ _______ _____ _____    ______ ____
ROOT
ATOM      1  O   UNL     1       8.350   6.628  18.870  0.00  0.00    +0.000 OA
ATOM      2  C   UNL     1       7.749   7.072  17.901  0.00  0.00    +0.000 C 
ATOM      3  N   UNL     1       7.245   6.297  16.885  0.00  0.00    +0.000 N 
ATOM      4  H   UNL     1       6.686   6.747  16.175  0.00  0.00    +0.000 HD
ENDROOT
BRANCH   3   5
ATOM      5  C   UNL     1       7.296   4.838  16.897  0.00  0.00    +0.000 C 
ATOM      6  C   UNL     1       6.562   4.278  15.684  0.00  0.00    +0.000 C 
ATOM      7  C   UNL     1       5.051   4.471  15.794  0.00  0.00    +0.000 C 
ATOM      8  N   UNL     1       4.507   3.887  17.030  0.00  0.00    +0.000 NA
ATOM      9  C   UNL     1       5.174   4.423  18.227  0.00  0.00    +0.000 C 
ATOM     10  C   UNL     1       6.695   4.259  18.179  0.00  0.00    +0.000 C 
BRANCH   8  11
ATOM     11  C   UNL     1       3.045   4.108  17.130  0.00  0.00    +0.000 C 
BRANCH  11  12
ATOM     12  C   UNL     1       2.664   5.162  18.149  0.00  0.00    +0.000 A 
ATOM     13  C   UNL     1       2.886   6.522  17.883  0.00  0.00    +0.000 A 
ATOM     14  C   UNL     1       2.634   7.484  18.862  0.00  0.00    +0.000 A 
ATOM     15  C   UNL     1       2.142   7.101  20.108  0.00  0.00    +0.000 A 
ATOM     16  C   UNL     1       1.879   5.759  20.370  0.00  0.00    +0.000 A 
ATOM     17  C   UNL     1       2.134   4.793  19.395  0.00  0.00    +0.000 A 
ENDBRANCH  11  12
ENDBRANCH   8  11
ENDBRANCH   3   5
BRANCH   2  18
ATOM     18  C   UNL     1       7.539   8.559  17.689  0.00  0.00    +0.000 C 
BRANCH  18  19
ATOM     19  C   UNL     1       8.553   9.436  18.429  0.00  0.00    +0.000 C 
BRANCH  19  20
ATOM     20  C   UNL     1       8.804  10.797  17.771  0.00  0.00    +0.000 C 
BRANCH  20  21
ATOM     21  C   UNL     1      10.042  11.490  18.342  0.00  0.00    +0.000 C 
BRANCH  21  22
ATOM     22  N   UNL     1       9.934  12.938  18.325  0.00  0.00    +0.000 N 
ATOM     23  C   UNL     1      10.593  13.624  17.317  0.00  0.00    +0.000 A 
ATOM     24  O   UNL     1      11.333  13.098  16.489  0.00  0.00    +0.000 OA
ATOM     25  N   UNL     1      10.387  14.970  17.255  0.00  0.00    +0.000 N 
ATOM     26  C   UNL     1       9.551  15.663  18.122  0.00  0.00    +0.000 A 
ATOM     27  C   UNL     1       9.307  17.018  17.916  0.00  0.00    +0.000 A 
ATOM     28  C   UNL     1       8.437  17.697  18.774  0.00  0.00    +0.000 A 
ATOM     29  C   UNL     1       7.834  17.027  19.839  0.00  0.00    +0.000 A 
ATOM     30  C   UNL     1       8.094  15.673  20.054  0.00  0.00    +0.000 A 
ATOM     31  C   UNL     1       8.951  14.995  19.182  0.00  0.00    +0.000 A 
ATOM     32  C   UNL     1       9.208  13.550  19.342  0.00  0.00    +0.000 A 
ATOM     33  O   UNL     1       8.774  12.963  20.330  0.00  0.00    +0.000 OA
ATOM     34  H   UNL     1      10.846  15.439  16.485  0.00  0.00    +0.000 HD
ENDBRANCH  21  22
ENDBRANCH  20  21
ENDBRANCH  19  20
ENDBRANCH  18  19
ENDBRANCH   2  18
TORSDOF 8
ENDMDL
MODEL 9
REMARK VINA RESULT:      -8.1      6.720      9.774
REMARK  Name = 
REMARK  8 active torsions:
REMARK  status: ('A' for Active; 'I' for Inactive)
REMARK    1  A    between atoms: C_2  and  C_3
REMARK    2  A    between atoms: C_3  and  C_4
REMARK    3  A    between atoms: C_4  and  C_5
REMARK    4  A    between atoms: C_5  and  C_6
REMARK    5  A    between atoms: C_6  and  N_7
REMARK    6  A    between atoms: N_19  and  C_20
REMARK    7  A    between atoms: N_23  and  C_24
REMARK    8  A    between atoms: C_24  and  C_25
REMARK                            x       y       z     vdW  Elec       q    Type
REMARK                         _______ _______ _______ _____ _____    ______ ____
ROOT
ATOM      1  O   UNL     1       2.277   4.516  21.330  0.00  0.00    +0.000 OA
ATOM      2  C   UNL     1       1.578   4.652  20.334  0.00  0.00    +0.000 C 
ATOM      3  N   UNL     1       1.647   5.731  19.486  0.00  0.00    +0.000 N 
ATOM      4  H   UNL     1       1.093   5.709  18.642  0.00  0.00    +0.000 HD
ENDROOT
BRANCH   3   5
ATOM      5  C   UNL     1       2.632   6.797  19.634  0.00  0.00    +0.000 C 
ATOM      6  C   UNL     1       2.284   7.670  20.834  0.00  0.00    +0.000 C 
ATOM      7  C   UNL     1       1.041   8.520  20.577  0.00  0.00    +0.000 C 
ATOM      8  N   UNL     1       1.177   9.349  19.369  0.00  0.00    +0.000 NA
ATOM      9  C   UNL     1       1.490   8.538  18.183  0.00  0.00    +0.000 C 
ATOM     10  C   UNL     1       2.729   7.660  18.375  0.00  0.00    +0.000 C 
BRANCH   8  11
ATOM     11  C   UNL     1      -0.049  10.144  19.123  0.00  0.00    +0.000 C 
BRANCH  11  12
ATOM     12  C   UNL     1      -0.476  10.979  20.313  0.00  0.00    +0.000 A 
ATOM     13  C   UNL     1      -0.773  12.341  20.157  0.00  0.00    +0.000 A 
ATOM     14  C   UNL     1      -1.063  13.134  21.268  0.00  0.00    +0.000 A 
ATOM     15  C   UNL     1      -1.077  12.571  22.543  0.00  0.00    +0.000 A 
ATOM     16  C   UNL     1      -0.824  11.211  22.707  0.00  0.00    +0.000 A 
ATOM     17  C   UNL     1      -0.528  10.416  21.597  0.00  0.00    +0.000 A 
ENDBRANCH  11  12
ENDBRANCH   8  11
ENDBRANCH   3   5
BRANCH   2  18
ATOM     18  C   UNL     1       0.504   3.651  19.953  0.00  0.00    +0.000 C 
BRANCH  18  19
ATOM     19  C   UNL     1       0.929   2.687  18.841  0.00  0.00    +0.000 C 
BRANCH  19  20
ATOM     20  C   UNL     1       2.038   1.710  19.247  0.00  0.00    +0.000 C 
BRANCH  20  21
ATOM     21  C   UNL     1       3.188   1.698  18.240  0.00  0.00    +0.000 C 
BRANCH  21  22
ATOM     22  N   UNL     1       4.044   2.866  18.352  0.00  0.00    +0.000 N 
ATOM     23  C   UNL     1       4.850   2.972  19.475  0.00  0.00    +0.000 A 
ATOM     24  O   UNL     1       4.826   2.190  20.422  0.00  0.00    +0.000 OA
ATOM     25  N   UNL     1       5.725   4.016  19.506  0.00  0.00    +0.000 N 
ATOM     26  C   UNL     1       5.855   4.944  18.480  0.00  0.00    +0.000 A 
ATOM     27  C   UNL     1       6.854   5.912  18.542  0.00  0.00    +0.000 A 
ATOM     28  C   UNL     1       6.998   6.818  17.487  0.00  0.00    +0.000 A 
ATOM     29  C   UNL     1       6.136   6.765  16.391  0.00  0.00    +0.000 A 
ATOM     30  C   UNL     1       5.125   5.805  16.340  0.00  0.00    +0.000 A 
ATOM     31  C   UNL     1       4.997   4.890  17.389  0.00  0.00    +0.000 A 
ATOM     32  C   UNL     1       3.975   3.825  17.346  0.00  0.00    +0.000 A 
ATOM     33  O   UNL     1       3.140   3.821  16.446  0.00  0.00    +0.000 OA
ATOM     34  H   UNL     1       6.330   4.046  20.317  0.00  0.00    +0.000 HD
ENDBRANCH  21  22
ENDBRANCH  20  21
ENDBRANCH  19  20
ENDBRANCH  18  19
ENDBRANCH   2  18
TORSDOF 8
ENDMDL
