MODEL 1
REMARK VINA RESULT:      -8.2      0.000      0.000
REMARK  Name = 
REMARK  5 active torsions:
REMARK  status: ('A' for Active; 'I' for Inactive)
REMARK    1  A    between atoms: C_2  and  O_3
REMARK    2  A    between atoms: C_2  and  C_4
REMARK    3  A    between atoms: C_11  and  S_12
REMARK    4  A    between atoms: S_12  and  N_15
REMARK    5  A    between atoms: N_18  and  C_19
REMARK                            x       y       z     vdW  Elec       q    Type
REMARK                         _______ _______ _______ _____ _____    ______ ____
ROOT
ATOM      1  S   UNL     1       0.773   9.500  20.929  0.00  0.00    +0.000 S 
ATOM      2  O   UNL     1      -0.597   9.256  21.334  0.00  0.00    +0.000 OA
ATOM      3  O   UNL     1       1.729  10.077  21.853  0.00  0.00    +0.000 OA
ENDROOT
BRANCH   1  11
ATOM      4  C   UNL     1       3.239   3.020  19.885  0.00  0.00    +0.000 C 
ATOM      5  O   UNL     1       2.731   2.691  20.961  0.00  0.00    +0.000 OA
ATOM      6  N   UNL     1       3.202   4.272  19.296  0.00  0.00    +0.000 N 
ATOM      7  C   UNL     1       3.865   4.646  18.036  0.00  0.00    +0.000 C 
ATOM      8  C   UNL     1       3.674   6.158  17.842  0.00  0.00    +0.000 C 
ATOM      9  C   UNL     1       2.800   6.526  19.002  0.00  0.00    +0.000 A 
ATOM     10  C   UNL     1       2.297   7.791  19.320  0.00  0.00    +0.000 A 
ATOM     11  C   UNL     1       1.474   7.912  20.446  0.00  0.00    +0.000 A 
ATOM     12  C   UNL     1       1.093   6.755  21.162  0.00  0.00    +0.000 A 
ATOM     13  C   UNL     1       1.657   5.503  20.866  0.00  0.00    +0.000 A 
ATOM     14  C   UNL     1       2.521   5.404  19.789  0.00  0.00    +0.000 A 
BRANCH   4  16
ATOM     15  O   UNL     1       3.650   1.288  18.171  0.00  0.00    +0.000 OA
ATOM     16  C   UNL     1       4.016   1.884  19.160  0.00  0.00    +0.000 C 
BRANCH  16  17
ATOM     17  O   UNL     1       5.179   1.636  19.808  0.00  0.00    +0.000 OA
ATOM     18  H   UNL     1       4.992   1.576  20.774  0.00  0.00    +0.000 HD
ENDBRANCH  16  17
ENDBRANCH   4  16
ENDBRANCH   1  11
BRANCH   1  19
ATOM     19  N   UNL     1       0.734  10.524  19.575  0.00  0.00    +0.000 NA
ATOM     20  C   UNL     1      -0.044  10.139  18.380  0.00  0.00    +0.000 C 
ATOM     21  C   UNL     1      -1.513  10.548  18.552  0.00  0.00    +0.000 C 
ATOM     22  N   UNL     1      -1.748  11.925  19.066  0.00  0.00    +0.000 N 
ATOM     23  C   UNL     1      -0.742  12.478  20.019  0.00  0.00    +0.000 C 
ATOM     24  C   UNL     1       0.682  11.996  19.732  0.00  0.00    +0.000 C 
BRANCH  22  25
ATOM     25  C   UNL     1      -3.098  12.213  19.402  0.00  0.00    +0.000 A 
ATOM     26  C   UNL     1      -3.425  13.026  20.501  0.00  0.00    +0.000 A 
ATOM     27  C   UNL     1      -4.756  13.321  20.832  0.00  0.00    +0.000 A 
ATOM     28  C   UNL     1      -5.801  12.813  20.067  0.00  0.00    +0.000 A 
ATOM     29  C   UNL     1      -5.508  12.017  18.972  0.00  0.00    +0.000 A 
ATOM     30 CL   UNL     1      -6.779  11.356  18.016  0.00  0.00    +0.000 Cl
ATOM     31  C   UNL     1      -4.184  11.735  18.638  0.00  0.00    +0.000 A 
ENDBRANCH  22  25
ENDBRANCH   1  19
TORSDOF 5
ENDMDL
MODEL 2
REMARK VINA RESULT:      -8.1      0.864      1.385
REMARK  Name = 
REMARK  5 active torsions:
REMARK  status: ('A' for Active; 'I' for Inactive)
REMARK    1  A    between atoms: C_2  and  O_3
REMARK    2  A    between atoms: C_2  and  C_4
REMARK    3  A    between atoms: C_11  and  S_12
REMARK    4  A    between atoms: S_12  and  N_15
REMARK    5  A    between atoms: N_18  and  C_19
REMARK                            x       y       z     vdW  Elec       q    Type
REMARK                         _______ _______ _______ _____ _____    ______ ____
ROOT
ATOM      1  S   UNL     1       0.758   9.389  21.072  0.00  0.00    +0.000 S 
ATOM      2  O   UNL     1      -0.678   9.208  21.141  0.00  0.00    +0.000 OA
ATOM      3  O   UNL     1       1.513   9.783  22.245  0.00  0.00    +0.000 OA
ENDROOT
BRANCH   1  11
ATOM      4  C   UNL     1       3.220   2.936  19.865  0.00  0.00    +0.000 C 
ATOM      5  O   UNL     1       2.664   2.567  20.903  0.00  0.00    +0.000 OA
ATOM      6  N   UNL     1       3.217   4.211  19.327  0.00  0.00    +0.000 N 
ATOM      7  C   UNL     1       3.936   4.632  18.114  0.00  0.00    +0.000 C 
ATOM      8  C   UNL     1       3.765   6.152  17.975  0.00  0.00    +0.000 C 
ATOM      9  C   UNL     1       2.844   6.480  19.111  0.00  0.00    +0.000 A 
ATOM     10  C   UNL     1       2.337   7.735  19.459  0.00  0.00    +0.000 A 
ATOM     11  C   UNL     1       1.467   7.817  20.554  0.00  0.00    +0.000 A 
ATOM     12  C   UNL     1       1.048   6.634  21.205  0.00  0.00    +0.000 A 
ATOM     13  C   UNL     1       1.615   5.391  20.880  0.00  0.00    +0.000 A 
ATOM     14  C   UNL     1       2.523   5.328  19.837  0.00  0.00    +0.000 A 
BRANCH   4  16
ATOM     15  O   UNL     1       3.685   1.264  18.105  0.00  0.00    +0.000 OA
ATOM     16  C   UNL     1       4.019   1.824  19.126  0.00  0.00    +0.000 C 
BRANCH  16  17
ATOM     17  O   UNL     1       5.159   1.551  19.803  0.00  0.00    +0.000 OA
ATOM     18  H   UNL     1       5.146   2.050  20.654  0.00  0.00    +0.000 HD
ENDBRANCH  16  17
ENDBRANCH   4  16
ENDBRANCH   1  11
BRANCH   1  19
ATOM     19  N   UNL     1       1.073  10.559  19.882  0.00  0.00    +0.000 NA
ATOM     20  C   UNL     1       0.928  10.215  18.453  0.00  0.00    +0.000 C 
ATOM     21  C   UNL     1      -0.535  10.372  18.018  0.00  0.00    +0.000 C 
ATOM     22  N   UNL     1      -1.213  11.621  18.458  0.00  0.00    +0.000 N 
ATOM     23  C   UNL     1      -0.800  12.195  19.772  0.00  0.00    +0.000 C 
ATOM     24  C   UNL     1       0.683  11.974  20.081  0.00  0.00    +0.000 C 
BRANCH  22  25
ATOM     25  C   UNL     1      -2.612  11.657  18.214  0.00  0.00    +0.000 A 
ATOM     26  C   UNL     1      -3.152  11.273  16.974  0.00  0.00    +0.000 A 
ATOM     27  C   UNL     1      -4.534  11.296  16.730  0.00  0.00    +0.000 A 
ATOM     28  C   UNL     1      -5.417  11.702  17.726  0.00  0.00    +0.000 A 
ATOM     29  C   UNL     1      -4.914  12.077  18.961  0.00  0.00    +0.000 A 
ATOM     30 CL   UNL     1      -5.979  12.602  20.207  0.00  0.00    +0.000 Cl
ATOM     31  C   UNL     1      -3.541  12.040  19.204  0.00  0.00    +0.000 A 
ENDBRANCH  22  25
ENDBRANCH   1  19
TORSDOF 5
ENDMDL
MODEL 3
REMARK VINA RESULT:      -8.0      1.259      1.596
REMARK  Name = 
REMARK  5 active torsions:
REMARK  status: ('A' for Active; 'I' for Inactive)
REMARK    1  A    between atoms: C_2  and  O_3
REMARK    2  A    between atoms: C_2  and  C_4
REMARK    3  A    between atoms: C_11  and  S_12
REMARK    4  A    between atoms: S_12  and  N_15
REMARK    5  A    between atoms: N_18  and  C_19
REMARK                            x       y       z     vdW  Elec       q    Type
REMARK                         _______ _______ _______ _____ _____    ______ ____
ROOT
ATOM      1  S   UNL     1       0.437  10.384  20.480  0.00  0.00    +0.000 S 
ATOM      2  O   UNL     1      -0.818  10.104  21.147  0.00  0.00    +0.000 OA
ATOM      3  O   UNL     1       1.465  11.171  21.133  0.00  0.00    +0.000 OA
ENDROOT
BRANCH   1  11
ATOM      4  C   UNL     1       3.214   3.970  19.921  0.00  0.00    +0.000 C 
ATOM      5  O   UNL     1       2.747   3.710  21.034  0.00  0.00    +0.000 OA
ATOM      6  N   UNL     1       3.099   5.164  19.230  0.00  0.00    +0.000 N 
ATOM      7  C   UNL     1       3.714   5.462  17.926  0.00  0.00    +0.000 C 
ATOM      8  C   UNL     1       3.441   6.941  17.610  0.00  0.00    +0.000 C 
ATOM      9  C   UNL     1       2.573   7.362  18.758  0.00  0.00    +0.000 A 
ATOM     10  C   UNL     1       2.013   8.623  18.981  0.00  0.00    +0.000 A 
ATOM     11  C   UNL     1       1.209   8.798  20.114  0.00  0.00    +0.000 A 
ATOM     12  C   UNL     1       0.905   7.689  20.935  0.00  0.00    +0.000 A 
ATOM     13  C   UNL     1       1.526   6.446  20.730  0.00  0.00    +0.000 A 
ATOM     14  C   UNL     1       2.370   6.298  19.643  0.00  0.00    +0.000 A 
BRANCH   4  16
ATOM     15  O   UNL     1       3.591   1.935  18.571  0.00  0.00    +0.000 OA
ATOM     16  C   UNL     1       4.033   2.817  19.273  0.00  0.00    +0.000 C 
BRANCH  16  17
ATOM     17  O   UNL     1       5.337   2.928  19.622  0.00  0.00    +0.000 OA
ATOM     18  H   UNL     1       5.877   2.405  18.983  0.00  0.00    +0.000 HD
ENDBRANCH  16  17
ENDBRANCH   4  16
ENDBRANCH   1  11
BRANCH   1  19
ATOM     19  N   UNL     1       0.079  11.176  19.021  0.00  0.00    +0.000 NA
ATOM     20  C   UNL     1      -0.601  10.446  17.932  0.00  0.00    +0.000 C 
ATOM     21  C   UNL     1      -2.120  10.467  18.150  0.00  0.00    +0.000 C 
ATOM     22  N   UNL     1      -2.706  11.786  18.514  0.00  0.00    +0.000 N 
ATOM     23  C   UNL     1      -1.861  12.706  19.330  0.00  0.00    +0.000 C 
ATOM     24  C   UNL     1      -0.368  12.589  19.009  0.00  0.00    +0.000 C 
BRANCH  22  25
ATOM     25  C   UNL     1      -4.072  11.744  18.901  0.00  0.00    +0.000 A 
ATOM     26  C   UNL     1      -5.028  11.038  18.149  0.00  0.00    +0.000 A 
ATOM     27  C   UNL     1      -6.376  10.985  18.530  0.00  0.00    +0.000 A 
ATOM     28  C   UNL     1      -6.808  11.635  19.683  0.00  0.00    +0.000 A 
ATOM     29  C   UNL     1      -5.887  12.329  20.449  0.00  0.00    +0.000 A 
ATOM     30 CL   UNL     1      -6.392  13.160  21.870  0.00  0.00    +0.000 Cl
ATOM     31  C   UNL     1      -4.544  12.370  20.073  0.00  0.00    +0.000 A 
ENDBRANCH  22  25
ENDBRANCH   1  19
TORSDOF 5
ENDMDL
MODEL 4
REMARK VINA RESULT:      -8.0      4.435      9.977
REMARK  Name = 
REMARK  5 active torsions:
REMARK  status: ('A' for Active; 'I' for Inactive)
REMARK    1  A    between atoms: C_2  and  O_3
REMARK    2  A    between atoms: C_2  and  C_4
REMARK    3  A    between atoms: C_11  and  S_12
REMARK    4  A    between atoms: S_12  and  N_15
REMARK    5  A    between atoms: N_18  and  C_19
REMARK                            x       y       z     vdW  Elec       q    Type
REMARK                         _______ _______ _______ _____ _____    ______ ____
ROOT
ATOM      1  S   UNL     1       3.663   5.115  18.442  0.00  0.00    +0.000 S 
ATOM      2  O   UNL     1       3.447   4.070  19.422  0.00  0.00    +0.000 OA
ATOM      3  O   UNL     1       3.281   4.924  17.057  0.00  0.00    +0.000 OA
ENDROOT
BRANCH   1  11
ATOM      4  C   UNL     1      -0.238  10.201  21.284  0.00  0.00    +0.000 C 
ATOM      5  O   UNL     1      -0.486   9.438  22.222  0.00  0.00    +0.000 OA
ATOM      6  N   UNL     1       0.554   9.933  20.181  0.00  0.00    +0.000 N 
ATOM      7  C   UNL     1       0.787  10.846  19.050  0.00  0.00    +0.000 C 
ATOM      8  C   UNL     1       1.607  10.084  17.998  0.00  0.00    +0.000 C 
ATOM      9  C   UNL     1       1.872   8.775  18.679  0.00  0.00    +0.000 A 
ATOM     10  C   UNL     1       2.595   7.688  18.180  0.00  0.00    +0.000 A 
ATOM     11  C   UNL     1       2.742   6.560  18.996  0.00  0.00    +0.000 A 
ATOM     12  C   UNL     1       2.253   6.587  20.322  0.00  0.00    +0.000 A 
ATOM     13  C   UNL     1       1.477   7.663  20.784  0.00  0.00    +0.000 A 
ATOM     14  C   UNL     1       1.282   8.748  19.947  0.00  0.00    +0.000 A 
BRANCH   4  16
ATOM     15  O   UNL     1      -1.927  11.933  20.780  0.00  0.00    +0.000 OA
ATOM     16  C   UNL     1      -0.930  11.591  21.376  0.00  0.00    +0.000 C 
BRANCH  16  17
ATOM     17  O   UNL     1      -0.240  12.393  22.222  0.00  0.00    +0.000 OA
ATOM     18  H   UNL     1       0.720  12.179  22.144  0.00  0.00    +0.000 HD
ENDBRANCH  16  17
ENDBRANCH   4  16
ENDBRANCH   1  11
BRANCH   1  19
ATOM     19  N   UNL     1       5.321   5.482  18.438  0.00  0.00    +0.000 NA
ATOM     20  C   UNL     1       6.317   4.398  18.313  0.00  0.00    +0.000 C 
ATOM     21  C   UNL     1       6.537   4.052  16.834  0.00  0.00    +0.000 C 
ATOM     22  N   UNL     1       6.716   5.209  15.915  0.00  0.00    +0.000 N 
ATOM     23  C   UNL     1       5.978   6.462  16.247  0.00  0.00    +0.000 C 
ATOM     24  C   UNL     1       5.834   6.691  17.753  0.00  0.00    +0.000 C 
BRANCH  22  25
ATOM     25  C   UNL     1       6.721   4.876  14.534  0.00  0.00    +0.000 A 
ATOM     26  C   UNL     1       7.784   5.247  13.693  0.00  0.00    +0.000 A 
ATOM     27  C   UNL     1       7.800   4.914  12.330  0.00  0.00    +0.000 A 
ATOM     28  C   UNL     1       6.750   4.192  11.770  0.00  0.00    +0.000 A 
ATOM     29  C   UNL     1       5.694   3.804  12.577  0.00  0.00    +0.000 A 
ATOM     30 CL   UNL     1       4.370   2.927  11.912  0.00  0.00    +0.000 Cl
ATOM     31  C   UNL     1       5.687   4.126  13.935  0.00  0.00    +0.000 A 
ENDBRANCH  22  25
ENDBRANCH   1  19
TORSDOF 5
ENDMDL
MODEL 5
REMARK VINA RESULT:      -7.9      1.331      1.702
REMARK  Name = 
REMARK  5 active torsions:
REMARK  status: ('A' for Active; 'I' for Inactive)
REMARK    1  A    between atoms: C_2  and  O_3
REMARK    2  A    between atoms: C_2  and  C_4
REMARK    3  A    between atoms: C_11  and  S_12
REMARK    4  A    between atoms: S_12  and  N_15
REMARK    5  A    between atoms: N_18  and  C_19
REMARK                            x       y       z     vdW  Elec       q    Type
REMARK                         _______ _______ _______ _____ _____    ______ ____
ROOT
ATOM      1  S   UNL     1       0.824   9.488  21.152  0.00  0.00    +0.000 S 
ATOM      2  O   UNL     1      -0.618   9.356  21.167  0.00  0.00    +0.000 OA
ATOM      3  O   UNL     1       1.553   9.813  22.362  0.00  0.00    +0.000 OA
ENDROOT
BRANCH   1  11
ATOM      4  C   UNL     1       3.155   3.013  19.810  0.00  0.00    +0.000 C 
ATOM      5  O   UNL     1       2.619   2.641  20.857  0.00  0.00    +0.000 OA
ATOM      6  N   UNL     1       3.159   4.295  19.287  0.00  0.00    +0.000 N 
ATOM      7  C   UNL     1       3.854   4.718  18.061  0.00  0.00    +0.000 C 
ATOM      8  C   UNL     1       3.703   6.243  17.944  0.00  0.00    +0.000 C 
ATOM      9  C   UNL     1       2.816   6.571  19.106  0.00  0.00    +0.000 A 
ATOM     10  C   UNL     1       2.338   7.829  19.481  0.00  0.00    +0.000 A 
ATOM     11  C   UNL     1       1.496   7.911  20.598  0.00  0.00    +0.000 A 
ATOM     12  C   UNL     1       1.075   6.728  21.245  0.00  0.00    +0.000 A 
ATOM     13  C   UNL     1       1.614   5.480  20.892  0.00  0.00    +0.000 A 
ATOM     14  C   UNL     1       2.495   5.416  19.827  0.00  0.00    +0.000 A 
BRANCH   4  16
ATOM     15  O   UNL     1       3.555   1.361  18.016  0.00  0.00    +0.000 OA
ATOM     16  C   UNL     1       3.919   1.898  19.039  0.00  0.00    +0.000 C 
BRANCH  16  17
ATOM     17  O   UNL     1       5.066   1.592  19.690  0.00  0.00    +0.000 OA
ATOM     18  H   UNL     1       5.027   0.645  19.963  0.00  0.00    +0.000 HD
ENDBRANCH  16  17
ENDBRANCH   4  16
ENDBRANCH   1  11
BRANCH   1  19
ATOM     19  N   UNL     1       1.218  10.688  20.016  0.00  0.00    +0.000 NA
ATOM     20  C   UNL     1       1.362  10.335  18.589  0.00  0.00    +0.000 C 
ATOM     21  C   UNL     1      -0.010  10.338  17.903  0.00  0.00    +0.000 C 
ATOM     22  N   UNL     1      -0.882  11.507  18.199  0.00  0.00    +0.000 N 
ATOM     23  C   UNL     1      -0.768  12.117  19.556  0.00  0.00    +0.000 C 
ATOM     24  C   UNL     1       0.653  12.053  20.122  0.00  0.00    +0.000 C 
BRANCH  22  25
ATOM     25  C   UNL     1      -2.213  11.394  17.714  0.00  0.00    +0.000 A 
ATOM     26  C   UNL     1      -3.314  11.796  18.489  0.00  0.00    +0.000 A 
ATOM     27  C   UNL     1      -4.630  11.696  18.013  0.00  0.00    +0.000 A 
ATOM     28  C   UNL     1      -4.881  11.194  16.739  0.00  0.00    +0.000 A 
ATOM     29  C   UNL     1      -3.814  10.800  15.949  0.00  0.00    +0.000 A 
ATOM     30 CL   UNL     1      -4.092  10.156  14.376  0.00  0.00    +0.000 Cl
ATOM     31  C   UNL     1      -2.506  10.912  16.421  0.00  0.00    +0.000 A 
ENDBRANCH  22  25
ENDBRANCH   1  19
TORSDOF 5
ENDMDL
MODEL 6
REMARK VINA RESULT:      -7.9      1.720      2.498
REMARK  Name = 
REMARK  5 active torsions:
REMARK  status: ('A' for Active; 'I' for Inactive)
REMARK    1  A    between atoms: C_2  and  O_3
REMARK    2  A    between atoms: C_2  and  C_4
REMARK    3  A    between atoms: C_11  and  S_12
REMARK    4  A    between atoms: S_12  and  N_15
REMARK    5  A    between atoms: N_18  and  C_19
REMARK                            x       y       z     vdW  Elec       q    Type
REMARK                         _______ _______ _______ _____ _____    ______ ____
ROOT
ATOM      1  S   UNL     1       0.227  10.451  20.044  0.00  0.00    +0.000 S 
ATOM      2  O   UNL     1      -0.953  10.035  20.774  0.00  0.00    +0.000 OA
ATOM      3  O   UNL     1       1.173  11.381  20.630  0.00  0.00    +0.000 OA
ENDROOT
BRANCH   1  11
ATOM      4  C   UNL     1       4.057   5.024  17.797  0.00  0.00    +0.000 C 
ATOM      5  O   UNL     1       4.275   5.654  16.758  0.00  0.00    +0.000 OA
ATOM      6  N   UNL     1       3.303   5.442  18.880  0.00  0.00    +0.000 N 
ATOM      7  C   UNL     1       3.016   4.645  20.084  0.00  0.00    +0.000 C 
ATOM      8  C   UNL     1       2.033   5.448  20.950  0.00  0.00    +0.000 C 
ATOM      9  C   UNL     1       1.906   6.733  20.189  0.00  0.00    +0.000 A 
ATOM     10  C   UNL     1       1.137   7.849  20.530  0.00  0.00    +0.000 A 
ATOM     11  C   UNL     1       1.179   8.965  19.684  0.00  0.00    +0.000 A 
ATOM     12  C   UNL     1       2.062   8.974  18.581  0.00  0.00    +0.000 A 
ATOM     13  C   UNL     1       2.781   7.821  18.221  0.00  0.00    +0.000 A 
ATOM     14  C   UNL     1       2.684   6.701  19.027  0.00  0.00    +0.000 A 
BRANCH   4  16
ATOM     15  O   UNL     1       4.163   2.574  17.493  0.00  0.00    +0.000 OA
ATOM     16  C   UNL     1       4.693   3.605  17.843  0.00  0.00    +0.000 C 
BRANCH  16  17
ATOM     17  O   UNL     1       5.944   3.679  18.355  0.00  0.00    +0.000 OA
ATOM     18  H   UNL     1       6.469   4.311  17.810  0.00  0.00    +0.000 HD
ENDBRANCH  16  17
ENDBRANCH   4  16
ENDBRANCH   1  11
BRANCH   1  19
ATOM     19  N   UNL     1      -0.290  11.146  18.584  0.00  0.00    +0.000 NA
ATOM     20  C   UNL     1      -1.055  10.338  17.612  0.00  0.00    +0.000 C 
ATOM     21  C   UNL     1      -2.545  10.345  17.977  0.00  0.00    +0.000 C 
ATOM     22  N   UNL     1      -3.125  11.672  18.318  0.00  0.00    +0.000 N 
ATOM     23  C   UNL     1      -2.227  12.655  18.991  0.00  0.00    +0.000 C 
ATOM     24  C   UNL     1      -0.770  12.546  18.533  0.00  0.00    +0.000 C 
BRANCH  22  25
ATOM     25  C   UNL     1      -4.446  11.629  18.839  0.00  0.00    +0.000 A 
ATOM     26  C   UNL     1      -5.449  10.852  18.235  0.00  0.00    +0.000 A 
ATOM     27  C   UNL     1      -6.753  10.798  18.750  0.00  0.00    +0.000 A 
ATOM     28  C   UNL     1      -7.089  11.518  19.892  0.00  0.00    +0.000 A 
ATOM     29  C   UNL     1      -6.118  12.284  20.515  0.00  0.00    +0.000 A 
ATOM     30 CL   UNL     1      -6.506  13.202  21.919  0.00  0.00    +0.000 Cl
ATOM     31  C   UNL     1      -4.819  12.326  20.007  0.00  0.00    +0.000 A 
ENDBRANCH  22  25
ENDBRANCH   1  19
TORSDOF 5
ENDMDL
MODEL 7
REMARK VINA RESULT:      -7.8      4.137      9.759
REMARK  Name = 
REMARK  5 active torsions:
REMARK  status: ('A' for Active; 'I' for Inactive)
REMARK    1  A    between atoms: C_2  and  O_3
REMARK    2  A    between atoms: C_2  and  C_4
REMARK    3  A    between atoms: C_11  and  S_12
REMARK    4  A    between atoms: S_12  and  N_15
REMARK    5  A    between atoms: N_18  and  C_19
REMARK                            x       y       z     vdW  Elec       q    Type
REMARK                         _______ _______ _______ _____ _____    ______ ____
ROOT
ATOM      1  S   UNL     1       2.162   4.790  18.946  0.00  0.00    +0.000 S 
ATOM      2  O   UNL     1       1.256   4.008  19.764  0.00  0.00    +0.000 OA
ATOM      3  O   UNL     1       2.126   4.696  17.501  0.00  0.00    +0.000 OA
ENDROOT
BRANCH   1  11
ATOM      4  C   UNL     1       0.569  11.239  21.191  0.00  0.00    +0.000 C 
ATOM      5  O   UNL     1       0.206  10.739  22.259  0.00  0.00    +0.000 OA
ATOM      6  N   UNL     1       1.078  10.570  20.090  0.00  0.00    +0.000 N 
ATOM      7  C   UNL     1       1.452  11.190  18.808  0.00  0.00    +0.000 C 
ATOM      8  C   UNL     1       1.829  10.060  17.838  0.00  0.00    +0.000 C 
ATOM      9  C   UNL     1       1.732   8.842  18.706  0.00  0.00    +0.000 A 
ATOM     10  C   UNL     1       1.983   7.516  18.341  0.00  0.00    +0.000 A 
ATOM     11  C   UNL     1       1.852   6.524  19.321  0.00  0.00    +0.000 A 
ATOM     12  C   UNL     1       1.575   6.892  20.657  0.00  0.00    +0.000 A 
ATOM     13  C   UNL     1       1.266   8.221  20.992  0.00  0.00    +0.000 A 
ATOM     14  C   UNL     1       1.336   9.187  20.003  0.00  0.00    +0.000 A 
BRANCH   4  16
ATOM     15  O   UNL     1      -0.582  13.368  20.691  0.00  0.00    +0.000 OA
ATOM     16  C   UNL     1       0.396  12.782  21.102  0.00  0.00    +0.000 C 
BRANCH  16  17
ATOM     17  O   UNL     1       1.518  13.397  21.543  0.00  0.00    +0.000 OA
ATOM     18  H   UNL     1       2.114  12.717  21.938  0.00  0.00    +0.000 HD
ENDBRANCH  16  17
ENDBRANCH   4  16
ENDBRANCH   1  11
BRANCH   1  19
ATOM     19  N   UNL     1       3.746   4.396  19.415  0.00  0.00    +0.000 NA
ATOM     20  C   UNL     1       4.316   3.081  19.058  0.00  0.00    +0.000 C 
ATOM     21  C   UNL     1       4.900   3.126  17.640  0.00  0.00    +0.000 C 
ATOM     22  N   UNL     1       5.745   4.309  17.322  0.00  0.00    +0.000 N 
ATOM     23  C   UNL     1       5.388   5.598  17.981  0.00  0.00    +0.000 C 
ATOM     24  C   UNL     1       4.824   5.413  19.392  0.00  0.00    +0.000 C 
BRANCH  22  25
ATOM     25  C   UNL     1       6.111   4.428  15.954  0.00  0.00    +0.000 A 
ATOM     26  C   UNL     1       7.297   5.074  15.564  0.00  0.00    +0.000 A 
ATOM     27  C   UNL     1       7.669   5.187  14.216  0.00  0.00    +0.000 A 
ATOM     28  C   UNL     1       6.862   4.651  13.217  0.00  0.00    +0.000 A 
ATOM     29  C   UNL     1       5.693   4.000  13.572  0.00  0.00    +0.000 A 
ATOM     30 CL   UNL     1       4.663   3.343  12.359  0.00  0.00    +0.000 Cl
ATOM     31  C   UNL     1       5.333   3.879  14.914  0.00  0.00    +0.000 A 
ENDBRANCH  22  25
ENDBRANCH   1  19
TORSDOF 5
ENDMDL
MODEL 8
REMARK VINA RESULT:      -7.8      2.109      2.899
REMARK  Name = 
REMARK  5 active torsions:
REMARK  status: ('A' for Active; 'I' for Inactive)
REMARK    1  A    between atoms: C_2  and  O_3
REMARK    2  A    between atoms: C_2  and  C_4
REMARK    3  A    between atoms: C_11  and  S_12
REMARK    4  A    between atoms: S_12  and  N_15
REMARK    5  A    between atoms: N_18  and  C_19
REMARK                            x       y       z     vdW  Elec       q    Type
REMARK                         _______ _______ _______ _____ _____    ______ ____
ROOT
ATOM      1  S   UNL     1       0.171  10.107  19.731  0.00  0.00    +0.000 S 
ATOM      2  O   UNL     1      -0.948   9.408  20.330  0.00  0.00    +0.000 OA
ATOM      3  O   UNL     1       0.919  11.093  20.484  0.00  0.00    +0.000 OA
ENDROOT
BRANCH   1  11
ATOM      4  C   UNL     1       4.870   5.666  17.017  0.00  0.00    +0.000 C 
ATOM      5  O   UNL     1       4.901   6.372  16.006  0.00  0.00    +0.000 OA
ATOM      6  N   UNL     1       4.109   5.875  18.154  0.00  0.00    +0.000 N 
ATOM      7  C   UNL     1       4.052   4.983  19.324  0.00  0.00    +0.000 C 
ATOM      8  C   UNL     1       2.979   5.532  20.276  0.00  0.00    +0.000 C 
ATOM      9  C   UNL     1       2.558   6.799  19.595  0.00  0.00    +0.000 A 
ATOM     10  C   UNL     1       1.603   7.721  20.030  0.00  0.00    +0.000 A 
ATOM     11  C   UNL     1       1.377   8.859  19.246  0.00  0.00    +0.000 A 
ATOM     12  C   UNL     1       2.179   9.095  18.107  0.00  0.00    +0.000 A 
ATOM     13  C   UNL     1       3.090   8.128  17.652  0.00  0.00    +0.000 A 
ATOM     14  C   UNL     1       3.262   6.976  18.399  0.00  0.00    +0.000 A 
BRANCH   4  16
ATOM     15  O   UNL     1       6.964   4.365  17.191  0.00  0.00    +0.000 OA
ATOM     16  C   UNL     1       5.776   4.403  16.956  0.00  0.00    +0.000 C 
BRANCH  16  17
ATOM     17  O   UNL     1       5.042   3.328  16.582  0.00  0.00    +0.000 OA
ATOM     18  H   UNL     1       4.111   3.467  16.875  0.00  0.00    +0.000 HD
ENDBRANCH  16  17
ENDBRANCH   4  16
ENDBRANCH   1  11
BRANCH   1  19
ATOM     19  N   UNL     1      -0.401  10.895  18.340  0.00  0.00    +0.000 NA
ATOM     20  C   UNL     1      -1.269  10.174  17.387  0.00  0.00    +0.000 C 
ATOM     21  C   UNL     1      -2.730  10.240  17.850  0.00  0.00    +0.000 C 
ATOM     22  N   UNL     1      -3.214  11.577  18.286  0.00  0.00    +0.000 N 
ATOM     23  C   UNL     1      -2.223  12.480  18.940  0.00  0.00    +0.000 C 
ATOM     24  C   UNL     1      -0.807  12.319  18.382  0.00  0.00    +0.000 C 
BRANCH  22  25
ATOM     25  C   UNL     1      -4.499  11.576  18.892  0.00  0.00    +0.000 A 
ATOM     26  C   UNL     1      -5.566  10.837  18.352  0.00  0.00    +0.000 A 
ATOM     27  C   UNL     1      -6.835  10.825  18.950  0.00  0.00    +0.000 A 
ATOM     28  C   UNL     1      -7.071  11.552  20.113  0.00  0.00    +0.000 A 
ATOM     29  C   UNL     1      -6.036  12.281  20.673  0.00  0.00    +0.000 A 
ATOM     30 CL   UNL     1      -6.301  13.207  22.101  0.00  0.00    +0.000 Cl
ATOM     31  C   UNL     1      -4.773  12.281  20.083  0.00  0.00    +0.000 A 
ENDBRANCH  22  25
ENDBRANCH   1  19
TORSDOF 5
ENDMDL
MODEL 9
REMARK VINA RESULT:      -7.8      2.329      3.144
REMARK  Name = 
REMARK  5 active torsions:
REMARK  status: ('A' for Active; 'I' for Inactive)
REMARK    1  A    between atoms: C_2  and  O_3
REMARK    2  A    between atoms: C_2  and  C_4
REMARK    3  A    between atoms: C_11  and  S_12
REMARK    4  A    between atoms: S_12  and  N_15
REMARK    5  A    between atoms: N_18  and  C_19
REMARK                            x       y       z     vdW  Elec       q    Type
REMARK                         _______ _______ _______ _____ _____    ______ ____
ROOT
ATOM      1  S   UNL     1       0.331  10.780  19.587  0.00  0.00    +0.000 S 
ATOM      2  O   UNL     1       0.829  11.747  18.629  0.00  0.00    +0.000 OA
ATOM      3  O   UNL     1      -1.064  10.388  19.589  0.00  0.00    +0.000 OA
ENDROOT
BRANCH   1  11
ATOM      4  C   UNL     1       4.075   5.151  17.725  0.00  0.00    +0.000 C 
ATOM      5  O   UNL     1       4.321   5.713  16.654  0.00  0.00    +0.000 OA
ATOM      6  N   UNL     1       3.314   5.649  18.769  0.00  0.00    +0.000 N 
ATOM      7  C   UNL     1       2.993   4.930  20.013  0.00  0.00    +0.000 C 
ATOM      8  C   UNL     1       2.016   5.803  20.815  0.00  0.00    +0.000 C 
ATOM      9  C   UNL     1       1.927   7.044  19.978  0.00  0.00    +0.000 A 
ATOM     10  C   UNL     1       1.177   8.194  20.239  0.00  0.00    +0.000 A 
ATOM     11  C   UNL     1       1.255   9.255  19.330  0.00  0.00    +0.000 A 
ATOM     12  C   UNL     1       2.155   9.181  18.242  0.00  0.00    +0.000 A 
ATOM     13  C   UNL     1       2.853   7.994  17.962  0.00  0.00    +0.000 A 
ATOM     14  C   UNL     1       2.721   6.926  18.832  0.00  0.00    +0.000 A 
BRANCH   4  16
ATOM     15  O   UNL     1       4.155   2.690  17.513  0.00  0.00    +0.000 OA
ATOM     16  C   UNL     1       4.679   3.725  17.864  0.00  0.00    +0.000 C 
BRANCH  16  17
ATOM     17  O   UNL     1       5.893   3.796  18.461  0.00  0.00    +0.000 OA
ATOM     18  H   UNL     1       6.390   2.969  18.258  0.00  0.00    +0.000 HD
ENDBRANCH  16  17
ENDBRANCH   4  16
ENDBRANCH   1  11
BRANCH   1  19
ATOM     19  N   UNL     1       0.666  11.376  21.141  0.00  0.00    +0.000 NA
ATOM     20  C   UNL     1       0.550  12.822  21.418  0.00  0.00    +0.000 C 
ATOM     21  C   UNL     1      -0.905  13.181  21.751  0.00  0.00    +0.000 C 
ATOM     22  N   UNL     1      -1.593  12.277  22.712  0.00  0.00    +0.000 N 
ATOM     23  C   UNL     1      -1.207  10.836  22.689  0.00  0.00    +0.000 C 
ATOM     24  C   UNL     1       0.270  10.619  22.351  0.00  0.00    +0.000 C 
BRANCH  22  25
ATOM     25  C   UNL     1      -2.988  12.510  22.853  0.00  0.00    +0.000 A 
ATOM     26  C   UNL     1      -3.612  12.488  24.112  0.00  0.00    +0.000 A 
ATOM     27  C   UNL     1      -4.987  12.726  24.260  0.00  0.00    +0.000 A 
ATOM     28  C   UNL     1      -5.777  13.000  23.147  0.00  0.00    +0.000 A 
ATOM     29  C   UNL     1      -5.187  13.039  21.895  0.00  0.00    +0.000 A 
ATOM     30 CL   UNL     1      -6.139  13.355  20.496  0.00  0.00    +0.000 Cl
ATOM     31  C   UNL     1      -3.817  12.813  21.754  0.00  0.00    +0.000 A 
ENDBRANCH  22  25
ENDBRANCH   1  19
TORSDOF 5
ENDMDL
