MODEL 1
REMARK VINA RESULT:      -9.3      0.000      0.000
REMARK  Name = 
REMARK  8 active torsions:
REMARK  status: ('A' for Active; 'I' for Inactive)
REMARK    1  A    between atoms: N_1  and  C_2
REMARK    2  A    between atoms: C_2  and  C_3
REMARK    3  A    between atoms: C_2  and  C_13
REMARK    4  A    between atoms: C_3  and  C_4
REMARK    5  A    between atoms: N_15  and  C_16
REMARK    6  A    between atoms: C_16  and  C_17
REMARK    7  A    between atoms: C_17  and  N_18
REMARK    8  A    between atoms: N_18  and  C_19
REMARK                            x       y       z     vdW  Elec       q    Type
REMARK                         _______ _______ _______ _____ _____    ______ ____
ROOT
ATOM      1  C   UNL     1       0.814   9.462  21.542  0.00  0.00    +0.000 C 
ATOM      2  O   UNL     1       1.728   9.362  22.347  0.00  0.00    +0.000 OA
ATOM      3  N   UNL     1       0.841   8.736  20.394  0.00  0.00    +0.000 N 
ATOM      4  H   UNL     1       0.020   8.794  19.768  0.00  0.00    +0.000 HD
ENDROOT
BRANCH   1   5
ATOM      5  C   UNL     1      -0.379  10.379  21.819  0.00  0.00    +0.000 C 
BRANCH   5   6
ATOM      6  N   UNL     1      -0.502  10.816  23.217  0.00  0.00    +0.000 NA
ATOM      7  H   UNL     1      -1.416  10.522  23.626  0.00  0.00    +0.000 HD
ATOM      8  H   UNL     1       0.283  10.502  23.827  0.00  0.00    +0.000 HD
ENDBRANCH   5   6
BRANCH   5   9
ATOM      9  C   UNL     1      -0.359  11.618  20.903  0.00  0.00    +0.000 C 
BRANCH   9  10
ATOM     10  C   UNL     1      -1.627  11.864  20.119  0.00  0.00    +0.000 A 
ATOM     11  C   UNL     1      -2.699  12.723  20.404  0.00  0.00    +0.000 A 
ATOM     12  N   UNL     1      -3.634  12.646  19.439  0.00  0.00    +0.000 N 
ATOM     13  C   UNL     1      -3.182  11.752  18.548  0.00  0.00    +0.000 A 
ATOM     14  C   UNL     1      -3.816  11.346  17.380  0.00  0.00    +0.000 A 
ATOM     15  C   UNL     1      -3.165  10.389  16.583  0.00  0.00    +0.000 A 
ATOM     16  C   UNL     1      -1.910   9.866  16.970  0.00  0.00    +0.000 A 
ATOM     17  C   UNL     1      -1.292  10.299  18.160  0.00  0.00    +0.000 A 
ATOM     18  C   UNL     1      -1.964  11.253  18.929  0.00  0.00    +0.000 A 
ATOM     19  H   UNL     1      -4.529  13.181  19.402  0.00  0.00    +0.000 HD
ENDBRANCH   9  10
ENDBRANCH   5   9
ENDBRANCH   1   5
BRANCH   3  20
ATOM     20  C   UNL     1       1.915   7.819  20.049  0.00  0.00    +0.000 C 
BRANCH  20  21
ATOM     21  C   UNL     1       2.310   8.065  18.594  0.00  0.00    +0.000 C 
BRANCH  21  22
ATOM     22  N   UNL     1       2.543   6.863  17.828  0.00  0.00    +0.000 N 
ATOM     23  H   UNL     1       2.060   6.829  16.922  0.00  0.00    +0.000 HD
BRANCH  22  24
ATOM     24  C   UNL     1       3.479   5.814  18.187  0.00  0.00    +0.000 A 
ATOM     25  C   UNL     1       4.918   5.951  18.086  0.00  0.00    +0.000 A 
ATOM     26  C   UNL     1       5.738   4.870  18.512  0.00  0.00    +0.000 A 
ATOM     27  N   UNL     1       5.188   3.712  18.922  0.00  0.00    +0.000 NA
ATOM     28  C   UNL     1       3.852   3.513  18.991  0.00  0.00    +0.000 A 
ATOM     29  C   UNL     1       3.390   2.260  19.408  0.00  0.00    +0.000 A 
ATOM     30  C   UNL     1       2.024   2.002  19.475  0.00  0.00    +0.000 A 
ATOM     31  C   UNL     1       1.114   2.998  19.129  0.00  0.00    +0.000 A 
ATOM     32  C   UNL     1       1.567   4.256  18.719  0.00  0.00    +0.000 A 
ATOM     33  C   UNL     1       2.955   4.549  18.640  0.00  0.00    +0.000 A 
ATOM     34  C   UNL     1       7.252   4.942  18.543  0.00  0.00    +0.000 C 
ATOM     35  C   UNL     1       7.800   6.363  18.416  0.00  0.00    +0.000 C 
ATOM     36  C   UNL     1       7.108   7.048  17.267  0.00  0.00    +0.000 C 
ATOM     37  C   UNL     1       5.617   7.208  17.581  0.00  0.00    +0.000 C 
ENDBRANCH  22  24
ENDBRANCH  21  22
ENDBRANCH  20  21
ENDBRANCH   3  20
TORSDOF 8
ENDMDL
MODEL 2
REMARK VINA RESULT:      -9.0      1.429      3.447
REMARK  Name = 
REMARK  8 active torsions:
REMARK  status: ('A' for Active; 'I' for Inactive)
REMARK    1  A    between atoms: N_1  and  C_2
REMARK    2  A    between atoms: C_2  and  C_3
REMARK    3  A    between atoms: C_2  and  C_13
REMARK    4  A    between atoms: C_3  and  C_4
REMARK    5  A    between atoms: N_15  and  C_16
REMARK    6  A    between atoms: C_16  and  C_17
REMARK    7  A    between atoms: C_17  and  N_18
REMARK    8  A    between atoms: N_18  and  C_19
REMARK                            x       y       z     vdW  Elec       q    Type
REMARK                         _______ _______ _______ _____ _____    ______ ____
ROOT
ATOM      1  C   UNL     1      -0.185   9.943  22.111  0.00  0.00    +0.000 C 
ATOM      2  O   UNL     1      -0.215   9.285  23.141  0.00  0.00    +0.000 OA
ATOM      3  N   UNL     1       0.534   9.501  21.046  0.00  0.00    +0.000 N 
ATOM      4  H   UNL     1       0.483  10.046  20.170  0.00  0.00    +0.000 HD
ENDROOT
BRANCH   1   5
ATOM      5  C   UNL     1      -0.967  11.253  21.993  0.00  0.00    +0.000 C 
BRANCH   5   6
ATOM      6  N   UNL     1      -0.636  12.256  23.015  0.00  0.00    +0.000 NA
ATOM      7  H   UNL     1      -0.737  13.225  22.641  0.00  0.00    +0.000 HD
ATOM      8  H   UNL     1      -1.180  12.152  23.898  0.00  0.00    +0.000 HD
ENDBRANCH   5   6
BRANCH   5   9
ATOM      9  C   UNL     1      -0.800  11.882  20.596  0.00  0.00    +0.000 C 
BRANCH   9  10
ATOM     10  C   UNL     1      -2.060  11.956  19.764  0.00  0.00    +0.000 A 
ATOM     11  C   UNL     1      -3.222  12.714  19.972  0.00  0.00    +0.000 A 
ATOM     12  N   UNL     1      -4.111  12.491  18.987  0.00  0.00    +0.000 N 
ATOM     13  C   UNL     1      -3.542  11.604  18.159  0.00  0.00    +0.000 A 
ATOM     14  C   UNL     1      -4.092  11.075  16.997  0.00  0.00    +0.000 A 
ATOM     15  C   UNL     1      -3.321  10.150  16.272  0.00  0.00    +0.000 A 
ATOM     16  C   UNL     1      -2.035   9.780  16.722  0.00  0.00    +0.000 A 
ATOM     17  C   UNL     1      -1.503  10.335  17.904  0.00  0.00    +0.000 A 
ATOM     18  C   UNL     1      -2.293  11.253  18.601  0.00  0.00    +0.000 A 
ATOM     19  H   UNL     1      -5.054  12.929  18.896  0.00  0.00    +0.000 HD
ENDBRANCH   9  10
ENDBRANCH   5   9
ENDBRANCH   1   5
BRANCH   3  20
ATOM     20  C   UNL     1       1.290   8.259  21.049  0.00  0.00    +0.000 C 
BRANCH  20  21
ATOM     21  C   UNL     1       1.857   8.037  19.648  0.00  0.00    +0.000 C 
BRANCH  21  22
ATOM     22  N   UNL     1       3.018   7.179  19.603  0.00  0.00    +0.000 N 
ATOM     23  H   UNL     1       3.807   7.491  20.182  0.00  0.00    +0.000 HD
BRANCH  22  24
ATOM     24  C   UNL     1       3.080   5.896  18.929  0.00  0.00    +0.000 A 
ATOM     25  C   UNL     1       2.380   4.712  19.386  0.00  0.00    +0.000 A 
ATOM     26  C   UNL     1       2.478   3.520  18.616  0.00  0.00    +0.000 A 
ATOM     27  N   UNL     1       3.272   3.469  17.530  0.00  0.00    +0.000 NA
ATOM     28  C   UNL     1       3.985   4.530  17.086  0.00  0.00    +0.000 A 
ATOM     29  C   UNL     1       4.797   4.356  15.960  0.00  0.00    +0.000 A 
ATOM     30  C   UNL     1       5.563   5.413  15.479  0.00  0.00    +0.000 A 
ATOM     31  C   UNL     1       5.518   6.649  16.118  0.00  0.00    +0.000 A 
ATOM     32  C   UNL     1       4.701   6.834  17.239  0.00  0.00    +0.000 A 
ATOM     33  C   UNL     1       3.909   5.774  17.755  0.00  0.00    +0.000 A 
ATOM     34  C   UNL     1       1.711   2.256  18.947  0.00  0.00    +0.000 C 
ATOM     35  C   UNL     1       0.578   2.471  19.949  0.00  0.00    +0.000 C 
ATOM     36  C   UNL     1       1.105   3.272  21.110  0.00  0.00    +0.000 C 
ATOM     37  C   UNL     1       1.506   4.672  20.634  0.00  0.00    +0.000 C 
ENDBRANCH  22  24
ENDBRANCH  21  22
ENDBRANCH  20  21
ENDBRANCH   3  20
TORSDOF 8
ENDMDL
MODEL 3
REMARK VINA RESULT:      -8.9      1.919      4.213
REMARK  Name = 
REMARK  8 active torsions:
REMARK  status: ('A' for Active; 'I' for Inactive)
REMARK    1  A    between atoms: N_1  and  C_2
REMARK    2  A    between atoms: C_2  and  C_3
REMARK    3  A    between atoms: C_2  and  C_13
REMARK    4  A    between atoms: C_3  and  C_4
REMARK    5  A    between atoms: N_15  and  C_16
REMARK    6  A    between atoms: C_16  and  C_17
REMARK    7  A    between atoms: C_17  and  N_18
REMARK    8  A    between atoms: N_18  and  C_19
REMARK                            x       y       z     vdW  Elec       q    Type
REMARK                         _______ _______ _______ _____ _____    ______ ____
ROOT
ATOM      1  C   UNL     1       0.596  11.151  18.566  0.00  0.00    +0.000 C 
ATOM      2  O   UNL     1       1.511  11.772  19.087  0.00  0.00    +0.000 OA
ATOM      3  N   UNL     1       0.841   9.954  17.972  0.00  0.00    +0.000 N 
ATOM      4  H   UNL     1       0.034   9.425  17.602  0.00  0.00    +0.000 HD
ENDROOT
BRANCH   1   5
ATOM      5  C   UNL     1      -0.835  11.693  18.593  0.00  0.00    +0.000 C 
BRANCH   5   6
ATOM      6  N   UNL     1      -1.111  12.737  17.597  0.00  0.00    +0.000 NA
ATOM      7  H   UNL     1      -1.575  13.564  18.034  0.00  0.00    +0.000 HD
ATOM      8  H   UNL     1      -0.271  13.039  17.059  0.00  0.00    +0.000 HD
ENDBRANCH   5   6
BRANCH   5   9
ATOM      9  C   UNL     1      -1.867  10.559  18.435  0.00  0.00    +0.000 C 
BRANCH   9  10
ATOM     10  C   UNL     1      -3.119  10.926  17.672  0.00  0.00    +0.000 A 
ATOM     11  C   UNL     1      -3.480  10.619  16.352  0.00  0.00    +0.000 A 
ATOM     12  N   UNL     1      -4.690  11.134  16.063  0.00  0.00    +0.000 N 
ATOM     13  C   UNL     1      -5.103  11.768  17.170  0.00  0.00    +0.000 A 
ATOM     14  C   UNL     1      -6.301  12.452  17.339  0.00  0.00    +0.000 A 
ATOM     15  C   UNL     1      -6.538  13.051  18.589  0.00  0.00    +0.000 A 
ATOM     16  C   UNL     1      -5.583  12.953  19.625  0.00  0.00    +0.000 A 
ATOM     17  C   UNL     1      -4.378  12.250  19.422  0.00  0.00    +0.000 A 
ATOM     18  C   UNL     1      -4.173  11.664  18.170  0.00  0.00    +0.000 A 
ATOM     19  H   UNL     1      -5.195  11.050  15.154  0.00  0.00    +0.000 HD
ENDBRANCH   9  10
ENDBRANCH   5   9
ENDBRANCH   1   5
BRANCH   3  20
ATOM     20  C   UNL     1       2.159   9.342  17.915  0.00  0.00    +0.000 C 
BRANCH  20  21
ATOM     21  C   UNL     1       2.129   8.057  18.740  0.00  0.00    +0.000 C 
BRANCH  21  22
ATOM     22  N   UNL     1       2.459   6.864  17.997  0.00  0.00    +0.000 N 
ATOM     23  H   UNL     1       2.109   6.846  17.031  0.00  0.00    +0.000 HD
BRANCH  22  24
ATOM     24  C   UNL     1       3.325   5.800  18.469  0.00  0.00    +0.000 A 
ATOM     25  C   UNL     1       2.877   4.714  19.317  0.00  0.00    +0.000 A 
ATOM     26  C   UNL     1       3.808   3.701  19.679  0.00  0.00    +0.000 A 
ATOM     27  N   UNL     1       5.100   3.793  19.309  0.00  0.00    +0.000 NA
ATOM     28  C   UNL     1       5.582   4.809  18.558  0.00  0.00    +0.000 A 
ATOM     29  C   UNL     1       6.947   4.816  18.254  0.00  0.00    +0.000 A 
ATOM     30  C   UNL     1       7.493   5.852  17.501  0.00  0.00    +0.000 A 
ATOM     31  C   UNL     1       6.674   6.882  17.045  0.00  0.00    +0.000 A 
ATOM     32  C   UNL     1       5.306   6.877  17.338  0.00  0.00    +0.000 A 
ATOM     33  C   UNL     1       4.720   5.836  18.104  0.00  0.00    +0.000 A 
ATOM     34  C   UNL     1       3.424   2.472  20.478  0.00  0.00    +0.000 C 
ATOM     35  C   UNL     1       1.916   2.240  20.559  0.00  0.00    +0.000 C 
ATOM     36  C   UNL     1       1.247   3.536  20.938  0.00  0.00    +0.000 C 
ATOM     37  C   UNL     1       1.447   4.567  19.822  0.00  0.00    +0.000 C 
ENDBRANCH  22  24
ENDBRANCH  21  22
ENDBRANCH  20  21
ENDBRANCH   3  20
TORSDOF 8
ENDMDL
MODEL 4
REMARK VINA RESULT:      -8.9      1.091      1.113
REMARK  Name = 
REMARK  8 active torsions:
REMARK  status: ('A' for Active; 'I' for Inactive)
REMARK    1  A    between atoms: N_1  and  C_2
REMARK    2  A    between atoms: C_2  and  C_3
REMARK    3  A    between atoms: C_2  and  C_13
REMARK    4  A    between atoms: C_3  and  C_4
REMARK    5  A    between atoms: N_15  and  C_16
REMARK    6  A    between atoms: C_16  and  C_17
REMARK    7  A    between atoms: C_17  and  N_18
REMARK    8  A    between atoms: N_18  and  C_19
REMARK                            x       y       z     vdW  Elec       q    Type
REMARK                         _______ _______ _______ _____ _____    ______ ____
ROOT
ATOM      1  C   UNL     1       0.763   9.416  21.767  0.00  0.00    +0.000 C 
ATOM      2  O   UNL     1       1.662   9.426  22.595  0.00  0.00    +0.000 OA
ATOM      3  N   UNL     1       0.770   8.491  20.771  0.00  0.00    +0.000 N 
ATOM      4  H   UNL     1      -0.039   8.468  20.129  0.00  0.00    +0.000 HD
ENDROOT
BRANCH   1   5
ATOM      5  C   UNL     1      -0.389  10.419  21.846  0.00  0.00    +0.000 C 
BRANCH   5   6
ATOM      6  N   UNL     1      -0.517  11.102  23.142  0.00  0.00    +0.000 NA
ATOM      7  H   UNL     1      -1.309  11.781  23.135  0.00  0.00    +0.000 HD
ATOM      8  H   UNL     1      -0.605  10.453  23.952  0.00  0.00    +0.000 HD
ENDBRANCH   5   6
BRANCH   5   9
ATOM      9  C   UNL     1      -0.293  11.475  20.727  0.00  0.00    +0.000 C 
BRANCH   9  10
ATOM     10  C   UNL     1      -1.582  11.755  19.989  0.00  0.00    +0.000 A 
ATOM     11  C   UNL     1      -2.635  12.617  20.329  0.00  0.00    +0.000 A 
ATOM     12  N   UNL     1      -3.599  12.575  19.391  0.00  0.00    +0.000 N 
ATOM     13  C   UNL     1      -3.184  11.701  18.464  0.00  0.00    +0.000 A 
ATOM     14  C   UNL     1      -3.857  11.333  17.304  0.00  0.00    +0.000 A 
ATOM     15  C   UNL     1      -3.241  10.391  16.463  0.00  0.00    +0.000 A 
ATOM     16  C   UNL     1      -1.981   9.846  16.798  0.00  0.00    +0.000 A 
ATOM     17  C   UNL     1      -1.323  10.240  17.980  0.00  0.00    +0.000 A 
ATOM     18  C   UNL     1      -1.961  11.180  18.794  0.00  0.00    +0.000 A 
ATOM     19  H   UNL     1      -4.489  13.120  19.396  0.00  0.00    +0.000 HD
ENDBRANCH   9  10
ENDBRANCH   5   9
ENDBRANCH   1   5
BRANCH   3  20
ATOM     20  C   UNL     1       1.804   7.480  20.623  0.00  0.00    +0.000 C 
BRANCH  20  21
ATOM     21  C   UNL     1       2.522   7.717  19.296  0.00  0.00    +0.000 C 
BRANCH  21  22
ATOM     22  N   UNL     1       2.193   6.765  18.261  0.00  0.00    +0.000 N 
ATOM     23  H   UNL     1       1.439   7.060  17.628  0.00  0.00    +0.000 HD
BRANCH  22  24
ATOM     24  C   UNL     1       2.919   5.538  17.995  0.00  0.00    +0.000 A 
ATOM     25  C   UNL     1       4.093   5.465  17.149  0.00  0.00    +0.000 A 
ATOM     26  C   UNL     1       4.751   4.213  16.999  0.00  0.00    +0.000 A 
ATOM     27  N   UNL     1       4.246   3.101  17.566  0.00  0.00    +0.000 NA
ATOM     28  C   UNL     1       3.128   3.103  18.327  0.00  0.00    +0.000 A 
ATOM     29  C   UNL     1       2.679   1.884  18.846  0.00  0.00    +0.000 A 
ATOM     30  C   UNL     1       1.522   1.833  19.618  0.00  0.00    +0.000 A 
ATOM     31  C   UNL     1       0.811   3.003  19.877  0.00  0.00    +0.000 A 
ATOM     32  C   UNL     1       1.258   4.227  19.369  0.00  0.00    +0.000 A 
ATOM     33  C   UNL     1       2.434   4.311  18.577  0.00  0.00    +0.000 A 
ATOM     34  C   UNL     1       6.039   4.043  16.219  0.00  0.00    +0.000 C 
ATOM     35  C   UNL     1       6.746   5.362  15.909  0.00  0.00    +0.000 C 
ATOM     36  C   UNL     1       5.737   6.333  15.355  0.00  0.00    +0.000 C 
ATOM     37  C   UNL     1       4.695   6.666  16.429  0.00  0.00    +0.000 C 
ENDBRANCH  22  24
ENDBRANCH  21  22
ENDBRANCH  20  21
ENDBRANCH   3  20
TORSDOF 8
ENDMDL
MODEL 5
REMARK VINA RESULT:      -8.8      5.909      9.854
REMARK  Name = 
REMARK  8 active torsions:
REMARK  status: ('A' for Active; 'I' for Inactive)
REMARK    1  A    between atoms: N_1  and  C_2
REMARK    2  A    between atoms: C_2  and  C_3
REMARK    3  A    between atoms: C_2  and  C_13
REMARK    4  A    between atoms: C_3  and  C_4
REMARK    5  A    between atoms: N_15  and  C_16
REMARK    6  A    between atoms: C_16  and  C_17
REMARK    7  A    between atoms: C_17  and  N_18
REMARK    8  A    between atoms: N_18  and  C_19
REMARK                            x       y       z     vdW  Elec       q    Type
REMARK                         _______ _______ _______ _____ _____    ______ ____
ROOT
ATOM      1  C   UNL     1       6.833   6.878  17.055  0.00  0.00    +0.000 C 
ATOM      2  O   UNL     1       7.675   5.994  17.099  0.00  0.00    +0.000 OA
ATOM      3  N   UNL     1       7.142   8.130  17.483  0.00  0.00    +0.000 N 
ATOM      4  H   UNL     1       6.428   8.869  17.370  0.00  0.00    +0.000 HD
ENDROOT
BRANCH   1   5
ATOM      5  C   UNL     1       5.433   6.603  16.502  0.00  0.00    +0.000 C 
BRANCH   5   6
ATOM      6  N   UNL     1       5.353   5.455  15.586  0.00  0.00    +0.000 NA
ATOM      7  H   UNL     1       4.652   5.621  14.832  0.00  0.00    +0.000 HD
ATOM      8  H   UNL     1       6.270   5.183  15.173  0.00  0.00    +0.000 HD
ENDBRANCH   5   6
BRANCH   5   9
ATOM      9  C   UNL     1       4.407   6.415  17.636  0.00  0.00    +0.000 C 
BRANCH   9  10
ATOM     10  C   UNL     1       4.388   5.044  18.272  0.00  0.00    +0.000 A 
ATOM     11  C   UNL     1       5.434   4.321  18.865  0.00  0.00    +0.000 A 
ATOM     12  N   UNL     1       4.990   3.134  19.317  0.00  0.00    +0.000 N 
ATOM     13  C   UNL     1       3.683   3.084  19.019  0.00  0.00    +0.000 A 
ATOM     14  C   UNL     1       2.806   2.042  19.295  0.00  0.00    +0.000 A 
ATOM     15  C   UNL     1       1.468   2.192  18.893  0.00  0.00    +0.000 A 
ATOM     16  C   UNL     1       1.045   3.367  18.231  0.00  0.00    +0.000 A 
ATOM     17  C   UNL     1       1.959   4.407  17.967  0.00  0.00    +0.000 A 
ATOM     18  C   UNL     1       3.282   4.227  18.381  0.00  0.00    +0.000 A 
ATOM     19  H   UNL     1       5.558   2.406  19.801  0.00  0.00    +0.000 HD
ENDBRANCH   9  10
ENDBRANCH   5   9
ENDBRANCH   1   5
BRANCH   3  20
ATOM     20  C   UNL     1       8.448   8.500  18.002  0.00  0.00    +0.000 C 
BRANCH  20  21
ATOM     21  C   UNL     1       8.425   9.988  18.350  0.00  0.00    +0.000 C 
BRANCH  21  22
ATOM     22  N   UNL     1       9.432  10.393  19.302  0.00  0.00    +0.000 N 
ATOM     23  H   UNL     1      10.029   9.633  19.649  0.00  0.00    +0.000 HD
BRANCH  22  24
ATOM     24  C   UNL     1       9.723  11.765  19.674  0.00  0.00    +0.000 A 
ATOM     25  C   UNL     1      10.463  12.687  18.837  0.00  0.00    +0.000 A 
ATOM     26  C   UNL     1      10.646  14.024  19.287  0.00  0.00    +0.000 A 
ATOM     27  N   UNL     1      10.211  14.403  20.504  0.00  0.00    +0.000 NA
ATOM     28  C   UNL     1       9.556  13.571  21.345  0.00  0.00    +0.000 A 
ATOM     29  C   UNL     1       9.172  14.065  22.596  0.00  0.00    +0.000 A 
ATOM     30  C   UNL     1       8.513  13.241  23.504  0.00  0.00    +0.000 A 
ATOM     31  C   UNL     1       8.232  11.921  23.162  0.00  0.00    +0.000 A 
ATOM     32  C   UNL     1       8.605  11.422  21.910  0.00  0.00    +0.000 A 
ATOM     33  C   UNL     1       9.280  12.237  20.963  0.00  0.00    +0.000 A 
ATOM     34  C   UNL     1      11.318  15.094  18.450  0.00  0.00    +0.000 C 
ATOM     35  C   UNL     1      11.464  14.717  16.976  0.00  0.00    +0.000 C 
ATOM     36  C   UNL     1      12.032  13.325  16.886  0.00  0.00    +0.000 C 
ATOM     37  C   UNL     1      11.035  12.320  17.472  0.00  0.00    +0.000 C 
ENDBRANCH  22  24
ENDBRANCH  21  22
ENDBRANCH  20  21
ENDBRANCH   3  20
TORSDOF 8
ENDMDL
MODEL 6
REMARK VINA RESULT:      -8.8      1.860      1.987
REMARK  Name = 
REMARK  8 active torsions:
REMARK  status: ('A' for Active; 'I' for Inactive)
REMARK    1  A    between atoms: N_1  and  C_2
REMARK    2  A    between atoms: C_2  and  C_3
REMARK    3  A    between atoms: C_2  and  C_13
REMARK    4  A    between atoms: C_3  and  C_4
REMARK    5  A    between atoms: N_15  and  C_16
REMARK    6  A    between atoms: C_16  and  C_17
REMARK    7  A    between atoms: C_17  and  N_18
REMARK    8  A    between atoms: N_18  and  C_19
REMARK                            x       y       z     vdW  Elec       q    Type
REMARK                         _______ _______ _______ _____ _____    ______ ____
ROOT
ATOM      1  C   UNL     1       1.248  11.453  19.118  0.00  0.00    +0.000 C 
ATOM      2  O   UNL     1       1.730  12.227  18.304  0.00  0.00    +0.000 OA
ATOM      3  N   UNL     1       1.466  10.118  18.995  0.00  0.00    +0.000 N 
ATOM      4  H   UNL     1       1.101   9.499  19.738  0.00  0.00    +0.000 HD
ENDROOT
BRANCH   1   5
ATOM      5  C   UNL     1       0.419  11.969  20.296  0.00  0.00    +0.000 C 
BRANCH   5   6
ATOM      6  N   UNL     1       0.039  13.385  20.202  0.00  0.00    +0.000 NA
ATOM      7  H   UNL     1      -0.902  13.553  20.620  0.00  0.00    +0.000 HD
ATOM      8  H   UNL     1       0.739  14.037  20.616  0.00  0.00    +0.000 HD
ENDBRANCH   5   6
BRANCH   5   9
ATOM      9  C   UNL     1      -0.850  11.119  20.504  0.00  0.00    +0.000 C 
BRANCH   9  10
ATOM     10  C   UNL     1      -2.054  11.544  19.696  0.00  0.00    +0.000 A 
ATOM     11  C   UNL     1      -3.061  12.467  20.014  0.00  0.00    +0.000 A 
ATOM     12  N   UNL     1      -3.952  12.557  19.009  0.00  0.00    +0.000 N 
ATOM     13  C   UNL     1      -3.536  11.706  18.060  0.00  0.00    +0.000 A 
ATOM     14  C   UNL     1      -4.146  11.461  16.836  0.00  0.00    +0.000 A 
ATOM     15  C   UNL     1      -3.541  10.522  15.982  0.00  0.00    +0.000 A 
ATOM     16  C   UNL     1      -2.356   9.859  16.371  0.00  0.00    +0.000 A 
ATOM     17  C   UNL     1      -1.761  10.130  17.618  0.00  0.00    +0.000 A 
ATOM     18  C   UNL     1      -2.385  11.070  18.443  0.00  0.00    +0.000 A 
ATOM     19  H   UNL     1      -4.795  13.171  18.985  0.00  0.00    +0.000 HD
ENDBRANCH   9  10
ENDBRANCH   5   9
ENDBRANCH   1   5
BRANCH   3  20
ATOM     20  C   UNL     1       2.259   9.530  17.928  0.00  0.00    +0.000 C 
BRANCH  20  21
ATOM     21  C   UNL     1       1.964   8.032  17.876  0.00  0.00    +0.000 C 
BRANCH  21  22
ATOM     22  N   UNL     1       2.893   7.215  18.620  0.00  0.00    +0.000 N 
ATOM     23  H   UNL     1       3.229   7.632  19.496  0.00  0.00    +0.000 HD
BRANCH  22  24
ATOM     24  C   UNL     1       3.257   5.851  18.284  0.00  0.00    +0.000 A 
ATOM     25  C   UNL     1       4.192   5.503  17.233  0.00  0.00    +0.000 A 
ATOM     26  C   UNL     1       4.508   4.131  17.026  0.00  0.00    +0.000 A 
ATOM     27  N   UNL     1       3.888   3.170  17.737  0.00  0.00    +0.000 NA
ATOM     28  C   UNL     1       2.973   3.436  18.697  0.00  0.00    +0.000 A 
ATOM     29  C   UNL     1       2.374   2.357  19.355  0.00  0.00    +0.000 A 
ATOM     30  C   UNL     1       1.412   2.581  20.337  0.00  0.00    +0.000 A 
ATOM     31  C   UNL     1       1.049   3.884  20.665  0.00  0.00    +0.000 A 
ATOM     32  C   UNL     1       1.650   4.969  20.017  0.00  0.00    +0.000 A 
ATOM     33  C   UNL     1       2.633   4.773  19.012  0.00  0.00    +0.000 A 
ATOM     34  C   UNL     1       5.543   3.664  16.023  0.00  0.00    +0.000 C 
ATOM     35  C   UNL     1       6.453   4.781  15.515  0.00  0.00    +0.000 C 
ATOM     36  C   UNL     1       5.599   5.956  15.115  0.00  0.00    +0.000 C 
ATOM     37  C   UNL     1       4.893   6.527  16.349  0.00  0.00    +0.000 C 
ENDBRANCH  22  24
ENDBRANCH  21  22
ENDBRANCH  20  21
ENDBRANCH   3  20
TORSDOF 8
ENDMDL
MODEL 7
REMARK VINA RESULT:      -8.7      1.889      3.710
REMARK  Name = 
REMARK  8 active torsions:
REMARK  status: ('A' for Active; 'I' for Inactive)
REMARK    1  A    between atoms: N_1  and  C_2
REMARK    2  A    between atoms: C_2  and  C_3
REMARK    3  A    between atoms: C_2  and  C_13
REMARK    4  A    between atoms: C_3  and  C_4
REMARK    5  A    between atoms: N_15  and  C_16
REMARK    6  A    between atoms: C_16  and  C_17
REMARK    7  A    between atoms: C_17  and  N_18
REMARK    8  A    between atoms: N_18  and  C_19
REMARK                            x       y       z     vdW  Elec       q    Type
REMARK                         _______ _______ _______ _____ _____    ______ ____
ROOT
ATOM      1  C   UNL     1       1.102  11.300  19.000  0.00  0.00    +0.000 C 
ATOM      2  O   UNL     1       2.031  11.693  18.309  0.00  0.00    +0.000 OA
ATOM      3  N   UNL     1       0.951   9.971  19.239  0.00  0.00    +0.000 N 
ATOM      4  H   UNL     1       0.196   9.679  19.881  0.00  0.00    +0.000 HD
ENDROOT
BRANCH   1   5
ATOM      5  C   UNL     1       0.113  12.288  19.622  0.00  0.00    +0.000 C 
BRANCH   5   6
ATOM      6  N   UNL     1      -0.319  13.367  18.723  0.00  0.00    +0.000 NA
ATOM      7  H   UNL     1      -1.234  13.768  19.025  0.00  0.00    +0.000 HD
ATOM      8  H   UNL     1       0.386  14.127  18.608  0.00  0.00    +0.000 HD
ENDBRANCH   5   6
BRANCH   5   9
ATOM      9  C   UNL     1      -1.130  11.564  20.176  0.00  0.00    +0.000 C 
BRANCH   9  10
ATOM     10  C   UNL     1      -2.405  11.777  19.393  0.00  0.00    +0.000 A 
ATOM     11  C   UNL     1      -3.536  12.539  19.721  0.00  0.00    +0.000 A 
ATOM     12  N   UNL     1      -4.455  12.465  18.740  0.00  0.00    +0.000 N 
ATOM     13  C   UNL     1      -3.934  11.667  17.797  0.00  0.00    +0.000 A 
ATOM     14  C   UNL     1      -4.528  11.300  16.595  0.00  0.00    +0.000 A 
ATOM     15  C   UNL     1      -3.806  10.447  15.744  0.00  0.00    +0.000 A 
ATOM     16  C   UNL     1      -2.522   9.986  16.112  0.00  0.00    +0.000 A 
ATOM     17  C   UNL     1      -1.946  10.377  17.337  0.00  0.00    +0.000 A 
ATOM     18  C   UNL     1      -2.688  11.228  18.160  0.00  0.00    +0.000 A 
ATOM     19  H   UNL     1      -5.384  12.939  18.728  0.00  0.00    +0.000 HD
ENDBRANCH   9  10
ENDBRANCH   5   9
ENDBRANCH   1   5
BRANCH   3  20
ATOM     20  C   UNL     1       1.850   8.955  18.715  0.00  0.00    +0.000 C 
BRANCH  20  21
ATOM     21  C   UNL     1       1.898   7.796  19.709  0.00  0.00    +0.000 C 
BRANCH  21  22
ATOM     22  N   UNL     1       3.102   7.002  19.641  0.00  0.00    +0.000 N 
ATOM     23  H   UNL     1       3.887   7.359  20.199  0.00  0.00    +0.000 HD
BRANCH  22  24
ATOM     24  C   UNL     1       3.219   5.720  18.971  0.00  0.00    +0.000 A 
ATOM     25  C   UNL     1       2.619   4.497  19.465  0.00  0.00    +0.000 A 
ATOM     26  C   UNL     1       2.761   3.308  18.697  0.00  0.00    +0.000 A 
ATOM     27  N   UNL     1       3.507   3.301  17.576  0.00  0.00    +0.000 NA
ATOM     28  C   UNL     1       4.127   4.402  17.095  0.00  0.00    +0.000 A 
ATOM     29  C   UNL     1       4.898   4.273  15.935  0.00  0.00    +0.000 A 
ATOM     30  C   UNL     1       5.571   5.374  15.414  0.00  0.00    +0.000 A 
ATOM     31  C   UNL     1       5.473   6.609  16.049  0.00  0.00    +0.000 A 
ATOM     32  C   UNL     1       4.698   6.749  17.205  0.00  0.00    +0.000 A 
ATOM     33  C   UNL     1       4.000   5.644  17.761  0.00  0.00    +0.000 A 
ATOM     34  C   UNL     1       2.094   1.999  19.069  0.00  0.00    +0.000 C 
ATOM     35  C   UNL     1       0.994   2.147  20.120  0.00  0.00    +0.000 C 
ATOM     36  C   UNL     1       1.519   2.991  21.252  0.00  0.00    +0.000 C 
ATOM     37  C   UNL     1       1.806   4.410  20.751  0.00  0.00    +0.000 C 
ENDBRANCH  22  24
ENDBRANCH  21  22
ENDBRANCH  20  21
ENDBRANCH   3  20
TORSDOF 8
ENDMDL
MODEL 8
REMARK VINA RESULT:      -8.6      3.372      6.075
REMARK  Name = 
REMARK  8 active torsions:
REMARK  status: ('A' for Active; 'I' for Inactive)
REMARK    1  A    between atoms: N_1  and  C_2
REMARK    2  A    between atoms: C_2  and  C_3
REMARK    3  A    between atoms: C_2  and  C_13
REMARK    4  A    between atoms: C_3  and  C_4
REMARK    5  A    between atoms: N_15  and  C_16
REMARK    6  A    between atoms: C_16  and  C_17
REMARK    7  A    between atoms: C_17  and  N_18
REMARK    8  A    between atoms: N_18  and  C_19
REMARK                            x       y       z     vdW  Elec       q    Type
REMARK                         _______ _______ _______ _____ _____    ______ ____
ROOT
ATOM      1  C   UNL     1       1.667   3.112  19.198  0.00  0.00    +0.000 C 
ATOM      2  O   UNL     1       0.963   3.127  18.200  0.00  0.00    +0.000 OA
ATOM      3  N   UNL     1       2.855   2.450  19.180  0.00  0.00    +0.000 N 
ATOM      4  H   UNL     1       3.455   2.514  20.018  0.00  0.00    +0.000 HD
ENDROOT
BRANCH   1   5
ATOM      5  C   UNL     1       1.243   3.849  20.470  0.00  0.00    +0.000 C 
BRANCH   5   6
ATOM      6  N   UNL     1       1.079   2.988  21.649  0.00  0.00    +0.000 NA
ATOM      7  H   UNL     1       0.266   2.344  21.538  0.00  0.00    +0.000 HD
ATOM      8  H   UNL     1       1.935   2.448  21.898  0.00  0.00    +0.000 HD
ENDBRANCH   5   6
BRANCH   5   9
ATOM      9  C   UNL     1       2.222   4.990  20.810  0.00  0.00    +0.000 C 
BRANCH   9  10
ATOM     10  C   UNL     1       2.208   6.162  19.856  0.00  0.00    +0.000 A 
ATOM     11  C   UNL     1       2.691   6.247  18.541  0.00  0.00    +0.000 A 
ATOM     12  N   UNL     1       2.476   7.477  18.039  0.00  0.00    +0.000 N 
ATOM     13  C   UNL     1       1.871   8.178  19.009  0.00  0.00    +0.000 A 
ATOM     14  C   UNL     1       1.457   9.504  18.944  0.00  0.00    +0.000 A 
ATOM     15  C   UNL     1       0.840  10.051  20.083  0.00  0.00    +0.000 A 
ATOM     16  C   UNL     1       0.656   9.268  21.244  0.00  0.00    +0.000 A 
ATOM     17  C   UNL     1       1.085   7.927  21.278  0.00  0.00    +0.000 A 
ATOM     18  C   UNL     1       1.693   7.412  20.130  0.00  0.00    +0.000 A 
ATOM     19  H   UNL     1       2.733   7.808  17.084  0.00  0.00    +0.000 HD
ENDBRANCH   9  10
ENDBRANCH   5   9
ENDBRANCH   1   5
BRANCH   3  20
ATOM     20  C   UNL     1       3.359   1.740  18.016  0.00  0.00    +0.000 C 
BRANCH  20  21
ATOM     21  C   UNL     1       3.584   2.753  16.894  0.00  0.00    +0.000 C 
BRANCH  21  22
ATOM     22  N   UNL     1       4.861   2.635  16.231  0.00  0.00    +0.000 N 
ATOM     23  H   UNL     1       5.049   1.714  15.816  0.00  0.00    +0.000 HD
BRANCH  22  24
ATOM     24  C   UNL     1       5.791   3.727  16.012  0.00  0.00    +0.000 A 
ATOM     25  C   UNL     1       6.258   4.609  17.063  0.00  0.00    +0.000 A 
ATOM     26  C   UNL     1       7.207   5.617  16.737  0.00  0.00    +0.000 A 
ATOM     27  N   UNL     1       7.601   5.802  15.462  0.00  0.00    +0.000 NA
ATOM     28  C   UNL     1       7.160   5.039  14.436  0.00  0.00    +0.000 A 
ATOM     29  C   UNL     1       7.617   5.337  13.148  0.00  0.00    +0.000 A 
ATOM     30  C   UNL     1       7.177   4.592  12.058  0.00  0.00    +0.000 A 
ATOM     31  C   UNL     1       6.280   3.544  12.252  0.00  0.00    +0.000 A 
ATOM     32  C   UNL     1       5.826   3.234  13.538  0.00  0.00    +0.000 A 
ATOM     33  C   UNL     1       6.256   3.976  14.670  0.00  0.00    +0.000 A 
ATOM     34  C   UNL     1       7.835   6.528  17.773  0.00  0.00    +0.000 C 
ATOM     35  C   UNL     1       7.635   6.051  19.210  0.00  0.00    +0.000 C 
ATOM     36  C   UNL     1       6.184   5.696  19.405  0.00  0.00    +0.000 C 
ATOM     37  C   UNL     1       5.820   4.500  18.518  0.00  0.00    +0.000 C 
ENDBRANCH  22  24
ENDBRANCH  21  22
ENDBRANCH  20  21
ENDBRANCH   3  20
TORSDOF 8
ENDMDL
MODEL 9
REMARK VINA RESULT:      -8.6      1.853      2.477
REMARK  Name = 
REMARK  8 active torsions:
REMARK  status: ('A' for Active; 'I' for Inactive)
REMARK    1  A    between atoms: N_1  and  C_2
REMARK    2  A    between atoms: C_2  and  C_3
REMARK    3  A    between atoms: C_2  and  C_13
REMARK    4  A    between atoms: C_3  and  C_4
REMARK    5  A    between atoms: N_15  and  C_16
REMARK    6  A    between atoms: C_16  and  C_17
REMARK    7  A    between atoms: C_17  and  N_18
REMARK    8  A    between atoms: N_18  and  C_19
REMARK                            x       y       z     vdW  Elec       q    Type
REMARK                         _______ _______ _______ _____ _____    ______ ____
ROOT
ATOM      1  C   UNL     1       0.500  10.085  19.523  0.00  0.00    +0.000 C 
ATOM      2  O   UNL     1       1.071   9.382  20.343  0.00  0.00    +0.000 OA
ATOM      3  N   UNL     1       1.001  10.203  18.265  0.00  0.00    +0.000 N 
ATOM      4  H   UNL     1       0.457  10.751  17.579  0.00  0.00    +0.000 HD
ENDROOT
BRANCH   1   5
ATOM      5  C   UNL     1      -0.792  10.821  19.884  0.00  0.00    +0.000 C 
BRANCH   5   6
ATOM      6  N   UNL     1      -0.779  11.466  21.205  0.00  0.00    +0.000 NA
ATOM      7  H   UNL     1      -1.212  10.853  21.929  0.00  0.00    +0.000 HD
ATOM      8  H   UNL     1       0.168  11.774  21.513  0.00  0.00    +0.000 HD
ENDBRANCH   5   6
BRANCH   5   9
ATOM      9  C   UNL     1      -1.160  11.868  18.815  0.00  0.00    +0.000 C 
BRANCH   9  10
ATOM     10  C   UNL     1      -2.419  11.578  18.031  0.00  0.00    +0.000 A 
ATOM     11  C   UNL     1      -2.563  11.057  16.736  0.00  0.00    +0.000 A 
ATOM     12  N   UNL     1      -3.866  10.950  16.414  0.00  0.00    +0.000 N 
ATOM     13  C   UNL     1      -4.553  11.396  17.475  0.00  0.00    +0.000 A 
ATOM     14  C   UNL     1      -5.936  11.472  17.599  0.00  0.00    +0.000 A 
ATOM     15  C   UNL     1      -6.455  11.976  18.804  0.00  0.00    +0.000 A 
ATOM     16  C   UNL     1      -5.590  12.387  19.842  0.00  0.00    +0.000 A 
ATOM     17  C   UNL     1      -4.192  12.295  19.686  0.00  0.00    +0.000 A 
ATOM     18  C   UNL     1      -3.707  11.788  18.478  0.00  0.00    +0.000 A 
ATOM     19  H   UNL     1      -4.251  10.589  15.514  0.00  0.00    +0.000 HD
ENDBRANCH   9  10
ENDBRANCH   5   9
ENDBRANCH   1   5
BRANCH   3  20
ATOM     20  C   UNL     1       2.207   9.527  17.816  0.00  0.00    +0.000 C 
BRANCH  20  21
ATOM     21  C   UNL     1       1.935   8.023  17.790  0.00  0.00    +0.000 C 
BRANCH  21  22
ATOM     22  N   UNL     1       2.858   7.237  18.574  0.00  0.00    +0.000 N 
ATOM     23  H   UNL     1       3.160   7.675  19.453  0.00  0.00    +0.000 HD
BRANCH  22  24
ATOM     24  C   UNL     1       3.257   5.875  18.272  0.00  0.00    +0.000 A 
ATOM     25  C   UNL     1       4.198   5.526  17.226  0.00  0.00    +0.000 A 
ATOM     26  C   UNL     1       4.550   4.158  17.053  0.00  0.00    +0.000 A 
ATOM     27  N   UNL     1       3.959   3.199  17.791  0.00  0.00    +0.000 NA
ATOM     28  C   UNL     1       3.041   3.465  18.748  0.00  0.00    +0.000 A 
ATOM     29  C   UNL     1       2.473   2.388  19.436  0.00  0.00    +0.000 A 
ATOM     30  C   UNL     1       1.510   2.610  20.415  0.00  0.00    +0.000 A 
ATOM     31  C   UNL     1       1.112   3.912  20.712  0.00  0.00    +0.000 A 
ATOM     32  C   UNL     1       1.681   4.995  20.034  0.00  0.00    +0.000 A 
ATOM     33  C   UNL     1       2.666   4.800  19.030  0.00  0.00    +0.000 A 
ATOM     34  C   UNL     1       5.594   3.693  16.058  0.00  0.00    +0.000 C 
ATOM     35  C   UNL     1       6.471   4.821  15.517  0.00  0.00    +0.000 C 
ATOM     36  C   UNL     1       5.584   5.961  15.091  0.00  0.00    +0.000 C 
ATOM     37  C   UNL     1       4.868   6.545  16.313  0.00  0.00    +0.000 C 
ENDBRANCH  22  24
ENDBRANCH  21  22
ENDBRANCH  20  21
ENDBRANCH   3  20
TORSDOF 8
ENDMDL
