MODEL 1
REMARK VINA RESULT:      -7.4      0.000      0.000
REMARK  Name = 
REMARK  7 active torsions:
REMARK  status: ('A' for Active; 'I' for Inactive)
REMARK    1  A    between atoms: C_1  and  C_2
REMARK    2  A    between atoms: C_2  and  N_3
REMARK    3  A    between atoms: N_3  and  C_4
REMARK    4  A    between atoms: N_3  and  S_11
REMARK    5  A    between atoms: C_9  and  C_10
REMARK    6  A    between atoms: S_11  and  C_14
REMARK    7  A    between atoms: N_22  and  C_23
REMARK                            x       y       z     vdW  Elec       q    Type
REMARK                         _______ _______ _______ _____ _____    ______ ____
ROOT
ATOM      1  S   UNL     1       3.598   4.252  18.532  0.00  0.00    +0.000 S 
ATOM      2  O   UNL     1       2.956   3.861  17.294  0.00  0.00    +0.000 OA
ATOM      3  O   UNL     1       3.712   3.308  19.626  0.00  0.00    +0.000 OA
ENDROOT
BRANCH   1   4
ATOM      4  C   UNL     1       2.692   5.658  19.176  0.00  0.00    +0.000 A 
ATOM      5  C   UNL     1       2.140   5.594  20.478  0.00  0.00    +0.000 A 
ATOM      6  C   UNL     1       1.503   6.709  21.042  0.00  0.00    +0.000 A 
ATOM      7  C   UNL     1       1.438   7.860  20.279  0.00  0.00    +0.000 A 
ATOM      8  C   UNL     1       1.998   7.929  19.014  0.00  0.00    +0.000 A 
ATOM      9  C   UNL     1       2.650   6.852  18.437  0.00  0.00    +0.000 A 
ATOM     10  C   UNL     1       1.738   9.273  18.492  0.00  0.00    +0.000 C 
ATOM     11  O   UNL     1       2.091   9.653  17.395  0.00  0.00    +0.000 OA
ATOM     12  N   UNL     1       1.030   9.937  19.459  0.00  0.00    +0.000 N 
ATOM     13  C   UNL     1       0.520  11.280  19.326  0.00  0.00    +0.000 C 
ATOM     14  C   UNL     1       0.816   9.154  20.562  0.00  0.00    +0.000 C 
ATOM     15  O   UNL     1       0.222   9.419  21.588  0.00  0.00    +0.000 OA
ENDBRANCH   1   4
BRANCH   1  16
ATOM     16  N   UNL     1       5.130   4.858  18.214  0.00  0.00    +0.000 N 
BRANCH  16  17
ATOM     17  C   UNL     1       5.570   4.855  16.870  0.00  0.00    +0.000 A 
ATOM     18  N   UNL     1       6.019   3.655  16.439  0.00  0.00    +0.000 NA
ATOM     19  C   UNL     1       6.343   3.601  15.123  0.00  0.00    +0.000 A 
ATOM     20  C   UNL     1       6.207   4.680  14.271  0.00  0.00    +0.000 A 
ATOM     21  N   UNL     1       5.753   5.879  14.693  0.00  0.00    +0.000 NA
ATOM     22  C   UNL     1       5.434   5.962  16.014  0.00  0.00    +0.000 A 
ATOM     23  C   UNL     1       4.933   7.292  16.487  0.00  0.00    +0.000 C 
ENDBRANCH  16  17
BRANCH  16  25
ATOM     24  C   UNL     1       7.436   5.581  18.926  0.00  0.00    +0.000 C 
ATOM     25  C   UNL     1       6.005   5.258  19.328  0.00  0.00    +0.000 C 
ENDBRANCH  16  25
ENDBRANCH   1  16
TORSDOF 4
ENDMDL
MODEL 2
REMARK VINA RESULT:      -7.3      1.196      2.202
REMARK  Name = 
REMARK  7 active torsions:
REMARK  status: ('A' for Active; 'I' for Inactive)
REMARK    1  A    between atoms: C_1  and  C_2
REMARK    2  A    between atoms: C_2  and  N_3
REMARK    3  A    between atoms: N_3  and  C_4
REMARK    4  A    between atoms: N_3  and  S_11
REMARK    5  A    between atoms: C_9  and  C_10
REMARK    6  A    between atoms: S_11  and  C_14
REMARK    7  A    between atoms: N_22  and  C_23
REMARK                            x       y       z     vdW  Elec       q    Type
REMARK                         _______ _______ _______ _____ _____    ______ ____
ROOT
ATOM      1  S   UNL     1       4.107   3.570  18.308  0.00  0.00    +0.000 S 
ATOM      2  O   UNL     1       3.158   2.729  17.611  0.00  0.00    +0.000 OA
ATOM      3  O   UNL     1       4.911   3.028  19.386  0.00  0.00    +0.000 OA
ENDROOT
BRANCH   1   4
ATOM      4  C   UNL     1       3.184   4.937  19.011  0.00  0.00    +0.000 A 
ATOM      5  C   UNL     1       2.729   4.855  20.349  0.00  0.00    +0.000 A 
ATOM      6  C   UNL     1       2.082   5.942  20.954  0.00  0.00    +0.000 A 
ATOM      7  C   UNL     1       1.912   7.085  20.194  0.00  0.00    +0.000 A 
ATOM      8  C   UNL     1       2.378   7.174  18.893  0.00  0.00    +0.000 A 
ATOM      9  C   UNL     1       3.036   6.124  18.274  0.00  0.00    +0.000 A 
ATOM     10  C   UNL     1       2.021   8.501  18.388  0.00  0.00    +0.000 C 
ATOM     11  O   UNL     1       2.279   8.891  17.267  0.00  0.00    +0.000 OA
ATOM     12  N   UNL     1       1.352   9.138  19.400  0.00  0.00    +0.000 N 
ATOM     13  C   UNL     1       0.774  10.455  19.300  0.00  0.00    +0.000 C 
ATOM     14  C   UNL     1       1.252   8.351  20.517  0.00  0.00    +0.000 C 
ATOM     15  O   UNL     1       0.719   8.594  21.581  0.00  0.00    +0.000 OA
ENDBRANCH   1   4
BRANCH   1  16
ATOM     16  N   UNL     1       5.146   4.295  17.208  0.00  0.00    +0.000 N 
BRANCH  16  17
ATOM     17  C   UNL     1       6.070   5.244  17.705  0.00  0.00    +0.000 A 
ATOM     18  N   UNL     1       6.909   4.754  18.644  0.00  0.00    +0.000 NA
ATOM     19  C   UNL     1       7.874   5.614  19.057  0.00  0.00    +0.000 A 
ATOM     20  C   UNL     1       8.012   6.890  18.545  0.00  0.00    +0.000 A 
ATOM     21  N   UNL     1       7.182   7.382  17.601  0.00  0.00    +0.000 NA
ATOM     22  C   UNL     1       6.195   6.542  17.182  0.00  0.00    +0.000 A 
ATOM     23  C   UNL     1       5.270   7.085  16.137  0.00  0.00    +0.000 C 
ENDBRANCH  16  17
BRANCH  16  25
ATOM     24  C   UNL     1       6.294   3.707  15.044  0.00  0.00    +0.000 C 
ATOM     25  C   UNL     1       4.995   4.022  15.770  0.00  0.00    +0.000 C 
ENDBRANCH  16  25
ENDBRANCH   1  16
TORSDOF 4
ENDMDL
MODEL 3
REMARK VINA RESULT:      -7.2      2.783      7.045
REMARK  Name = 
REMARK  7 active torsions:
REMARK  status: ('A' for Active; 'I' for Inactive)
REMARK    1  A    between atoms: C_1  and  C_2
REMARK    2  A    between atoms: C_2  and  N_3
REMARK    3  A    between atoms: N_3  and  C_4
REMARK    4  A    between atoms: N_3  and  S_11
REMARK    5  A    between atoms: C_9  and  C_10
REMARK    6  A    between atoms: S_11  and  C_14
REMARK    7  A    between atoms: N_22  and  C_23
REMARK                            x       y       z     vdW  Elec       q    Type
REMARK                         _______ _______ _______ _____ _____    ______ ____
ROOT
ATOM      1  S   UNL     1       4.372   3.495  18.516  0.00  0.00    +0.000 S 
ATOM      2  O   UNL     1       4.969   4.007  19.732  0.00  0.00    +0.000 OA
ATOM      3  O   UNL     1       4.228   2.067  18.318  0.00  0.00    +0.000 OA
ENDROOT
BRANCH   1   4
ATOM      4  C   UNL     1       5.364   4.093  17.148  0.00  0.00    +0.000 A 
ATOM      5  C   UNL     1       6.472   4.935  17.407  0.00  0.00    +0.000 A 
ATOM      6  C   UNL     1       7.318   5.346  16.366  0.00  0.00    +0.000 A 
ATOM      7  C   UNL     1       7.026   4.896  15.092  0.00  0.00    +0.000 A 
ATOM      8  C   UNL     1       5.956   4.053  14.843  0.00  0.00    +0.000 A 
ATOM      9  C   UNL     1       5.112   3.616  15.850  0.00  0.00    +0.000 A 
ATOM     10  C   UNL     1       5.931   3.789  13.402  0.00  0.00    +0.000 C 
ATOM     11  O   UNL     1       5.102   3.089  12.856  0.00  0.00    +0.000 OA
ATOM     12  N   UNL     1       6.975   4.490  12.858  0.00  0.00    +0.000 N 
ATOM     13  C   UNL     1       7.278   4.550  11.450  0.00  0.00    +0.000 C 
ATOM     14  C   UNL     1       7.680   5.175  13.813  0.00  0.00    +0.000 C 
ATOM     15  O   UNL     1       8.648   5.897  13.681  0.00  0.00    +0.000 OA
ENDBRANCH   1   4
BRANCH   1  16
ATOM     16  N   UNL     1       2.869   4.201  18.276  0.00  0.00    +0.000 N 
BRANCH  16  17
ATOM     17  C   UNL     1       2.665   5.501  18.796  0.00  0.00    +0.000 A 
ATOM     18  N   UNL     1       2.869   6.491  17.899  0.00  0.00    +0.000 NA
ATOM     19  C   UNL     1       2.575   7.739  18.343  0.00  0.00    +0.000 A 
ATOM     20  C   UNL     1       2.079   7.988  19.609  0.00  0.00    +0.000 A 
ATOM     21  N   UNL     1       1.865   7.003  20.506  0.00  0.00    +0.000 NA
ATOM     22  C   UNL     1       2.169   5.742  20.088  0.00  0.00    +0.000 A 
ATOM     23  C   UNL     1       1.937   4.647  21.083  0.00  0.00    +0.000 C 
ENDBRANCH  16  17
BRANCH  16  25
ATOM     24  C   UNL     1       0.988   2.559  18.613  0.00  0.00    +0.000 C 
ATOM     25  C   UNL     1       1.787   3.425  17.650  0.00  0.00    +0.000 C 
ENDBRANCH  16  25
ENDBRANCH   1  16
TORSDOF 4
ENDMDL
MODEL 4
REMARK VINA RESULT:      -7.1      2.795      7.921
REMARK  Name = 
REMARK  7 active torsions:
REMARK  status: ('A' for Active; 'I' for Inactive)
REMARK    1  A    between atoms: C_1  and  C_2
REMARK    2  A    between atoms: C_2  and  N_3
REMARK    3  A    between atoms: N_3  and  C_4
REMARK    4  A    between atoms: N_3  and  S_11
REMARK    5  A    between atoms: C_9  and  C_10
REMARK    6  A    between atoms: S_11  and  C_14
REMARK    7  A    between atoms: N_22  and  C_23
REMARK                            x       y       z     vdW  Elec       q    Type
REMARK                         _______ _______ _______ _____ _____    ______ ____
ROOT
ATOM      1  S   UNL     1       0.458   9.033  21.562  0.00  0.00    +0.000 S 
ATOM      2  O   UNL     1       1.405   9.486  22.559  0.00  0.00    +0.000 OA
ATOM      3  O   UNL     1      -0.695   8.247  21.953  0.00  0.00    +0.000 OA
ENDROOT
BRANCH   1   4
ATOM      4  C   UNL     1       1.368   8.034  20.384  0.00  0.00    +0.000 A 
ATOM      5  C   UNL     1       1.868   8.632  19.203  0.00  0.00    +0.000 A 
ATOM      6  C   UNL     1       2.659   7.898  18.307  0.00  0.00    +0.000 A 
ATOM      7  C   UNL     1       2.925   6.579  18.625  0.00  0.00    +0.000 A 
ATOM      8  C   UNL     1       2.455   6.001  19.793  0.00  0.00    +0.000 A 
ATOM      9  C   UNL     1       1.688   6.704  20.706  0.00  0.00    +0.000 A 
ATOM     10  C   UNL     1       2.907   4.607  19.805  0.00  0.00    +0.000 C 
ATOM     11  O   UNL     1       2.651   3.820  20.694  0.00  0.00    +0.000 OA
ATOM     12  N   UNL     1       3.613   4.415  18.647  0.00  0.00    +0.000 N 
ATOM     13  C   UNL     1       4.189   3.158  18.235  0.00  0.00    +0.000 C 
ATOM     14  C   UNL     1       3.670   5.556  17.891  0.00  0.00    +0.000 C 
ATOM     15  O   UNL     1       4.200   5.736  16.812  0.00  0.00    +0.000 OA
ENDBRANCH   1   4
BRANCH   1  16
ATOM     16  N   UNL     1      -0.091  10.337  20.660  0.00  0.00    +0.000 N 
BRANCH  16  17
ATOM     17  C   UNL     1       0.391  11.622  21.006  0.00  0.00    +0.000 A 
ATOM     18  N   UNL     1       1.452  12.027  20.274  0.00  0.00    +0.000 NA
ATOM     19  C   UNL     1       1.864  13.298  20.512  0.00  0.00    +0.000 A 
ATOM     20  C   UNL     1       1.237  14.133  21.417  0.00  0.00    +0.000 A 
ATOM     21  N   UNL     1       0.172  13.737  22.145  0.00  0.00    +0.000 NA
ATOM     22  C   UNL     1      -0.250  12.459  21.935  0.00  0.00    +0.000 A 
ATOM     23  C   UNL     1      -1.429  12.014  22.744  0.00  0.00    +0.000 C 
ENDBRANCH  16  17
BRANCH  16  25
ATOM     24  C   UNL     1      -0.888  10.890  18.335  0.00  0.00    +0.000 C 
ATOM     25  C   UNL     1      -1.126  10.135  19.634  0.00  0.00    +0.000 C 
ENDBRANCH  16  25
ENDBRANCH   1  16
TORSDOF 4
ENDMDL
MODEL 5
REMARK VINA RESULT:      -7.1      2.893      7.668
REMARK  Name = 
REMARK  7 active torsions:
REMARK  status: ('A' for Active; 'I' for Inactive)
REMARK    1  A    between atoms: C_1  and  C_2
REMARK    2  A    between atoms: C_2  and  N_3
REMARK    3  A    between atoms: N_3  and  C_4
REMARK    4  A    between atoms: N_3  and  S_11
REMARK    5  A    between atoms: C_9  and  C_10
REMARK    6  A    between atoms: S_11  and  C_14
REMARK    7  A    between atoms: N_22  and  C_23
REMARK                            x       y       z     vdW  Elec       q    Type
REMARK                         _______ _______ _______ _____ _____    ______ ____
ROOT
ATOM      1  S   UNL     1       0.546   9.912  20.535  0.00  0.00    +0.000 S 
ATOM      2  O   UNL     1       1.430  10.473  21.535  0.00  0.00    +0.000 OA
ATOM      3  O   UNL     1      -0.732   9.349  20.923  0.00  0.00    +0.000 OA
ENDROOT
BRANCH   1   4
ATOM      4  C   UNL     1       1.444   8.596  19.713  0.00  0.00    +0.000 A 
ATOM      5  C   UNL     1       2.031   8.838  18.448  0.00  0.00    +0.000 A 
ATOM      6  C   UNL     1       2.814   7.857  17.823  0.00  0.00    +0.000 A 
ATOM      7  C   UNL     1       2.984   6.657  18.488  0.00  0.00    +0.000 A 
ATOM      8  C   UNL     1       2.429   6.429  19.736  0.00  0.00    +0.000 A 
ATOM      9  C   UNL     1       1.666   7.384  20.388  0.00  0.00    +0.000 A 
ATOM     10  C   UNL     1       2.793   5.068  20.137  0.00  0.00    +0.000 C 
ATOM     11  O   UNL     1       2.450   4.556  21.183  0.00  0.00    +0.000 OA
ATOM     12  N   UNL     1       3.536   4.545  19.112  0.00  0.00    +0.000 N 
ATOM     13  C   UNL     1       4.051   3.198  19.076  0.00  0.00    +0.000 C 
ATOM     14  C   UNL     1       3.697   5.442  18.090  0.00  0.00    +0.000 C 
ATOM     15  O   UNL     1       4.284   5.307  17.035  0.00  0.00    +0.000 OA
ENDBRANCH   1   4
BRANCH   1  16
ATOM     16  N   UNL     1       0.264  11.039  19.324  0.00  0.00    +0.000 N 
BRANCH  16  17
ATOM     17  C   UNL     1      -1.009  11.031  18.705  0.00  0.00    +0.000 A 
ATOM     18  N   UNL     1      -1.122  10.144  17.692  0.00  0.00    +0.000 NA
ATOM     19  C   UNL     1      -2.364  10.041  17.155  0.00  0.00    +0.000 A 
ATOM     20  C   UNL     1      -3.445  10.767  17.617  0.00  0.00    +0.000 A 
ATOM     21  N   UNL     1      -3.340  11.649  18.634  0.00  0.00    +0.000 NA
ATOM     22  C   UNL     1      -2.098  11.781  19.179  0.00  0.00    +0.000 A 
ATOM     23  C   UNL     1      -1.976  12.761  20.305  0.00  0.00    +0.000 C 
ENDBRANCH  16  17
BRANCH  16  25
ATOM     24  C   UNL     1       1.419  13.266  19.548  0.00  0.00    +0.000 C 
ATOM     25  C   UNL     1       1.357  11.909  18.864  0.00  0.00    +0.000 C 
ENDBRANCH  16  25
ENDBRANCH   1  16
TORSDOF 4
ENDMDL
MODEL 6
REMARK VINA RESULT:      -7.0      2.972      4.525
REMARK  Name = 
REMARK  7 active torsions:
REMARK  status: ('A' for Active; 'I' for Inactive)
REMARK    1  A    between atoms: C_1  and  C_2
REMARK    2  A    between atoms: C_2  and  N_3
REMARK    3  A    between atoms: N_3  and  C_4
REMARK    4  A    between atoms: N_3  and  S_11
REMARK    5  A    between atoms: C_9  and  C_10
REMARK    6  A    between atoms: S_11  and  C_14
REMARK    7  A    between atoms: N_22  and  C_23
REMARK                            x       y       z     vdW  Elec       q    Type
REMARK                         _______ _______ _______ _____ _____    ______ ____
ROOT
ATOM      1  S   UNL     1       5.927   6.736  16.582  0.00  0.00    +0.000 S 
ATOM      2  O   UNL     1       6.738   7.686  17.316  0.00  0.00    +0.000 OA
ATOM      3  O   UNL     1       5.217   7.150  15.388  0.00  0.00    +0.000 OA
ENDROOT
BRANCH   1   4
ATOM      4  C   UNL     1       4.683   6.117  17.715  0.00  0.00    +0.000 A 
ATOM      5  C   UNL     1       3.456   6.811  17.848  0.00  0.00    +0.000 A 
ATOM      6  C   UNL     1       2.431   6.302  18.659  0.00  0.00    +0.000 A 
ATOM      7  C   UNL     1       2.669   5.109  19.314  0.00  0.00    +0.000 A 
ATOM      8  C   UNL     1       3.860   4.419  19.166  0.00  0.00    +0.000 A 
ATOM      9  C   UNL     1       4.885   4.885  18.359  0.00  0.00    +0.000 A 
ATOM     10  C   UNL     1       3.780   3.218  20.001  0.00  0.00    +0.000 C 
ATOM     11  O   UNL     1       4.674   2.402  20.101  0.00  0.00    +0.000 OA
ATOM     12  N   UNL     1       2.555   3.250  20.614  0.00  0.00    +0.000 N 
ATOM     13  C   UNL     1       2.091   2.276  21.571  0.00  0.00    +0.000 C 
ATOM     14  C   UNL     1       1.831   4.353  20.247  0.00  0.00    +0.000 C 
ATOM     15  O   UNL     1       0.722   4.697  20.605  0.00  0.00    +0.000 OA
ENDBRANCH   1   4
BRANCH   1  16
ATOM     16  N   UNL     1       6.842   5.384  16.193  0.00  0.00    +0.000 N 
BRANCH  16  17
ATOM     17  C   UNL     1       6.858   4.972  14.840  0.00  0.00    +0.000 A 
ATOM     18  N   UNL     1       7.861   5.513  14.112  0.00  0.00    +0.000 NA
ATOM     19  C   UNL     1       7.963   5.050  12.841  0.00  0.00    +0.000 A 
ATOM     20  C   UNL     1       7.125   4.080  12.325  0.00  0.00    +0.000 A 
ATOM     21  N   UNL     1       6.127   3.530  13.049  0.00  0.00    +0.000 NA
ATOM     22  C   UNL     1       5.995   3.991  14.325  0.00  0.00    +0.000 A 
ATOM     23  C   UNL     1       4.887   3.387  15.130  0.00  0.00    +0.000 C 
ENDBRANCH  16  17
BRANCH  16  25
ATOM     24  C   UNL     1       8.022   5.441  18.418  0.00  0.00    +0.000 C 
ATOM     25  C   UNL     1       7.493   4.608  17.260  0.00  0.00    +0.000 C 
ENDBRANCH  16  25
ENDBRANCH   1  16
TORSDOF 4
ENDMDL
MODEL 7
REMARK VINA RESULT:      -7.0      1.578      1.943
REMARK  Name = 
REMARK  7 active torsions:
REMARK  status: ('A' for Active; 'I' for Inactive)
REMARK    1  A    between atoms: C_1  and  C_2
REMARK    2  A    between atoms: C_2  and  N_3
REMARK    3  A    between atoms: N_3  and  C_4
REMARK    4  A    between atoms: N_3  and  S_11
REMARK    5  A    between atoms: C_9  and  C_10
REMARK    6  A    between atoms: S_11  and  C_14
REMARK    7  A    between atoms: N_22  and  C_23
REMARK                            x       y       z     vdW  Elec       q    Type
REMARK                         _______ _______ _______ _____ _____    ______ ____
ROOT
ATOM      1  S   UNL     1       2.408   3.269  17.837  0.00  0.00    +0.000 S 
ATOM      2  O   UNL     1       2.247   3.563  16.429  0.00  0.00    +0.000 OA
ATOM      3  O   UNL     1       1.623   2.220  18.459  0.00  0.00    +0.000 OA
ENDROOT
BRANCH   1   4
ATOM      4  C   UNL     1       2.035   4.774  18.738  0.00  0.00    +0.000 A 
ATOM      5  C   UNL     1       1.793   4.709  20.131  0.00  0.00    +0.000 A 
ATOM      6  C   UNL     1       1.587   5.879  20.877  0.00  0.00    +0.000 A 
ATOM      7  C   UNL     1       1.630   7.083  20.199  0.00  0.00    +0.000 A 
ATOM      8  C   UNL     1       1.889   7.147  18.840  0.00  0.00    +0.000 A 
ATOM      9  C   UNL     1       2.115   6.012  18.079  0.00  0.00    +0.000 A 
ATOM     10  C   UNL     1       1.848   8.558  18.451  0.00  0.00    +0.000 C 
ATOM     11  O   UNL     1       2.026   8.954  17.316  0.00  0.00    +0.000 OA
ATOM     12  N   UNL     1       1.557   9.269  19.586  0.00  0.00    +0.000 N 
ATOM     13  C   UNL     1       1.369  10.697  19.634  0.00  0.00    +0.000 C 
ATOM     14  C   UNL     1       1.417   8.451  20.675  0.00  0.00    +0.000 C 
ATOM     15  O   UNL     1       1.151   8.742  21.824  0.00  0.00    +0.000 OA
ENDBRANCH   1   4
BRANCH   1  16
ATOM     16  N   UNL     1       4.023   2.972  18.179  0.00  0.00    +0.000 N 
BRANCH  16  17
ATOM     17  C   UNL     1       4.992   3.710  17.459  0.00  0.00    +0.000 A 
ATOM     18  N   UNL     1       5.172   3.288  16.187  0.00  0.00    +0.000 NA
ATOM     19  C   UNL     1       6.015   4.048  15.444  0.00  0.00    +0.000 A 
ATOM     20  C   UNL     1       6.631   5.184  15.933  0.00  0.00    +0.000 A 
ATOM     21  N   UNL     1       6.449   5.615  17.199  0.00  0.00    +0.000 NA
ATOM     22  C   UNL     1       5.618   4.859  17.970  0.00  0.00    +0.000 A 
ATOM     23  C   UNL     1       5.416   5.332  19.376  0.00  0.00    +0.000 C 
ENDBRANCH  16  17
BRANCH  16  25
ATOM     24  C   UNL     1       4.376   2.291  20.579  0.00  0.00    +0.000 C 
ATOM     25  C   UNL     1       4.389   1.893  19.111  0.00  0.00    +0.000 C 
ENDBRANCH  16  25
ENDBRANCH   1  16
TORSDOF 4
ENDMDL
MODEL 8
REMARK VINA RESULT:      -7.0      1.854      3.313
REMARK  Name = 
REMARK  7 active torsions:
REMARK  status: ('A' for Active; 'I' for Inactive)
REMARK    1  A    between atoms: C_1  and  C_2
REMARK    2  A    between atoms: C_2  and  N_3
REMARK    3  A    between atoms: N_3  and  C_4
REMARK    4  A    between atoms: N_3  and  S_11
REMARK    5  A    between atoms: C_9  and  C_10
REMARK    6  A    between atoms: S_11  and  C_14
REMARK    7  A    between atoms: N_22  and  C_23
REMARK                            x       y       z     vdW  Elec       q    Type
REMARK                         _______ _______ _______ _____ _____    ______ ____
ROOT
ATOM      1  S   UNL     1       3.207   5.549  19.649  0.00  0.00    +0.000 S 
ATOM      2  O   UNL     1       2.582   4.778  20.703  0.00  0.00    +0.000 OA
ATOM      3  O   UNL     1       4.629   5.828  19.693  0.00  0.00    +0.000 OA
ENDROOT
BRANCH   1   4
ATOM      4  C   UNL     1       2.386   7.142  19.602  0.00  0.00    +0.000 A 
ATOM      5  C   UNL     1       2.416   7.905  18.410  0.00  0.00    +0.000 A 
ATOM      6  C   UNL     1       1.709   9.113  18.315  0.00  0.00    +0.000 A 
ATOM      7  C   UNL     1       0.989   9.519  19.423  0.00  0.00    +0.000 A 
ATOM      8  C   UNL     1       0.942   8.760  20.581  0.00  0.00    +0.000 A 
ATOM      9  C   UNL     1       1.614   7.556  20.700  0.00  0.00    +0.000 A 
ATOM     10  C   UNL     1       0.111   9.484  21.546  0.00  0.00    +0.000 C 
ATOM     11  O   UNL     1      -0.122   9.088  22.671  0.00  0.00    +0.000 OA
ATOM     12  N   UNL     1      -0.289  10.640  20.928  0.00  0.00    +0.000 N 
ATOM     13  C   UNL     1      -1.082  11.671  21.551  0.00  0.00    +0.000 C 
ATOM     14  C   UNL     1       0.196  10.728  19.651  0.00  0.00    +0.000 C 
ATOM     15  O   UNL     1       0.047  11.613  18.833  0.00  0.00    +0.000 OA
ENDBRANCH   1   4
BRANCH   1  16
ATOM     16  N   UNL     1       2.865   4.862  18.158  0.00  0.00    +0.000 N 
BRANCH  16  17
ATOM     17  C   UNL     1       3.927   4.745  17.231  0.00  0.00    +0.000 A 
ATOM     18  N   UNL     1       4.316   5.920  16.688  0.00  0.00    +0.000 NA
ATOM     19  C   UNL     1       5.403   5.848  15.880  0.00  0.00    +0.000 A 
ATOM     20  C   UNL     1       6.085   4.670  15.641  0.00  0.00    +0.000 A 
ATOM     21  N   UNL     1       5.707   3.495  16.186  0.00  0.00    +0.000 NA
ATOM     22  C   UNL     1       4.608   3.539  16.990  0.00  0.00    +0.000 A 
ATOM     23  C   UNL     1       4.182   2.237  17.594  0.00  0.00    +0.000 C 
ENDBRANCH  16  17
BRANCH  16  25
ATOM     24  C   UNL     1       0.965   3.235  18.456  0.00  0.00    +0.000 C 
ATOM     25  C   UNL     1       1.478   4.514  17.813  0.00  0.00    +0.000 C 
ENDBRANCH  16  25
ENDBRANCH   1  16
TORSDOF 4
ENDMDL
MODEL 9
REMARK VINA RESULT:      -6.9      2.477      6.931
REMARK  Name = 
REMARK  7 active torsions:
REMARK  status: ('A' for Active; 'I' for Inactive)
REMARK    1  A    between atoms: C_1  and  C_2
REMARK    2  A    between atoms: C_2  and  N_3
REMARK    3  A    between atoms: N_3  and  C_4
REMARK    4  A    between atoms: N_3  and  S_11
REMARK    5  A    between atoms: C_9  and  C_10
REMARK    6  A    between atoms: S_11  and  C_14
REMARK    7  A    between atoms: N_22  and  C_23
REMARK                            x       y       z     vdW  Elec       q    Type
REMARK                         _______ _______ _______ _____ _____    ______ ____
ROOT
ATOM      1  S   UNL     1       4.440   4.262  18.959  0.00  0.00    +0.000 S 
ATOM      2  O   UNL     1       4.941   5.101  20.028  0.00  0.00    +0.000 OA
ATOM      3  O   UNL     1       4.463   2.819  19.092  0.00  0.00    +0.000 OA
ENDROOT
BRANCH   1   4
ATOM      4  C   UNL     1       5.397   4.646  17.493  0.00  0.00    +0.000 A 
ATOM      5  C   UNL     1       6.553   5.455  17.608  0.00  0.00    +0.000 A 
ATOM      6  C   UNL     1       7.370   5.698  16.494  0.00  0.00    +0.000 A 
ATOM      7  C   UNL     1       7.001   5.121  15.293  0.00  0.00    +0.000 A 
ATOM      8  C   UNL     1       5.882   4.311  15.187  0.00  0.00    +0.000 A 
ATOM      9  C   UNL     1       5.066   4.036  16.271  0.00  0.00    +0.000 A 
ATOM     10  C   UNL     1       5.781   3.884  13.789  0.00  0.00    +0.000 C 
ATOM     11  O   UNL     1       4.897   3.170  13.362  0.00  0.00    +0.000 OA
ATOM     12  N   UNL     1       6.831   4.463  13.127  0.00  0.00    +0.000 N 
ATOM     13  C   UNL     1       7.073   4.345  11.710  0.00  0.00    +0.000 C 
ATOM     14  C   UNL     1       7.609   5.216  13.966  0.00  0.00    +0.000 C 
ATOM     15  O   UNL     1       8.602   5.867  13.712  0.00  0.00    +0.000 OA
ENDBRANCH   1   4
BRANCH   1  16
ATOM     16  N   UNL     1       2.875   4.716  18.563  0.00  0.00    +0.000 N 
BRANCH  16  17
ATOM     17  C   UNL     1       2.353   5.878  19.179  0.00  0.00    +0.000 A 
ATOM     18  N   UNL     1       1.757   5.648  20.370  0.00  0.00    +0.000 NA
ATOM     19  C   UNL     1       1.346   6.759  21.031  0.00  0.00    +0.000 A 
ATOM     20  C   UNL     1       1.538   8.038  20.543  0.00  0.00    +0.000 A 
ATOM     21  N   UNL     1       2.140   8.274  19.358  0.00  0.00    +0.000 NA
ATOM     22  C   UNL     1       2.548   7.172  18.669  0.00  0.00    +0.000 A 
ATOM     23  C   UNL     1       3.212   7.430  17.351  0.00  0.00    +0.000 C 
ENDBRANCH  16  17
BRANCH  16  25
ATOM     24  C   UNL     1       1.167   2.869  18.437  0.00  0.00    +0.000 C 
ATOM     25  C   UNL     1       2.059   3.852  17.695  0.00  0.00    +0.000 C 
ENDBRANCH  16  25
ENDBRANCH   1  16
TORSDOF 4
ENDMDL
