MODEL 1
REMARK VINA RESULT:      -7.0      0.000      0.000
REMARK  Name = 
REMARK  7 active torsions:
REMARK  status: ('A' for Active; 'I' for Inactive)
REMARK    1  A    between atoms: C_1  and  C_2
REMARK    2  A    between atoms: C_7  and  O_8
REMARK    3  A    between atoms: O_8  and  C_9
REMARK    4  A    between atoms: C_9  and  C_11
REMARK    5  A    between atoms: C_11  and  S_12
REMARK    6  A    between atoms: S_12  and  C_13
REMARK    7  A    between atoms: C_16  and  C_17
REMARK                            x       y       z     vdW  Elec       q    Type
REMARK                         _______ _______ _______ _____ _____    ______ ____
ROOT
ATOM      1  C   UNL     1       6.150   5.623  17.737  0.00  0.00    +0.000 C 
ENDROOT
BRANCH   1   2
ATOM      2  C   UNL     1       5.312   4.678  18.576  0.00  0.00    +0.000 C 
ATOM      3  O   UNL     1       5.686   4.112  19.595  0.00  0.00    +0.000 OA
BRANCH   2   4
ATOM      4  O   UNL     1       4.038   4.607  18.010  0.00  0.00    +0.000 OA
BRANCH   4  11
ATOM      5  C   UNL     1       3.043   1.807  17.885  0.00  0.00    +0.000 C 
ATOM      6  C   UNL     1       2.523   2.851  18.828  0.00  0.00    +0.000 A 
ATOM      7  C   UNL     1       1.604   2.473  19.818  0.00  0.00    +0.000 A 
ATOM      8  C   UNL     1       1.102   3.406  20.727  0.00  0.00    +0.000 A 
ATOM      9  C   UNL     1       1.485   4.742  20.641  0.00  0.00    +0.000 A 
ATOM     10  C   UNL     1       2.397   5.142  19.661  0.00  0.00    +0.000 A 
ATOM     11  C   UNL     1       2.916   4.197  18.770  0.00  0.00    +0.000 A 
ENDBRANCH   4  11
ENDBRANCH   2   4
ENDBRANCH   1   2
BRANCH   1  12
ATOM     12  S   UNL     1       7.795   5.815  18.444  0.00  0.00    +0.000 S 
BRANCH  12  13
ATOM     13  C   UNL     1       8.079   7.520  18.249  0.00  0.00    +0.000 A 
ATOM     14  N   UNL     1       7.576   8.299  17.311  0.00  0.00    +0.000 NA
ATOM     15  N   UNL     1       8.059   9.577  17.560  0.00  0.00    +0.000 NA
ATOM     16  C   UNL     1       8.824   9.499  18.635  0.00  0.00    +0.000 A 
ATOM     17  O   UNL     1       8.880   8.211  19.111  0.00  0.00    +0.000 OA
BRANCH  16  18
ATOM     18  C   UNL     1       9.499  10.604  19.259  0.00  0.00    +0.000 A 
ATOM     19  C   UNL     1      10.446  11.450  18.710  0.00  0.00    +0.000 A 
ATOM     20  C   UNL     1      10.877  12.461  19.626  0.00  0.00    +0.000 A 
ATOM     21  C   UNL     1      10.252  12.347  20.848  0.00  0.00    +0.000 A 
ATOM     22  S   UNL     1       9.159  11.036  20.887  0.00  0.00    +0.000 S 
ENDBRANCH  16  18
ENDBRANCH  12  13
ENDBRANCH   1  12
TORSDOF 6
ENDMDL
MODEL 2
REMARK VINA RESULT:      -7.0      4.009      7.869
REMARK  Name = 
REMARK  7 active torsions:
REMARK  status: ('A' for Active; 'I' for Inactive)
REMARK    1  A    between atoms: C_1  and  C_2
REMARK    2  A    between atoms: C_7  and  O_8
REMARK    3  A    between atoms: O_8  and  C_9
REMARK    4  A    between atoms: C_9  and  C_11
REMARK    5  A    between atoms: C_11  and  S_12
REMARK    6  A    between atoms: S_12  and  C_13
REMARK    7  A    between atoms: C_16  and  C_17
REMARK                            x       y       z     vdW  Elec       q    Type
REMARK                         _______ _______ _______ _____ _____    ______ ____
ROOT
ATOM      1  C   UNL     1       7.001   5.978  17.755  0.00  0.00    +0.000 C 
ENDROOT
BRANCH   1   2
ATOM      2  C   UNL     1       7.516   5.150  16.593  0.00  0.00    +0.000 C 
ATOM      3  O   UNL     1       8.040   4.047  16.685  0.00  0.00    +0.000 OA
BRANCH   2   4
ATOM      4  O   UNL     1       7.244   5.841  15.411  0.00  0.00    +0.000 OA
BRANCH   4  11
ATOM      5  C   UNL     1       8.811   5.858  12.883  0.00  0.00    +0.000 C 
ATOM      6  C   UNL     1       7.565   5.053  13.104  0.00  0.00    +0.000 A 
ATOM      7  C   UNL     1       7.168   4.135  12.120  0.00  0.00    +0.000 A 
ATOM      8  C   UNL     1       6.023   3.353  12.287  0.00  0.00    +0.000 A 
ATOM      9  C   UNL     1       5.236   3.499  13.427  0.00  0.00    +0.000 A 
ATOM     10  C   UNL     1       5.611   4.409  14.419  0.00  0.00    +0.000 A 
ATOM     11  C   UNL     1       6.773   5.170  14.257  0.00  0.00    +0.000 A 
ENDBRANCH   4  11
ENDBRANCH   2   4
ENDBRANCH   1   2
BRANCH   1  12
ATOM     12  S   UNL     1       5.990   7.346  17.164  0.00  0.00    +0.000 S 
BRANCH  12  13
ATOM     13  C   UNL     1       4.406   6.897  17.724  0.00  0.00    +0.000 A 
ATOM     14  N   UNL     1       3.302   7.610  17.617  0.00  0.00    +0.000 NA
ATOM     15  N   UNL     1       2.286   6.851  18.183  0.00  0.00    +0.000 NA
ATOM     16  C   UNL     1       2.832   5.721  18.597  0.00  0.00    +0.000 A 
ATOM     17  O   UNL     1       4.183   5.699  18.339  0.00  0.00    +0.000 OA
BRANCH  16  18
ATOM     18  C   UNL     1       2.127   4.633  19.216  0.00  0.00    +0.000 A 
ATOM     19  C   UNL     1       1.371   3.646  18.609  0.00  0.00    +0.000 A 
ATOM     20  C   UNL     1       0.840   2.705  19.547  0.00  0.00    +0.000 A 
ATOM     21  C   UNL     1       1.199   3.010  20.841  0.00  0.00    +0.000 A 
ATOM     22  S   UNL     1       2.166   4.416  20.920  0.00  0.00    +0.000 S 
ENDBRANCH  16  18
ENDBRANCH  12  13
ENDBRANCH   1  12
TORSDOF 6
ENDMDL
MODEL 3
REMARK VINA RESULT:      -6.9      4.089      6.602
REMARK  Name = 
REMARK  7 active torsions:
REMARK  status: ('A' for Active; 'I' for Inactive)
REMARK    1  A    between atoms: C_1  and  C_2
REMARK    2  A    between atoms: C_7  and  O_8
REMARK    3  A    between atoms: O_8  and  C_9
REMARK    4  A    between atoms: C_9  and  C_11
REMARK    5  A    between atoms: C_11  and  S_12
REMARK    6  A    between atoms: S_12  and  C_13
REMARK    7  A    between atoms: C_16  and  C_17
REMARK                            x       y       z     vdW  Elec       q    Type
REMARK                         _______ _______ _______ _____ _____    ______ ____
ROOT
ATOM      1  C   UNL     1       5.993   6.052  18.457  0.00  0.00    +0.000 C 
ENDROOT
BRANCH   1   2
ATOM      2  C   UNL     1       5.175   4.978  19.150  0.00  0.00    +0.000 C 
ATOM      3  O   UNL     1       5.608   3.908  19.557  0.00  0.00    +0.000 OA
BRANCH   2   4
ATOM      4  O   UNL     1       3.866   5.445  19.281  0.00  0.00    +0.000 OA
BRANCH   4  11
ATOM      5  C   UNL     1       2.783   3.668  17.155  0.00  0.00    +0.000 C 
ATOM      6  C   UNL     1       2.365   3.622  18.595  0.00  0.00    +0.000 A 
ATOM      7  C   UNL     1       1.510   2.594  19.020  0.00  0.00    +0.000 A 
ATOM      8  C   UNL     1       1.104   2.502  20.353  0.00  0.00    +0.000 A 
ATOM      9  C   UNL     1       1.519   3.457  21.278  0.00  0.00    +0.000 A 
ATOM     10  C   UNL     1       2.368   4.491  20.876  0.00  0.00    +0.000 A 
ATOM     11  C   UNL     1       2.791   4.563  19.546  0.00  0.00    +0.000 A 
ENDBRANCH   4  11
ENDBRANCH   2   4
ENDBRANCH   1   2
BRANCH   1  12
ATOM     12  S   UNL     1       5.161   6.626  16.968  0.00  0.00    +0.000 S 
BRANCH  12  13
ATOM     13  C   UNL     1       6.061   5.823  15.715  0.00  0.00    +0.000 A 
ATOM     14  N   UNL     1       7.368   5.861  15.537  0.00  0.00    +0.000 NA
ATOM     15  N   UNL     1       7.638   5.062  14.434  0.00  0.00    +0.000 NA
ATOM     16  C   UNL     1       6.481   4.585  14.009  0.00  0.00    +0.000 A 
ATOM     17  O   UNL     1       5.441   5.044  14.782  0.00  0.00    +0.000 OA
BRANCH  16  18
ATOM     18  C   UNL     1       6.308   3.684  12.902  0.00  0.00    +0.000 A 
ATOM     19  C   UNL     1       7.282   3.083  12.125  0.00  0.00    +0.000 A 
ATOM     20  C   UNL     1       6.732   2.219  11.126  0.00  0.00    +0.000 A 
ATOM     21  C   UNL     1       5.356   2.196  11.166  0.00  0.00    +0.000 A 
ATOM     22  S   UNL     1       4.737   3.207  12.396  0.00  0.00    +0.000 S 
ENDBRANCH  16  18
ENDBRANCH  12  13
ENDBRANCH   1  12
TORSDOF 6
ENDMDL
MODEL 4
REMARK VINA RESULT:      -6.9      1.071      1.742
REMARK  Name = 
REMARK  7 active torsions:
REMARK  status: ('A' for Active; 'I' for Inactive)
REMARK    1  A    between atoms: C_1  and  C_2
REMARK    2  A    between atoms: C_7  and  O_8
REMARK    3  A    between atoms: O_8  and  C_9
REMARK    4  A    between atoms: C_9  and  C_11
REMARK    5  A    between atoms: C_11  and  S_12
REMARK    6  A    between atoms: S_12  and  C_13
REMARK    7  A    between atoms: C_16  and  C_17
REMARK                            x       y       z     vdW  Elec       q    Type
REMARK                         _______ _______ _______ _____ _____    ______ ____
ROOT
ATOM      1  C   UNL     1       6.832   4.859  16.951  0.00  0.00    +0.000 C 
ENDROOT
BRANCH   1   2
ATOM      2  C   UNL     1       5.383   4.480  17.192  0.00  0.00    +0.000 C 
ATOM      3  O   UNL     1       4.717   3.736  16.483  0.00  0.00    +0.000 OA
BRANCH   2   4
ATOM      4  O   UNL     1       4.966   5.085  18.378  0.00  0.00    +0.000 OA
BRANCH   4  11
ATOM      5  C   UNL     1       2.336   6.474  18.338  0.00  0.00    +0.000 C 
ATOM      6  C   UNL     1       2.586   5.148  18.993  0.00  0.00    +0.000 A 
ATOM      7  C   UNL     1       1.496   4.431  19.509  0.00  0.00    +0.000 A 
ATOM      8  C   UNL     1       1.677   3.186  20.116  0.00  0.00    +0.000 A 
ATOM      9  C   UNL     1       2.956   2.652  20.248  0.00  0.00    +0.000 A 
ATOM     10  C   UNL     1       4.057   3.351  19.744  0.00  0.00    +0.000 A 
ATOM     11  C   UNL     1       3.865   4.584  19.114  0.00  0.00    +0.000 A 
ENDBRANCH   4  11
ENDBRANCH   2   4
ENDBRANCH   1   2
BRANCH   1  12
ATOM     12  S   UNL     1       7.593   5.464  18.467  0.00  0.00    +0.000 S 
BRANCH  12  13
ATOM     13  C   UNL     1       7.799   7.156  18.122  0.00  0.00    +0.000 A 
ATOM     14  N   UNL     1       7.161   7.855  17.203  0.00  0.00    +0.000 NA
ATOM     15  N   UNL     1       7.633   9.158  17.302  0.00  0.00    +0.000 NA
ATOM     16  C   UNL     1       8.526   9.173  18.276  0.00  0.00    +0.000 A 
ATOM     17  O   UNL     1       8.679   7.923  18.829  0.00  0.00    +0.000 OA
BRANCH  16  18
ATOM     18  C   UNL     1       9.239  10.333  18.734  0.00  0.00    +0.000 A 
ATOM     19  C   UNL     1       9.922  11.272  17.982  0.00  0.00    +0.000 A 
ATOM     20  C   UNL     1      10.488  12.313  18.784  0.00  0.00    +0.000 A 
ATOM     21  C   UNL     1      10.228  12.130  20.123  0.00  0.00    +0.000 A 
ATOM     22  S   UNL     1       9.311  10.717  20.408  0.00  0.00    +0.000 S 
ENDBRANCH  16  18
ENDBRANCH  12  13
ENDBRANCH   1  12
TORSDOF 6
ENDMDL
MODEL 5
REMARK VINA RESULT:      -6.9      4.715      5.899
REMARK  Name = 
REMARK  7 active torsions:
REMARK  status: ('A' for Active; 'I' for Inactive)
REMARK    1  A    between atoms: C_1  and  C_2
REMARK    2  A    between atoms: C_7  and  O_8
REMARK    3  A    between atoms: O_8  and  C_9
REMARK    4  A    between atoms: C_9  and  C_11
REMARK    5  A    between atoms: C_11  and  S_12
REMARK    6  A    between atoms: S_12  and  C_13
REMARK    7  A    between atoms: C_16  and  C_17
REMARK                            x       y       z     vdW  Elec       q    Type
REMARK                         _______ _______ _______ _____ _____    ______ ____
ROOT
ATOM      1  C   UNL     1       4.616   5.890  18.908  0.00  0.00    +0.000 C 
ENDROOT
BRANCH   1   2
ATOM      2  C   UNL     1       5.278   4.555  18.623  0.00  0.00    +0.000 C 
ATOM      3  O   UNL     1       6.485   4.364  18.542  0.00  0.00    +0.000 OA
BRANCH   2   4
ATOM      4  O   UNL     1       4.278   3.586  18.519  0.00  0.00    +0.000 OA
BRANCH   4  11
ATOM      5  C   UNL     1       1.510   4.323  17.720  0.00  0.00    +0.000 C 
ATOM      6  C   UNL     1       1.882   3.734  19.048  0.00  0.00    +0.000 A 
ATOM      7  C   UNL     1       0.860   3.370  19.939  0.00  0.00    +0.000 A 
ATOM      8  C   UNL     1       1.156   2.806  21.181  0.00  0.00    +0.000 A 
ATOM      9  C   UNL     1       2.482   2.627  21.569  0.00  0.00    +0.000 A 
ATOM     10  C   UNL     1       3.515   2.984  20.700  0.00  0.00    +0.000 A 
ATOM     11  C   UNL     1       3.211   3.525  19.447  0.00  0.00    +0.000 A 
ENDBRANCH   4  11
ENDBRANCH   2   4
ENDBRANCH   1   2
BRANCH   1  12
ATOM     12  S   UNL     1       4.227   6.748  17.374  0.00  0.00    +0.000 S 
BRANCH  12  13
ATOM     13  C   UNL     1       3.007   7.877  17.887  0.00  0.00    +0.000 A 
ATOM     14  N   UNL     1       2.381   8.756  17.129  0.00  0.00    +0.000 NA
ATOM     15  N   UNL     1       1.486   9.422  17.958  0.00  0.00    +0.000 NA
ATOM     16  C   UNL     1       1.622   8.907  19.167  0.00  0.00    +0.000 A 
ATOM     17  O   UNL     1       2.583   7.924  19.183  0.00  0.00    +0.000 OA
BRANCH  16  18
ATOM     18  C   UNL     1       0.860   9.287  20.325  0.00  0.00    +0.000 A 
ATOM     19  C   UNL     1       0.140  10.451  20.533  0.00  0.00    +0.000 A 
ATOM     20  C   UNL     1      -0.521  10.468  21.802  0.00  0.00    +0.000 A 
ATOM     21  C   UNL     1      -0.276   9.323  22.525  0.00  0.00    +0.000 A 
ATOM     22  S   UNL     1       0.739   8.240  21.681  0.00  0.00    +0.000 S 
ENDBRANCH  16  18
ENDBRANCH  12  13
ENDBRANCH   1  12
TORSDOF 6
ENDMDL
MODEL 6
REMARK VINA RESULT:      -6.9      4.381      6.624
REMARK  Name = 
REMARK  7 active torsions:
REMARK  status: ('A' for Active; 'I' for Inactive)
REMARK    1  A    between atoms: C_1  and  C_2
REMARK    2  A    between atoms: C_7  and  O_8
REMARK    3  A    between atoms: O_8  and  C_9
REMARK    4  A    between atoms: C_9  and  C_11
REMARK    5  A    between atoms: C_11  and  S_12
REMARK    6  A    between atoms: S_12  and  C_13
REMARK    7  A    between atoms: C_16  and  C_17
REMARK                            x       y       z     vdW  Elec       q    Type
REMARK                         _______ _______ _______ _____ _____    ______ ____
ROOT
ATOM      1  C   UNL     1       4.674   5.144  18.082  0.00  0.00    +0.000 C 
ENDROOT
BRANCH   1   2
ATOM      2  C   UNL     1       5.549   4.576  19.183  0.00  0.00    +0.000 C 
ATOM      3  O   UNL     1       6.692   4.933  19.437  0.00  0.00    +0.000 OA
BRANCH   2   4
ATOM      4  O   UNL     1       4.808   3.618  19.878  0.00  0.00    +0.000 OA
BRANCH   4  11
ATOM      5  C   UNL     1       3.572   1.580  18.100  0.00  0.00    +0.000 C 
ATOM      6  C   UNL     1       2.803   2.486  19.015  0.00  0.00    +0.000 A 
ATOM      7  C   UNL     1       1.422   2.288  19.162  0.00  0.00    +0.000 A 
ATOM      8  C   UNL     1       0.666   3.098  20.013  0.00  0.00    +0.000 A 
ATOM      9  C   UNL     1       1.274   4.143  20.705  0.00  0.00    +0.000 A 
ATOM     10  C   UNL     1       2.647   4.361  20.571  0.00  0.00    +0.000 A 
ATOM     11  C   UNL     1       3.402   3.530  19.738  0.00  0.00    +0.000 A 
ENDBRANCH   4  11
ENDBRANCH   2   4
ENDBRANCH   1   2
BRANCH   1  12
ATOM     12  S   UNL     1       5.487   6.533  17.275  0.00  0.00    +0.000 S 
BRANCH  12  13
ATOM     13  C   UNL     1       6.184   5.780  15.870  0.00  0.00    +0.000 A 
ATOM     14  N   UNL     1       7.448   5.826  15.498  0.00  0.00    +0.000 NA
ATOM     15  N   UNL     1       7.545   5.070  14.336  0.00  0.00    +0.000 NA
ATOM     16  C   UNL     1       6.334   4.610  14.073  0.00  0.00    +0.000 A 
ATOM     17  O   UNL     1       5.425   5.037  15.012  0.00  0.00    +0.000 OA
BRANCH  16  18
ATOM     18  C   UNL     1       5.990   3.753  12.971  0.00  0.00    +0.000 A 
ATOM     19  C   UNL     1       4.737   3.494  12.446  0.00  0.00    +0.000 A 
ATOM     20  C   UNL     1       4.784   2.607  11.324  0.00  0.00    +0.000 A 
ATOM     21  C   UNL     1       6.070   2.210  11.036  0.00  0.00    +0.000 A 
ATOM     22  S   UNL     1       7.207   2.900  12.108  0.00  0.00    +0.000 S 
ENDBRANCH  16  18
ENDBRANCH  12  13
ENDBRANCH   1  12
TORSDOF 6
ENDMDL
MODEL 7
REMARK VINA RESULT:      -6.8      1.475      1.981
REMARK  Name = 
REMARK  7 active torsions:
REMARK  status: ('A' for Active; 'I' for Inactive)
REMARK    1  A    between atoms: C_1  and  C_2
REMARK    2  A    between atoms: C_7  and  O_8
REMARK    3  A    between atoms: O_8  and  C_9
REMARK    4  A    between atoms: C_9  and  C_11
REMARK    5  A    between atoms: C_11  and  S_12
REMARK    6  A    between atoms: S_12  and  C_13
REMARK    7  A    between atoms: C_16  and  C_17
REMARK                            x       y       z     vdW  Elec       q    Type
REMARK                         _______ _______ _______ _____ _____    ______ ____
ROOT
ATOM      1  C   UNL     1       7.365   4.761  16.761  0.00  0.00    +0.000 C 
ENDROOT
BRANCH   1   2
ATOM      2  C   UNL     1       6.025   4.990  16.088  0.00  0.00    +0.000 C 
ATOM      3  O   UNL     1       5.792   5.844  15.242  0.00  0.00    +0.000 OA
BRANCH   2   4
ATOM      4  O   UNL     1       5.129   4.032  16.565  0.00  0.00    +0.000 OA
BRANCH   4  11
ATOM      5  C   UNL     1       3.452   1.971  17.902  0.00  0.00    +0.000 C 
ATOM      6  C   UNL     1       3.285   3.450  18.084  0.00  0.00    +0.000 A 
ATOM      7  C   UNL     1       2.376   3.916  19.047  0.00  0.00    +0.000 A 
ATOM      8  C   UNL     1       2.195   5.284  19.262  0.00  0.00    +0.000 A 
ATOM      9  C   UNL     1       2.896   6.211  18.494  0.00  0.00    +0.000 A 
ATOM     10  C   UNL     1       3.804   5.769  17.529  0.00  0.00    +0.000 A 
ATOM     11  C   UNL     1       3.999   4.398  17.336  0.00  0.00    +0.000 A 
ENDBRANCH   4  11
ENDBRANCH   2   4
ENDBRANCH   1   2
BRANCH   1  12
ATOM     12  S   UNL     1       7.373   5.459  18.420  0.00  0.00    +0.000 S 
BRANCH  12  13
ATOM     13  C   UNL     1       7.779   7.123  18.113  0.00  0.00    +0.000 A 
ATOM     14  N   UNL     1       7.417   7.840  17.068  0.00  0.00    +0.000 NA
ATOM     15  N   UNL     1       7.951   9.109  17.258  0.00  0.00    +0.000 NA
ATOM     16  C   UNL     1       8.603   9.085  18.407  0.00  0.00    +0.000 A 
ATOM     17  O   UNL     1       8.534   7.843  18.992  0.00  0.00    +0.000 OA
BRANCH  16  18
ATOM     18  C   UNL     1       9.281  10.204  19.003  0.00  0.00    +0.000 A 
ATOM     19  C   UNL     1       9.397  10.521  20.345  0.00  0.00    +0.000 A 
ATOM     20  C   UNL     1      10.176  11.700  20.566  0.00  0.00    +0.000 A 
ATOM     21  C   UNL     1      10.621  12.252  19.386  0.00  0.00    +0.000 A 
ATOM     22  S   UNL     1      10.104  11.355  18.027  0.00  0.00    +0.000 S 
ENDBRANCH  16  18
ENDBRANCH  12  13
ENDBRANCH   1  12
TORSDOF 6
ENDMDL
MODEL 8
REMARK VINA RESULT:      -6.8      1.080      1.180
REMARK  Name = 
REMARK  7 active torsions:
REMARK  status: ('A' for Active; 'I' for Inactive)
REMARK    1  A    between atoms: C_1  and  C_2
REMARK    2  A    between atoms: C_7  and  O_8
REMARK    3  A    between atoms: O_8  and  C_9
REMARK    4  A    between atoms: C_9  and  C_11
REMARK    5  A    between atoms: C_11  and  S_12
REMARK    6  A    between atoms: S_12  and  C_13
REMARK    7  A    between atoms: C_16  and  C_17
REMARK                            x       y       z     vdW  Elec       q    Type
REMARK                         _______ _______ _______ _____ _____    ______ ____
ROOT
ATOM      1  C   UNL     1       5.771   5.313  18.711  0.00  0.00    +0.000 C 
ENDROOT
BRANCH   1   2
ATOM      2  C   UNL     1       5.209   4.852  17.379  0.00  0.00    +0.000 C 
ATOM      3  O   UNL     1       5.771   4.098  16.595  0.00  0.00    +0.000 OA
BRANCH   2   4
ATOM      4  O   UNL     1       3.932   5.395  17.234  0.00  0.00    +0.000 OA
BRANCH   4  11
ATOM      5  C   UNL     1       2.457   2.818  17.412  0.00  0.00    +0.000 C 
ATOM      6  C   UNL     1       2.327   3.941  18.398  0.00  0.00    +0.000 A 
ATOM      7  C   UNL     1       1.571   3.737  19.563  0.00  0.00    +0.000 A 
ATOM      8  C   UNL     1       1.432   4.748  20.516  0.00  0.00    +0.000 A 
ATOM      9  C   UNL     1       2.018   5.993  20.305  0.00  0.00    +0.000 A 
ATOM     10  C   UNL     1       2.773   6.220  19.151  0.00  0.00    +0.000 A 
ATOM     11  C   UNL     1       2.929   5.195  18.213  0.00  0.00    +0.000 A 
ENDBRANCH   4  11
ENDBRANCH   2   4
ENDBRANCH   1   2
BRANCH   1  12
ATOM     12  S   UNL     1       7.564   5.457  18.631  0.00  0.00    +0.000 S 
BRANCH  12  13
ATOM     13  C   UNL     1       7.776   7.127  18.193  0.00  0.00    +0.000 A 
ATOM     14  N   UNL     1       7.172   7.765  17.209  0.00  0.00    +0.000 NA
ATOM     15  N   UNL     1       7.633   9.075  17.249  0.00  0.00    +0.000 NA
ATOM     16  C   UNL     1       8.486   9.154  18.254  0.00  0.00    +0.000 A 
ATOM     17  O   UNL     1       8.623   7.941  18.886  0.00  0.00    +0.000 OA
BRANCH  16  18
ATOM     18  C   UNL     1       9.175  10.345  18.669  0.00  0.00    +0.000 A 
ATOM     19  C   UNL     1       9.728  11.336  17.877  0.00  0.00    +0.000 A 
ATOM     20  C   UNL     1      10.311  12.393  18.646  0.00  0.00    +0.000 A 
ATOM     21  C   UNL     1      10.193  12.170  19.999  0.00  0.00    +0.000 A 
ATOM     22  S   UNL     1       9.388  10.701  20.337  0.00  0.00    +0.000 S 
ENDBRANCH  16  18
ENDBRANCH  12  13
ENDBRANCH   1  12
TORSDOF 6
ENDMDL
MODEL 9
REMARK VINA RESULT:      -6.8      4.263      5.644
REMARK  Name = 
REMARK  7 active torsions:
REMARK  status: ('A' for Active; 'I' for Inactive)
REMARK    1  A    between atoms: C_1  and  C_2
REMARK    2  A    between atoms: C_7  and  O_8
REMARK    3  A    between atoms: O_8  and  C_9
REMARK    4  A    between atoms: C_9  and  C_11
REMARK    5  A    between atoms: C_11  and  S_12
REMARK    6  A    between atoms: S_12  and  C_13
REMARK    7  A    between atoms: C_16  and  C_17
REMARK                            x       y       z     vdW  Elec       q    Type
REMARK                         _______ _______ _______ _____ _____    ______ ____
ROOT
ATOM      1  C   UNL     1       4.590   5.885  19.382  0.00  0.00    +0.000 C 
ENDROOT
BRANCH   1   2
ATOM      2  C   UNL     1       3.785   6.025  18.104  0.00  0.00    +0.000 C 
ATOM      3  O   UNL     1       3.655   7.055  17.456  0.00  0.00    +0.000 OA
BRANCH   2   4
ATOM      4  O   UNL     1       3.264   4.772  17.779  0.00  0.00    +0.000 OA
BRANCH   4  11
ATOM      5  C   UNL     1       3.468   1.819  18.079  0.00  0.00    +0.000 C 
ATOM      6  C   UNL     1       2.599   2.701  18.926  0.00  0.00    +0.000 A 
ATOM      7  C   UNL     1       1.933   2.140  20.027  0.00  0.00    +0.000 A 
ATOM      8  C   UNL     1       1.124   2.923  20.852  0.00  0.00    +0.000 A 
ATOM      9  C   UNL     1       0.939   4.275  20.571  0.00  0.00    +0.000 A 
ATOM     10  C   UNL     1       1.590   4.854  19.479  0.00  0.00    +0.000 A 
ATOM     11  C   UNL     1       2.419   4.069  18.671  0.00  0.00    +0.000 A 
ENDBRANCH   4  11
ENDBRANCH   2   4
ENDBRANCH   1   2
BRANCH   1  12
ATOM     12  S   UNL     1       5.949   4.727  19.154  0.00  0.00    +0.000 S 
BRANCH  12  13
ATOM     13  C   UNL     1       6.555   5.179  17.587  0.00  0.00    +0.000 A 
ATOM     14  N   UNL     1       7.369   6.181  17.318  0.00  0.00    +0.000 NA
ATOM     15  N   UNL     1       7.594   6.147  15.948  0.00  0.00    +0.000 NA
ATOM     16  C   UNL     1       6.906   5.126  15.468  0.00  0.00    +0.000 A 
ATOM     17  O   UNL     1       6.218   4.478  16.466  0.00  0.00    +0.000 OA
BRANCH  16  18
ATOM     18  C   UNL     1       6.882   4.711  14.092  0.00  0.00    +0.000 A 
ATOM     19  C   UNL     1       7.733   5.088  13.068  0.00  0.00    +0.000 A 
ATOM     20  C   UNL     1       7.421   4.444  11.829  0.00  0.00    +0.000 A 
ATOM     21  C   UNL     1       6.337   3.603  11.945  0.00  0.00    +0.000 A 
ATOM     22  S   UNL     1       5.704   3.593  13.531  0.00  0.00    +0.000 S 
ENDBRANCH  16  18
ENDBRANCH  12  13
ENDBRANCH   1  12
TORSDOF 6
ENDMDL
