MODEL 1
REMARK VINA RESULT:      -7.1      0.000      0.000
REMARK  Name = 
REMARK  4 active torsions:
REMARK  status: ('A' for Active; 'I' for Inactive)
REMARK    1  A    between atoms: C_1  and  C_2
REMARK    2  A    between atoms: N_6  and  C_7
REMARK    3  A    between atoms: C_7  and  C_8
REMARK    4  A    between atoms: N_10  and  C_11
REMARK                            x       y       z     vdW  Elec       q    Type
REMARK                         _______ _______ _______ _____ _____    ______ ____
ROOT
ATOM      1  C   UNL     1       2.842   5.024  18.458  0.00  0.00    +0.000 C 
ATOM      2  O   UNL     1       1.787   4.825  17.849  0.00  0.00    +0.000 OA
ATOM      3  N   UNL     1       3.209   6.224  19.045  0.00  0.00    +0.000 N 
ATOM      4  H   UNL     1       4.167   6.380  19.336  0.00  0.00    +0.000 HD
ENDROOT
BRANCH   3   5
ATOM      5  C   UNL     1       2.384   7.385  19.050  0.00  0.00    +0.000 A 
ATOM      6  C   UNL     1       2.208   8.189  17.918  0.00  0.00    +0.000 A 
ATOM      7  C   UNL     1       1.510   9.398  17.995  0.00  0.00    +0.000 A 
ATOM      8  C   UNL     1       0.962   9.804  19.205  0.00  0.00    +0.000 A 
ATOM      9  C   UNL     1       1.067   8.972  20.317  0.00  0.00    +0.000 A 
ATOM     10 CL   UNL     1       0.376   9.470  21.813  0.00  0.00    +0.000 Cl
ATOM     11  C   UNL     1       1.755   7.756  20.242  0.00  0.00    +0.000 A 
ENDBRANCH   3   5
BRANCH   1  12
ATOM     12  C   UNL     1       3.855   3.893  18.524  0.00  0.00    +0.000 C 
BRANCH  12  18
ATOM     13  C   UNL     1       5.833   4.061  13.979  0.00  0.00    +0.000 C 
ATOM     14  C   UNL     1       5.991   4.251  15.459  0.00  0.00    +0.000 A 
ATOM     15  C   UNL     1       7.224   4.579  16.016  0.00  0.00    +0.000 A 
ATOM     16  C   UNL     1       7.335   4.732  17.391  0.00  0.00    +0.000 A 
ATOM     17  C   UNL     1       6.217   4.537  18.193  0.00  0.00    +0.000 A 
ATOM     18  N   UNL     1       5.024   4.183  17.648  0.00  0.00    +0.000 N 
ATOM     19  C   UNL     1       4.894   4.077  16.306  0.00  0.00    +0.000 A 
ENDBRANCH  12  18
ENDBRANCH   1  12
TORSDOF 3
ENDMDL
MODEL 2
REMARK VINA RESULT:      -6.9      3.060      4.371
REMARK  Name = 
REMARK  4 active torsions:
REMARK  status: ('A' for Active; 'I' for Inactive)
REMARK    1  A    between atoms: C_1  and  C_2
REMARK    2  A    between atoms: N_6  and  C_7
REMARK    3  A    between atoms: C_7  and  C_8
REMARK    4  A    between atoms: N_10  and  C_11
REMARK                            x       y       z     vdW  Elec       q    Type
REMARK                         _______ _______ _______ _____ _____    ______ ____
ROOT
ATOM      1  C   UNL     1       5.516   4.593  16.626  0.00  0.00    +0.000 C 
ATOM      2  O   UNL     1       4.796   5.538  16.290  0.00  0.00    +0.000 OA
ATOM      3  N   UNL     1       5.146   3.582  17.499  0.00  0.00    +0.000 N 
ATOM      4  H   UNL     1       5.847   2.966  17.894  0.00  0.00    +0.000 HD
ENDROOT
BRANCH   3   5
ATOM      5  C   UNL     1       3.857   3.487  18.097  0.00  0.00    +0.000 A 
ATOM      6  C   UNL     1       2.925   2.510  17.730  0.00  0.00    +0.000 A 
ATOM      7  C   UNL     1       1.622   2.534  18.232  0.00  0.00    +0.000 A 
ATOM      8  C   UNL     1       1.242   3.527  19.127  0.00  0.00    +0.000 A 
ATOM      9  C   UNL     1       2.186   4.457  19.556  0.00  0.00    +0.000 A 
ATOM     10 CL   UNL     1       1.719   5.679  20.674  0.00  0.00    +0.000 Cl
ATOM     11  C   UNL     1       3.496   4.431  19.064  0.00  0.00    +0.000 A 
ENDBRANCH   3   5
BRANCH   1  12
ATOM     12  C   UNL     1       6.940   4.554  16.100  0.00  0.00    +0.000 C 
BRANCH  12  18
ATOM     13  C   UNL     1       5.360   2.552  11.846  0.00  0.00    +0.000 C 
ATOM     14  C   UNL     1       6.204   3.571  12.554  0.00  0.00    +0.000 A 
ATOM     15  C   UNL     1       7.063   4.411  11.848  0.00  0.00    +0.000 A 
ATOM     16  C   UNL     1       7.840   5.331  12.538  0.00  0.00    +0.000 A 
ATOM     17  C   UNL     1       7.763   5.388  13.924  0.00  0.00    +0.000 A 
ATOM     18  N   UNL     1       6.950   4.543  14.611  0.00  0.00    +0.000 N 
ATOM     19  C   UNL     1       6.155   3.674  13.945  0.00  0.00    +0.000 A 
ENDBRANCH  12  18
ENDBRANCH   1  12
TORSDOF 3
ENDMDL
MODEL 3
REMARK VINA RESULT:      -6.8      4.238      7.046
REMARK  Name = 
REMARK  4 active torsions:
REMARK  status: ('A' for Active; 'I' for Inactive)
REMARK    1  A    between atoms: C_1  and  C_2
REMARK    2  A    between atoms: N_6  and  C_7
REMARK    3  A    between atoms: C_7  and  C_8
REMARK    4  A    between atoms: N_10  and  C_11
REMARK                            x       y       z     vdW  Elec       q    Type
REMARK                         _______ _______ _______ _____ _____    ______ ____
ROOT
ATOM      1  C   UNL     1       5.518   6.163  16.192  0.00  0.00    +0.000 C 
ATOM      2  O   UNL     1       5.038   6.970  15.392  0.00  0.00    +0.000 OA
ATOM      3  N   UNL     1       6.293   5.066  15.847  0.00  0.00    +0.000 N 
ATOM      4  H   UNL     1       6.471   4.333  16.524  0.00  0.00    +0.000 HD
ENDROOT
BRANCH   3   5
ATOM      5  C   UNL     1       6.665   4.751  14.510  0.00  0.00    +0.000 A 
ATOM      6  C   UNL     1       7.677   5.437  13.827  0.00  0.00    +0.000 A 
ATOM      7  C   UNL     1       7.919   5.201  12.472  0.00  0.00    +0.000 A 
ATOM      8  C   UNL     1       7.163   4.255  11.789  0.00  0.00    +0.000 A 
ATOM      9  C   UNL     1       6.208   3.514  12.480  0.00  0.00    +0.000 A 
ATOM     10 CL   UNL     1       5.282   2.334  11.636  0.00  0.00    +0.000 Cl
ATOM     11  C   UNL     1       5.969   3.740  13.840  0.00  0.00    +0.000 A 
ENDBRANCH   3   5
BRANCH   1  12
ATOM     12  C   UNL     1       5.194   6.335  17.666  0.00  0.00    +0.000 C 
BRANCH  12  18
ATOM     13  C   UNL     1       4.412   2.104  20.133  0.00  0.00    +0.000 C 
ATOM     14  C   UNL     1       3.868   3.227  19.299  0.00  0.00    +0.000 A 
ATOM     15  C   UNL     1       2.545   3.227  18.864  0.00  0.00    +0.000 A 
ATOM     16  C   UNL     1       2.082   4.275  18.081  0.00  0.00    +0.000 A 
ATOM     17  C   UNL     1       2.951   5.299  17.726  0.00  0.00    +0.000 A 
ATOM     18  N   UNL     1       4.251   5.277  18.123  0.00  0.00    +0.000 N 
ATOM     19  C   UNL     1       4.700   4.284  18.925  0.00  0.00    +0.000 A 
ENDBRANCH  12  18
ENDBRANCH   1  12
TORSDOF 3
ENDMDL
MODEL 4
REMARK VINA RESULT:      -6.8      4.388      6.946
REMARK  Name = 
REMARK  4 active torsions:
REMARK  status: ('A' for Active; 'I' for Inactive)
REMARK    1  A    between atoms: C_1  and  C_2
REMARK    2  A    between atoms: N_6  and  C_7
REMARK    3  A    between atoms: C_7  and  C_8
REMARK    4  A    between atoms: N_10  and  C_11
REMARK                            x       y       z     vdW  Elec       q    Type
REMARK                         _______ _______ _______ _____ _____    ______ ____
ROOT
ATOM      1  C   UNL     1       5.663   6.043  16.268  0.00  0.00    +0.000 C 
ATOM      2  O   UNL     1       5.128   6.863  15.516  0.00  0.00    +0.000 OA
ATOM      3  N   UNL     1       6.445   4.977  15.855  0.00  0.00    +0.000 N 
ATOM      4  H   UNL     1       6.671   4.229  16.500  0.00  0.00    +0.000 HD
ENDROOT
BRANCH   3   5
ATOM      5  C   UNL     1       6.764   4.712  14.493  0.00  0.00    +0.000 A 
ATOM      6  C   UNL     1       7.727   5.444  13.787  0.00  0.00    +0.000 A 
ATOM      7  C   UNL     1       7.912   5.254  12.416  0.00  0.00    +0.000 A 
ATOM      8  C   UNL     1       7.149   4.311  11.738  0.00  0.00    +0.000 A 
ATOM      9  C   UNL     1       6.244   3.525  12.448  0.00  0.00    +0.000 A 
ATOM     10 CL   UNL     1       5.309   2.348  11.611  0.00  0.00    +0.000 Cl
ATOM     11  C   UNL     1       6.063   3.704  13.824  0.00  0.00    +0.000 A 
ENDBRANCH   3   5
BRANCH   1  12
ATOM     12  C   UNL     1       5.402   6.163  17.760  0.00  0.00    +0.000 C 
BRANCH  12  18
ATOM     13  C   UNL     1       1.110   3.690  18.021  0.00  0.00    +0.000 C 
ATOM     14  C   UNL     1       2.559   3.797  18.398  0.00  0.00    +0.000 A 
ATOM     15  C   UNL     1       3.144   2.890  19.278  0.00  0.00    +0.000 A 
ATOM     16  C   UNL     1       4.483   3.030  19.615  0.00  0.00    +0.000 A 
ATOM     17  C   UNL     1       5.215   4.085  19.084  0.00  0.00    +0.000 A 
ATOM     18  N   UNL     1       4.631   4.989  18.254  0.00  0.00    +0.000 N 
ATOM     19  C   UNL     1       3.339   4.834  17.883  0.00  0.00    +0.000 A 
ENDBRANCH  12  18
ENDBRANCH   1  12
TORSDOF 3
ENDMDL
MODEL 5
REMARK VINA RESULT:      -6.8      4.258      6.933
REMARK  Name = 
REMARK  4 active torsions:
REMARK  status: ('A' for Active; 'I' for Inactive)
REMARK    1  A    between atoms: C_1  and  C_2
REMARK    2  A    between atoms: N_6  and  C_7
REMARK    3  A    between atoms: C_7  and  C_8
REMARK    4  A    between atoms: N_10  and  C_11
REMARK                            x       y       z     vdW  Elec       q    Type
REMARK                         _______ _______ _______ _____ _____    ______ ____
ROOT
ATOM      1  C   UNL     1       6.996   4.963  17.130  0.00  0.00    +0.000 C 
ATOM      2  O   UNL     1       8.052   4.323  17.132  0.00  0.00    +0.000 OA
ATOM      3  N   UNL     1       6.280   5.313  15.996  0.00  0.00    +0.000 N 
ATOM      4  H   UNL     1       5.549   6.013  16.050  0.00  0.00    +0.000 HD
ENDROOT
BRANCH   3   5
ATOM      5  C   UNL     1       6.660   4.941  14.676  0.00  0.00    +0.000 A 
ATOM      6  C   UNL     1       7.659   5.612  13.961  0.00  0.00    +0.000 A 
ATOM      7  C   UNL     1       7.906   5.314  12.619  0.00  0.00    +0.000 A 
ATOM      8  C   UNL     1       7.169   4.324  11.981  0.00  0.00    +0.000 A 
ATOM      9  C   UNL     1       6.227   3.599  12.707  0.00  0.00    +0.000 A 
ATOM     10 CL   UNL     1       5.323   2.364  11.921  0.00  0.00    +0.000 Cl
ATOM     11  C   UNL     1       5.982   3.886  14.055  0.00  0.00    +0.000 A 
ENDBRANCH   3   5
BRANCH   1  12
ATOM     12  C   UNL     1       6.461   5.466  18.460  0.00  0.00    +0.000 C 
BRANCH  12  18
ATOM     13  C   UNL     1       3.441   1.536  18.275  0.00  0.00    +0.000 C 
ATOM     14  C   UNL     1       3.665   2.971  18.656  0.00  0.00    +0.000 A 
ATOM     15  C   UNL     1       2.631   3.751  19.167  0.00  0.00    +0.000 A 
ATOM     16  C   UNL     1       2.872   5.078  19.493  0.00  0.00    +0.000 A 
ATOM     17  C   UNL     1       4.138   5.614  19.287  0.00  0.00    +0.000 A 
ATOM     18  N   UNL     1       5.134   4.859  18.755  0.00  0.00    +0.000 N 
ATOM     19  C   UNL     1       4.922   3.552  18.477  0.00  0.00    +0.000 A 
ENDBRANCH  12  18
ENDBRANCH   1  12
TORSDOF 3
ENDMDL
MODEL 6
REMARK VINA RESULT:      -6.8      4.533      7.221
REMARK  Name = 
REMARK  4 active torsions:
REMARK  status: ('A' for Active; 'I' for Inactive)
REMARK    1  A    between atoms: C_1  and  C_2
REMARK    2  A    between atoms: N_6  and  C_7
REMARK    3  A    between atoms: C_7  and  C_8
REMARK    4  A    between atoms: N_10  and  C_11
REMARK                            x       y       z     vdW  Elec       q    Type
REMARK                         _______ _______ _______ _____ _____    ______ ____
ROOT
ATOM      1  C   UNL     1       5.669   4.742  16.949  0.00  0.00    +0.000 C 
ATOM      2  O   UNL     1       6.693   4.119  17.244  0.00  0.00    +0.000 OA
ATOM      3  N   UNL     1       5.284   5.074  15.660  0.00  0.00    +0.000 N 
ATOM      4  H   UNL     1       4.556   5.763  15.506  0.00  0.00    +0.000 HD
ENDROOT
BRANCH   3   5
ATOM      5  C   UNL     1       6.014   4.702  14.496  0.00  0.00    +0.000 A 
ATOM      6  C   UNL     1       7.194   5.348  14.107  0.00  0.00    +0.000 A 
ATOM      7  C   UNL     1       7.805   5.055  12.886  0.00  0.00    +0.000 A 
ATOM      8  C   UNL     1       7.254   4.093  12.048  0.00  0.00    +0.000 A 
ATOM      9  C   UNL     1       6.124   3.392  12.463  0.00  0.00    +0.000 A 
ATOM     10 CL   UNL     1       5.448   2.192  11.431  0.00  0.00    +0.000 Cl
ATOM     11  C   UNL     1       5.513   3.675  13.691  0.00  0.00    +0.000 A 
ENDBRANCH   3   5
BRANCH   1  12
ATOM     12  C   UNL     1       4.785   5.243  18.078  0.00  0.00    +0.000 C 
BRANCH  12  18
ATOM     13  C   UNL     1       2.065   3.027  21.584  0.00  0.00    +0.000 C 
ATOM     14  C   UNL     1       2.475   3.126  20.144  0.00  0.00    +0.000 A 
ATOM     15  C   UNL     1       2.019   2.209  19.200  0.00  0.00    +0.000 A 
ATOM     16  C   UNL     1       2.432   2.324  17.880  0.00  0.00    +0.000 A 
ATOM     17  C   UNL     1       3.309   3.340  17.523  0.00  0.00    +0.000 A 
ATOM     18  N   UNL     1       3.780   4.211  18.454  0.00  0.00    +0.000 N 
ATOM     19  C   UNL     1       3.347   4.137  19.734  0.00  0.00    +0.000 A 
ENDBRANCH  12  18
ENDBRANCH   1  12
TORSDOF 3
ENDMDL
MODEL 7
REMARK VINA RESULT:      -6.7      4.019      6.982
REMARK  Name = 
REMARK  4 active torsions:
REMARK  status: ('A' for Active; 'I' for Inactive)
REMARK    1  A    between atoms: C_1  and  C_2
REMARK    2  A    between atoms: N_6  and  C_7
REMARK    3  A    between atoms: C_7  and  C_8
REMARK    4  A    between atoms: N_10  and  C_11
REMARK                            x       y       z     vdW  Elec       q    Type
REMARK                         _______ _______ _______ _____ _____    ______ ____
ROOT
ATOM      1  C   UNL     1       6.767   4.529  17.190  0.00  0.00    +0.000 C 
ATOM      2  O   UNL     1       7.997   4.444  17.146  0.00  0.00    +0.000 OA
ATOM      3  N   UNL     1       5.929   4.528  16.086  0.00  0.00    +0.000 N 
ATOM      4  H   UNL     1       4.961   4.814  16.179  0.00  0.00    +0.000 HD
ENDROOT
BRANCH   3   5
ATOM      5  C   UNL     1       6.389   4.391  14.746  0.00  0.00    +0.000 A 
ATOM      6  C   UNL     1       7.466   5.127  14.239  0.00  0.00    +0.000 A 
ATOM      7  C   UNL     1       7.799   5.075  12.883  0.00  0.00    +0.000 A 
ATOM      8  C   UNL     1       7.069   4.266  12.022  0.00  0.00    +0.000 A 
ATOM      9  C   UNL     1       6.045   3.472  12.532  0.00  0.00    +0.000 A 
ATOM     10 CL   UNL     1       5.149   2.460  11.467  0.00  0.00    +0.000 Cl
ATOM     11  C   UNL     1       5.714   3.512  13.892  0.00  0.00    +0.000 A 
ENDBRANCH   3   5
BRANCH   1  12
ATOM     12  C   UNL     1       6.109   4.711  18.547  0.00  0.00    +0.000 C 
BRANCH  12  18
ATOM     13  C   UNL     1       1.550   2.770  18.323  0.00  0.00    +0.000 C 
ATOM     14  C   UNL     1       2.438   3.979  18.272  0.00  0.00    +0.000 A 
ATOM     15  C   UNL     1       1.924   5.239  17.979  0.00  0.00    +0.000 A 
ATOM     16  C   UNL     1       2.780   6.331  17.925  0.00  0.00    +0.000 A 
ATOM     17  C   UNL     1       4.139   6.147  18.146  0.00  0.00    +0.000 A 
ATOM     18  N   UNL     1       4.641   4.909  18.397  0.00  0.00    +0.000 N 
ATOM     19  C   UNL     1       3.810   3.846  18.497  0.00  0.00    +0.000 A 
ENDBRANCH  12  18
ENDBRANCH   1  12
TORSDOF 3
ENDMDL
MODEL 8
REMARK VINA RESULT:      -6.7      3.133      4.379
REMARK  Name = 
REMARK  4 active torsions:
REMARK  status: ('A' for Active; 'I' for Inactive)
REMARK    1  A    between atoms: C_1  and  C_2
REMARK    2  A    between atoms: N_6  and  C_7
REMARK    3  A    between atoms: C_7  and  C_8
REMARK    4  A    between atoms: N_10  and  C_11
REMARK                            x       y       z     vdW  Elec       q    Type
REMARK                         _______ _______ _______ _____ _____    ______ ____
ROOT
ATOM      1  C   UNL     1       5.712   4.856  16.681  0.00  0.00    +0.000 C 
ATOM      2  O   UNL     1       5.131   5.844  16.225  0.00  0.00    +0.000 OA
ATOM      3  N   UNL     1       5.251   4.075  17.729  0.00  0.00    +0.000 N 
ATOM      4  H   UNL     1       5.871   3.419  18.189  0.00  0.00    +0.000 HD
ENDROOT
BRANCH   3   5
ATOM      5  C   UNL     1       4.013   4.299  18.396  0.00  0.00    +0.000 A 
ATOM      6  C   UNL     1       3.821   5.354  19.296  0.00  0.00    +0.000 A 
ATOM      7  C   UNL     1       2.644   5.460  20.041  0.00  0.00    +0.000 A 
ATOM      8  C   UNL     1       1.634   4.521  19.875  0.00  0.00    +0.000 A 
ATOM      9  C   UNL     1       1.785   3.513  18.926  0.00  0.00    +0.000 A 
ATOM     10 CL   UNL     1       0.528   2.358  18.713  0.00  0.00    +0.000 Cl
ATOM     11  C   UNL     1       2.959   3.409  18.170  0.00  0.00    +0.000 A 
ENDBRANCH   3   5
BRANCH   1  12
ATOM     12  C   UNL     1       7.067   4.490  16.101  0.00  0.00    +0.000 C 
BRANCH  12  18
ATOM     13  C   UNL     1       5.340   2.582  11.862  0.00  0.00    +0.000 C 
ATOM     14  C   UNL     1       6.209   3.586  12.562  0.00  0.00    +0.000 A 
ATOM     15  C   UNL     1       7.042   4.442  11.846  0.00  0.00    +0.000 A 
ATOM     16  C   UNL     1       7.842   5.348  12.529  0.00  0.00    +0.000 A 
ATOM     17  C   UNL     1       7.813   5.373  13.918  0.00  0.00    +0.000 A 
ATOM     18  N   UNL     1       7.025   4.512  14.614  0.00  0.00    +0.000 N 
ATOM     19  C   UNL     1       6.208   3.658  13.956  0.00  0.00    +0.000 A 
ENDBRANCH  12  18
ENDBRANCH   1  12
TORSDOF 3
ENDMDL
MODEL 9
REMARK VINA RESULT:      -6.7      4.310      7.170
REMARK  Name = 
REMARK  4 active torsions:
REMARK  status: ('A' for Active; 'I' for Inactive)
REMARK    1  A    between atoms: C_1  and  C_2
REMARK    2  A    between atoms: N_6  and  C_7
REMARK    3  A    between atoms: C_7  and  C_8
REMARK    4  A    between atoms: N_10  and  C_11
REMARK                            x       y       z     vdW  Elec       q    Type
REMARK                         _______ _______ _______ _____ _____    ______ ____
ROOT
ATOM      1  C   UNL     1       5.427   5.312  16.558  0.00  0.00    +0.000 C 
ATOM      2  O   UNL     1       4.868   6.211  15.925  0.00  0.00    +0.000 OA
ATOM      3  N   UNL     1       6.272   4.360  16.011  0.00  0.00    +0.000 N 
ATOM      4  H   UNL     1       6.522   3.533  16.541  0.00  0.00    +0.000 HD
ENDROOT
BRANCH   3   5
ATOM      5  C   UNL     1       6.632   4.322  14.634  0.00  0.00    +0.000 A 
ATOM      6  C   UNL     1       7.591   5.179  14.081  0.00  0.00    +0.000 A 
ATOM      7  C   UNL     1       7.815   5.213  12.702  0.00  0.00    +0.000 A 
ATOM      8  C   UNL     1       7.097   4.371  11.862  0.00  0.00    +0.000 A 
ATOM      9  C   UNL     1       6.197   3.461  12.413  0.00  0.00    +0.000 A 
ATOM     10 CL   UNL     1       5.317   2.410  11.374  0.00  0.00    +0.000 Cl
ATOM     11  C   UNL     1       5.976   3.416  13.794  0.00  0.00    +0.000 A 
ENDBRANCH   3   5
BRANCH   1  12
ATOM     12  C   UNL     1       5.130   5.190  18.043  0.00  0.00    +0.000 C 
BRANCH  12  18
ATOM     13  C   UNL     1       0.947   4.173  20.506  0.00  0.00    +0.000 C 
ATOM     14  C   UNL     1       1.958   3.780  19.469  0.00  0.00    +0.000 A 
ATOM     15  C   UNL     1       1.882   2.551  18.818  0.00  0.00    +0.000 A 
ATOM     16  C   UNL     1       2.844   2.216  17.875  0.00  0.00    +0.000 A 
ATOM     17  C   UNL     1       3.880   3.104  17.610  0.00  0.00    +0.000 A 
ATOM     18  N   UNL     1       3.970   4.286  18.273  0.00  0.00    +0.000 N 
ATOM     19  C   UNL     1       3.012   4.642  19.160  0.00  0.00    +0.000 A 
ENDBRANCH  12  18
ENDBRANCH   1  12
TORSDOF 3
ENDMDL
