MODEL 1
REMARK VINA RESULT:      -7.9      0.000      0.000
REMARK  Name = 
REMARK  9 active torsions:
REMARK  status: ('A' for Active; 'I' for Inactive)
REMARK    1  A    between atoms: C_1  and  O_2
REMARK    2  A    between atoms: O_2  and  C_3
REMARK    3  A    between atoms: C_3  and  C_5
REMARK    4  A    between atoms: C_8  and  C_9
REMARK    5  A    between atoms: C_12  and  C_13
REMARK    6  A    between atoms: C_13  and  N_14
REMARK    7  A    between atoms: C_18  and  C_19
REMARK    8  A    between atoms: C_19  and  N_20
REMARK    9  A    between atoms: C_21  and  C_22
REMARK                            x       y       z     vdW  Elec       q    Type
REMARK                         _______ _______ _______ _____ _____    ______ ____
ROOT
ATOM      1  C   UNL     1       1.545   8.462  19.333  0.00  0.00    +0.000 A 
ATOM      2  N   UNL     1       1.191   8.672  20.611  0.00  0.00    +0.000 NA
ATOM      3  O   UNL     1       0.264   9.714  20.532  0.00  0.00    +0.000 OA
ATOM      4  C   UNL     1       0.152  10.030  19.210  0.00  0.00    +0.000 A 
ATOM      5  N   UNL     1       0.914   9.294  18.434  0.00  0.00    +0.000 NA
ENDROOT
BRANCH   1   9
ATOM      6  C   UNL     1       4.352   5.485  18.060  0.00  0.00    +0.000 A 
ATOM      7  C   UNL     1       4.198   6.672  17.328  0.00  0.00    +0.000 A 
ATOM      8  C   UNL     1       3.296   7.657  17.746  0.00  0.00    +0.000 A 
ATOM      9  C   UNL     1       2.517   7.465  18.895  0.00  0.00    +0.000 A 
ATOM     10  C   UNL     1       2.679   6.278  19.628  0.00  0.00    +0.000 A 
ATOM     11  C   UNL     1       3.586   5.294  19.217  0.00  0.00    +0.000 A 
BRANCH   6  12
ATOM     12  C   UNL     1       5.340   4.487  17.577  0.00  0.00    +0.000 C 
ATOM     13  O   UNL     1       5.186   3.834  16.555  0.00  0.00    +0.000 OA
BRANCH  12  15
ATOM     14  C   UNL     1       7.379   5.453  18.170  0.00  0.00    +0.000 C 
ATOM     15  O   UNL     1       6.419   4.421  18.403  0.00  0.00    +0.000 OA
ENDBRANCH  12  15
ENDBRANCH   6  12
ENDBRANCH   1   9
BRANCH   4  16
ATOM     16  C   UNL     1      -0.770  11.144  18.831  0.00  0.00    +0.000 C 
BRANCH  16  17
ATOM     17  N   UNL     1      -2.049  10.709  18.220  0.00  0.00    +0.000 NA
ATOM     18  C   UNL     1      -3.142  11.632  18.574  0.00  0.00    +0.000 C 
ATOM     19  C   UNL     1      -4.466  11.151  17.989  0.00  0.00    +0.000 C 
ATOM     20  C   UNL     1      -4.381  11.021  16.475  0.00  0.00    +0.000 C 
ATOM     21  C   UNL     1      -3.194  10.139  16.066  0.00  0.00    +0.000 C 
ATOM     22  C   UNL     1      -1.900  10.624  16.754  0.00  0.00    +0.000 C 
BRANCH  21  23
ATOM     23  C   UNL     1      -3.011  10.133  14.539  0.00  0.00    +0.000 C 
BRANCH  23  24
ATOM     24  N   UNL     1      -4.267   9.951  13.834  0.00  0.00    +0.000 N 
ATOM     25  C   UNL     1      -4.319   9.667  12.487  0.00  0.00    +0.000 C 
ATOM     26  C   UNL     1      -5.709   9.505  11.931  0.00  0.00    +0.000 C 
ATOM     27  O   UNL     1      -3.326   9.550  11.776  0.00  0.00    +0.000 OA
ATOM     28  H   UNL     1      -5.128  10.021  14.360  0.00  0.00    +0.000 HD
ENDBRANCH  23  24
ENDBRANCH  21  23
ENDBRANCH  16  17
ENDBRANCH   4  16
TORSDOF 7
ENDMDL
MODEL 2
REMARK VINA RESULT:      -7.8      1.231      1.878
REMARK  Name = 
REMARK  9 active torsions:
REMARK  status: ('A' for Active; 'I' for Inactive)
REMARK    1  A    between atoms: C_1  and  O_2
REMARK    2  A    between atoms: O_2  and  C_3
REMARK    3  A    between atoms: C_3  and  C_5
REMARK    4  A    between atoms: C_8  and  C_9
REMARK    5  A    between atoms: C_12  and  C_13
REMARK    6  A    between atoms: C_13  and  N_14
REMARK    7  A    between atoms: C_18  and  C_19
REMARK    8  A    between atoms: C_19  and  N_20
REMARK    9  A    between atoms: C_21  and  C_22
REMARK                            x       y       z     vdW  Elec       q    Type
REMARK                         _______ _______ _______ _____ _____    ______ ____
ROOT
ATOM      1  C   UNL     1       1.763   9.075  18.509  0.00  0.00    +0.000 A 
ATOM      2  N   UNL     1       2.248  10.127  17.829  0.00  0.00    +0.000 NA
ATOM      3  O   UNL     1       1.240  11.088  17.943  0.00  0.00    +0.000 OA
ATOM      4  C   UNL     1       0.246  10.518  18.681  0.00  0.00    +0.000 A 
ATOM      5  N   UNL     1       0.516   9.288  19.053  0.00  0.00    +0.000 NA
ENDROOT
BRANCH   1   9
ATOM      6  C   UNL     1       3.856   5.362  18.959  0.00  0.00    +0.000 A 
ATOM      7  C   UNL     1       2.887   5.748  19.898  0.00  0.00    +0.000 A 
ATOM      8  C   UNL     1       2.187   6.951  19.749  0.00  0.00    +0.000 A 
ATOM      9  C   UNL     1       2.456   7.800  18.668  0.00  0.00    +0.000 A 
ATOM     10  C   UNL     1       3.422   7.407  17.727  0.00  0.00    +0.000 A 
ATOM     11  C   UNL     1       4.119   6.201  17.868  0.00  0.00    +0.000 A 
BRANCH   6  12
ATOM     12  C   UNL     1       4.550   4.065  19.161  0.00  0.00    +0.000 C 
ATOM     13  O   UNL     1       5.746   3.908  18.959  0.00  0.00    +0.000 OA
BRANCH  12  15
ATOM     14  C   UNL     1       3.246   2.222  18.577  0.00  0.00    +0.000 C 
ATOM     15  O   UNL     1       3.690   3.110  19.605  0.00  0.00    +0.000 OA
ENDBRANCH  12  15
ENDBRANCH   6  12
ENDBRANCH   1   9
BRANCH   4  16
ATOM     16  C   UNL     1      -0.983  11.326  18.944  0.00  0.00    +0.000 C 
BRANCH  16  17
ATOM     17  N   UNL     1      -2.214  10.812  18.296  0.00  0.00    +0.000 NA
ATOM     18  C   UNL     1      -3.365  11.687  18.582  0.00  0.00    +0.000 C 
ATOM     19  C   UNL     1      -4.639  11.125  17.960  0.00  0.00    +0.000 C 
ATOM     20  C   UNL     1      -4.488  10.961  16.455  0.00  0.00    +0.000 C 
ATOM     21  C   UNL     1      -3.244  10.131  16.116  0.00  0.00    +0.000 C 
ATOM     22  C   UNL     1      -2.003  10.697  16.839  0.00  0.00    +0.000 C 
BRANCH  21  23
ATOM     23  C   UNL     1      -3.000  10.095  14.598  0.00  0.00    +0.000 C 
BRANCH  23  24
ATOM     24  N   UNL     1      -4.234   9.955  13.845  0.00  0.00    +0.000 N 
ATOM     25  C   UNL     1      -4.243   9.703  12.491  0.00  0.00    +0.000 C 
ATOM     26  C   UNL     1      -5.615   9.583  11.883  0.00  0.00    +0.000 C 
ATOM     27  O   UNL     1      -3.227   9.581  11.812  0.00  0.00    +0.000 OA
ATOM     28  H   UNL     1      -5.111  10.032  14.341  0.00  0.00    +0.000 HD
ENDBRANCH  23  24
ENDBRANCH  21  23
ENDBRANCH  16  17
ENDBRANCH   4  16
TORSDOF 7
ENDMDL
MODEL 3
REMARK VINA RESULT:      -7.6      4.891      8.951
REMARK  Name = 
REMARK  9 active torsions:
REMARK  status: ('A' for Active; 'I' for Inactive)
REMARK    1  A    between atoms: C_1  and  O_2
REMARK    2  A    between atoms: O_2  and  C_3
REMARK    3  A    between atoms: C_3  and  C_5
REMARK    4  A    between atoms: C_8  and  C_9
REMARK    5  A    between atoms: C_12  and  C_13
REMARK    6  A    between atoms: C_13  and  N_14
REMARK    7  A    between atoms: C_18  and  C_19
REMARK    8  A    between atoms: C_19  and  N_20
REMARK    9  A    between atoms: C_21  and  C_22
REMARK                            x       y       z     vdW  Elec       q    Type
REMARK                         _______ _______ _______ _____ _____    ______ ____
ROOT
ATOM      1  C   UNL     1       2.236   6.448  19.884  0.00  0.00    +0.000 A 
ATOM      2  N   UNL     1       1.978   5.373  20.647  0.00  0.00    +0.000 NA
ATOM      3  O   UNL     1       2.692   4.346  20.026  0.00  0.00    +0.000 OA
ATOM      4  C   UNL     1       3.310   4.904  18.947  0.00  0.00    +0.000 A 
ATOM      5  N   UNL     1       3.065   6.188  18.815  0.00  0.00    +0.000 NA
ENDROOT
BRANCH   1   9
ATOM      6  C   UNL     1       0.686  10.371  20.640  0.00  0.00    +0.000 A 
ATOM      7  C   UNL     1       1.126  10.019  19.356  0.00  0.00    +0.000 A 
ATOM      8  C   UNL     1       1.618   8.734  19.096  0.00  0.00    +0.000 A 
ATOM      9  C   UNL     1       1.696   7.783  20.121  0.00  0.00    +0.000 A 
ATOM     10  C   UNL     1       1.249   8.138  21.404  0.00  0.00    +0.000 A 
ATOM     11  C   UNL     1       0.749   9.419  21.666  0.00  0.00    +0.000 A 
BRANCH   6  12
ATOM     12  C   UNL     1       0.156  11.742  20.848  0.00  0.00    +0.000 C 
ATOM     13  O   UNL     1       0.363  12.393  21.862  0.00  0.00    +0.000 OA
BRANCH  12  15
ATOM     14  C   UNL     1      -0.182  13.462  19.309  0.00  0.00    +0.000 C 
ATOM     15  O   UNL     1      -0.559  12.163  19.770  0.00  0.00    +0.000 OA
ENDBRANCH  12  15
ENDBRANCH   6  12
ENDBRANCH   1   9
BRANCH   4  16
ATOM     16  C   UNL     1       4.138   4.016  18.075  0.00  0.00    +0.000 C 
BRANCH  16  17
ATOM     17  N   UNL     1       5.006   4.729  17.109  0.00  0.00    +0.000 NA
ATOM     18  C   UNL     1       6.330   5.005  17.695  0.00  0.00    +0.000 C 
ATOM     19  C   UNL     1       7.201   5.788  16.717  0.00  0.00    +0.000 C 
ATOM     20  C   UNL     1       7.373   5.031  15.409  0.00  0.00    +0.000 C 
ATOM     21  C   UNL     1       6.012   4.644  14.816  0.00  0.00    +0.000 C 
ATOM     22  C   UNL     1       5.145   3.931  15.875  0.00  0.00    +0.000 C 
BRANCH  21  23
ATOM     23  C   UNL     1       6.183   3.746  13.580  0.00  0.00    +0.000 C 
BRANCH  23  24
ATOM     24  N   UNL     1       5.061   3.850  12.663  0.00  0.00    +0.000 N 
ATOM     25  C   UNL     1       4.830   2.917  11.677  0.00  0.00    +0.000 C 
ATOM     26  C   UNL     1       3.616   3.187  10.828  0.00  0.00    +0.000 C 
ATOM     27  O   UNL     1       5.542   1.935  11.485  0.00  0.00    +0.000 OA
ATOM     28  H   UNL     1       4.424   4.628  12.770  0.00  0.00    +0.000 HD
ENDBRANCH  23  24
ENDBRANCH  21  23
ENDBRANCH  16  17
ENDBRANCH   4  16
TORSDOF 7
ENDMDL
MODEL 4
REMARK VINA RESULT:      -7.6      4.661      9.349
REMARK  Name = 
REMARK  9 active torsions:
REMARK  status: ('A' for Active; 'I' for Inactive)
REMARK    1  A    between atoms: C_1  and  O_2
REMARK    2  A    between atoms: O_2  and  C_3
REMARK    3  A    between atoms: C_3  and  C_5
REMARK    4  A    between atoms: C_8  and  C_9
REMARK    5  A    between atoms: C_12  and  C_13
REMARK    6  A    between atoms: C_13  and  N_14
REMARK    7  A    between atoms: C_18  and  C_19
REMARK    8  A    between atoms: C_19  and  N_20
REMARK    9  A    between atoms: C_21  and  C_22
REMARK                            x       y       z     vdW  Elec       q    Type
REMARK                         _______ _______ _______ _____ _____    ______ ____
ROOT
ATOM      1  C   UNL     1       1.749   8.501  19.223  0.00  0.00    +0.000 A 
ATOM      2  N   UNL     1       2.163   8.865  17.998  0.00  0.00    +0.000 NA
ATOM      3  O   UNL     1       2.877   7.753  17.545  0.00  0.00    +0.000 OA
ATOM      4  C   UNL     1       2.823   6.828  18.545  0.00  0.00    +0.000 A 
ATOM      5  N   UNL     1       2.145   7.235  19.593  0.00  0.00    +0.000 NA
ENDROOT
BRANCH   1   9
ATOM      6  C   UNL     1      -0.523  10.955  21.903  0.00  0.00    +0.000 A 
ATOM      7  C   UNL     1      -0.057  11.478  20.687  0.00  0.00    +0.000 A 
ATOM      8  C   UNL     1       0.671  10.678  19.798  0.00  0.00    +0.000 A 
ATOM      9  C   UNL     1       0.963   9.346  20.118  0.00  0.00    +0.000 A 
ATOM     10  C   UNL     1       0.489   8.826  21.333  0.00  0.00    +0.000 A 
ATOM     11  C   UNL     1      -0.246   9.620  22.221  0.00  0.00    +0.000 A 
BRANCH   6  12
ATOM     12  C   UNL     1      -1.307  11.848  22.794  0.00  0.00    +0.000 C 
ATOM     13  O   UNL     1      -2.307  11.482  23.395  0.00  0.00    +0.000 OA
BRANCH  12  15
ATOM     14  C   UNL     1      -1.476  13.990  23.701  0.00  0.00    +0.000 C 
ATOM     15  O   UNL     1      -0.757  13.090  22.855  0.00  0.00    +0.000 OA
ENDBRANCH  12  15
ENDBRANCH   6  12
ENDBRANCH   1   9
BRANCH   4  16
ATOM     16  C   UNL     1       3.533   5.529  18.337  0.00  0.00    +0.000 C 
BRANCH  16  17
ATOM     17  N   UNL     1       4.917   5.655  17.821  0.00  0.00    +0.000 NA
ATOM     18  C   UNL     1       5.901   5.328  18.868  0.00  0.00    +0.000 C 
ATOM     19  C   UNL     1       7.324   5.511  18.350  0.00  0.00    +0.000 C 
ATOM     20  C   UNL     1       7.577   4.643  17.126  0.00  0.00    +0.000 C 
ATOM     21  C   UNL     1       6.514   4.890  16.048  0.00  0.00    +0.000 C 
ATOM     22  C   UNL     1       5.097   4.773  16.651  0.00  0.00    +0.000 C 
BRANCH  21  23
ATOM     23  C   UNL     1       6.674   3.905  14.878  0.00  0.00    +0.000 C 
BRANCH  23  24
ATOM     24  N   UNL     1       5.562   3.973  13.946  0.00  0.00    +0.000 N 
ATOM     25  C   UNL     1       5.677   3.562  12.636  0.00  0.00    +0.000 C 
ATOM     26  C   UNL     1       4.418   3.700  11.821  0.00  0.00    +0.000 C 
ATOM     27  O   UNL     1       6.711   3.116  12.148  0.00  0.00    +0.000 OA
ATOM     28  H   UNL     1       4.674   4.320  14.281  0.00  0.00    +0.000 HD
ENDBRANCH  23  24
ENDBRANCH  21  23
ENDBRANCH  16  17
ENDBRANCH   4  16
TORSDOF 7
ENDMDL
MODEL 5
REMARK VINA RESULT:      -7.5      0.743      1.216
REMARK  Name = 
REMARK  9 active torsions:
REMARK  status: ('A' for Active; 'I' for Inactive)
REMARK    1  A    between atoms: C_1  and  O_2
REMARK    2  A    between atoms: O_2  and  C_3
REMARK    3  A    between atoms: C_3  and  C_5
REMARK    4  A    between atoms: C_8  and  C_9
REMARK    5  A    between atoms: C_12  and  C_13
REMARK    6  A    between atoms: C_13  and  N_14
REMARK    7  A    between atoms: C_18  and  C_19
REMARK    8  A    between atoms: C_19  and  N_20
REMARK    9  A    between atoms: C_21  and  C_22
REMARK                            x       y       z     vdW  Elec       q    Type
REMARK                         _______ _______ _______ _____ _____    ______ ____
ROOT
ATOM      1  C   UNL     1       1.219   9.030  19.576  0.00  0.00    +0.000 A 
ATOM      2  N   UNL     1       1.134   9.587  20.795  0.00  0.00    +0.000 NA
ATOM      3  O   UNL     1       0.197  10.610  20.628  0.00  0.00    +0.000 OA
ATOM      4  C   UNL     1      -0.189  10.569  19.321  0.00  0.00    +0.000 A 
ATOM      5  N   UNL     1       0.405   9.621  18.634  0.00  0.00    +0.000 NA
ENDROOT
BRANCH   1   9
ATOM      6  C   UNL     1       3.831   5.790  18.555  0.00  0.00    +0.000 A 
ATOM      7  C   UNL     1       3.060   5.736  19.726  0.00  0.00    +0.000 A 
ATOM      8  C   UNL     1       2.192   6.783  20.058  0.00  0.00    +0.000 A 
ATOM      9  C   UNL     1       2.092   7.911  19.234  0.00  0.00    +0.000 A 
ATOM     10  C   UNL     1       2.860   7.957  18.059  0.00  0.00    +0.000 A 
ATOM     11  C   UNL     1       3.724   6.909  17.720  0.00  0.00    +0.000 A 
BRANCH   6  12
ATOM     12  C   UNL     1       4.718   4.639  18.247  0.00  0.00    +0.000 C 
ATOM     13  O   UNL     1       4.618   3.552  18.796  0.00  0.00    +0.000 OA
BRANCH  12  15
ATOM     14  C   UNL     1       6.966   5.025  17.758  0.00  0.00    +0.000 C 
ATOM     15  O   UNL     1       5.621   4.958  17.280  0.00  0.00    +0.000 OA
ENDBRANCH  12  15
ENDBRANCH   6  12
ENDBRANCH   1   9
BRANCH   4  16
ATOM     16  C   UNL     1      -1.183  11.581  18.852  0.00  0.00    +0.000 C 
BRANCH  16  17
ATOM     17  N   UNL     1      -2.397  11.011  18.220  0.00  0.00    +0.000 NA
ATOM     18  C   UNL     1      -3.579  11.845  18.502  0.00  0.00    +0.000 C 
ATOM     19  C   UNL     1      -4.834  11.226  17.896  0.00  0.00    +0.000 C 
ATOM     20  C   UNL     1      -4.686  11.048  16.392  0.00  0.00    +0.000 C 
ATOM     21  C   UNL     1      -3.413  10.261  16.055  0.00  0.00    +0.000 C 
ATOM     22  C   UNL     1      -2.191  10.885  16.763  0.00  0.00    +0.000 C 
BRANCH  21  23
ATOM     23  C   UNL     1      -3.177  10.214  14.537  0.00  0.00    +0.000 C 
BRANCH  23  24
ATOM     24  N   UNL     1      -4.406   9.993  13.795  0.00  0.00    +0.000 N 
ATOM     25  C   UNL     1      -4.408   9.684  12.453  0.00  0.00    +0.000 C 
ATOM     26  C   UNL     1      -5.775   9.483  11.856  0.00  0.00    +0.000 C 
ATOM     27  O   UNL     1      -3.390   9.575  11.776  0.00  0.00    +0.000 OA
ATOM     28  H   UNL     1      -5.285  10.054  14.291  0.00  0.00    +0.000 HD
ENDBRANCH  23  24
ENDBRANCH  21  23
ENDBRANCH  16  17
ENDBRANCH   4  16
TORSDOF 7
ENDMDL
MODEL 6
REMARK VINA RESULT:      -7.4      2.899      9.619
REMARK  Name = 
REMARK  9 active torsions:
REMARK  status: ('A' for Active; 'I' for Inactive)
REMARK    1  A    between atoms: C_1  and  O_2
REMARK    2  A    between atoms: O_2  and  C_3
REMARK    3  A    between atoms: C_3  and  C_5
REMARK    4  A    between atoms: C_8  and  C_9
REMARK    5  A    between atoms: C_12  and  C_13
REMARK    6  A    between atoms: C_13  and  N_14
REMARK    7  A    between atoms: C_18  and  C_19
REMARK    8  A    between atoms: C_19  and  N_20
REMARK    9  A    between atoms: C_21  and  C_22
REMARK                            x       y       z     vdW  Elec       q    Type
REMARK                         _______ _______ _______ _____ _____    ______ ____
ROOT
ATOM      1  C   UNL     1       0.001   9.793  18.735  0.00  0.00    +0.000 A 
ATOM      2  N   UNL     1       0.601   9.627  19.925  0.00  0.00    +0.000 NA
ATOM      3  O   UNL     1       1.800   8.983  19.606  0.00  0.00    +0.000 OA
ATOM      4  C   UNL     1       1.802   8.825  18.251  0.00  0.00    +0.000 A 
ATOM      5  N   UNL     1       0.726   9.303  17.671  0.00  0.00    +0.000 NA
ENDROOT
BRANCH   1   9
ATOM      6  C   UNL     1      -3.860  11.562  18.167  0.00  0.00    +0.000 A 
ATOM      7  C   UNL     1      -3.020  12.011  19.197  0.00  0.00    +0.000 A 
ATOM      8  C   UNL     1      -1.750  11.451  19.379  0.00  0.00    +0.000 A 
ATOM      9  C   UNL     1      -1.305  10.417  18.545  0.00  0.00    +0.000 A 
ATOM     10  C   UNL     1      -2.147   9.975  17.512  0.00  0.00    +0.000 A 
ATOM     11  C   UNL     1      -3.414  10.538  17.322  0.00  0.00    +0.000 A 
BRANCH   6  12
ATOM     12  C   UNL     1      -5.187  12.210  18.013  0.00  0.00    +0.000 C 
ATOM     13  O   UNL     1      -5.844  12.153  16.983  0.00  0.00    +0.000 OA
BRANCH  12  15
ATOM     14  C   UNL     1      -6.469  13.927  18.935  0.00  0.00    +0.000 C 
ATOM     15  O   UNL     1      -5.562  12.845  19.156  0.00  0.00    +0.000 OA
ENDBRANCH  12  15
ENDBRANCH   6  12
ENDBRANCH   1   9
BRANCH   4  16
ATOM     16  C   UNL     1       2.972   8.135  17.628  0.00  0.00    +0.000 C 
BRANCH  16  17
ATOM     17  N   UNL     1       3.332   6.838  18.251  0.00  0.00    +0.000 NA
ATOM     18  C   UNL     1       2.264   5.843  18.046  0.00  0.00    +0.000 C 
ATOM     19  C   UNL     1       2.613   4.527  18.735  0.00  0.00    +0.000 C 
ATOM     20  C   UNL     1       3.932   3.971  18.219  0.00  0.00    +0.000 C 
ATOM     21  C   UNL     1       5.049   5.016  18.330  0.00  0.00    +0.000 C 
ATOM     22  C   UNL     1       4.607   6.350  17.690  0.00  0.00    +0.000 C 
BRANCH  21  23
ATOM     23  C   UNL     1       6.343   4.515  17.667  0.00  0.00    +0.000 C 
BRANCH  23  24
ATOM     24  N   UNL     1       6.109   3.982  16.336  0.00  0.00    +0.000 N 
ATOM     25  C   UNL     1       6.673   4.541  15.212  0.00  0.00    +0.000 C 
ATOM     26  C   UNL     1       6.323   3.848  13.921  0.00  0.00    +0.000 C 
ATOM     27  O   UNL     1       7.405   5.526  15.232  0.00  0.00    +0.000 OA
ATOM     28  H   UNL     1       5.524   3.162  16.243  0.00  0.00    +0.000 HD
ENDBRANCH  23  24
ENDBRANCH  21  23
ENDBRANCH  16  17
ENDBRANCH   4  16
TORSDOF 7
ENDMDL
MODEL 7
REMARK VINA RESULT:      -7.4      3.862      5.567
REMARK  Name = 
REMARK  9 active torsions:
REMARK  status: ('A' for Active; 'I' for Inactive)
REMARK    1  A    between atoms: C_1  and  O_2
REMARK    2  A    between atoms: O_2  and  C_3
REMARK    3  A    between atoms: C_3  and  C_5
REMARK    4  A    between atoms: C_8  and  C_9
REMARK    5  A    between atoms: C_12  and  C_13
REMARK    6  A    between atoms: C_13  and  N_14
REMARK    7  A    between atoms: C_18  and  C_19
REMARK    8  A    between atoms: C_19  and  N_20
REMARK    9  A    between atoms: C_21  and  C_22
REMARK                            x       y       z     vdW  Elec       q    Type
REMARK                         _______ _______ _______ _____ _____    ______ ____
ROOT
ATOM      1  C   UNL     1       2.906   6.595  18.758  0.00  0.00    +0.000 A 
ATOM      2  N   UNL     1       2.468   5.851  19.787  0.00  0.00    +0.000 NA
ATOM      3  O   UNL     1       1.665   6.732  20.516  0.00  0.00    +0.000 OA
ATOM      4  C   UNL     1       1.701   7.923  19.853  0.00  0.00    +0.000 A 
ATOM      5  N   UNL     1       2.444   7.893  18.771  0.00  0.00    +0.000 NA
ENDROOT
BRANCH   1   9
ATOM      6  C   UNL     1       5.582   5.235  15.700  0.00  0.00    +0.000 A 
ATOM      7  C   UNL     1       4.891   4.311  16.498  0.00  0.00    +0.000 A 
ATOM      8  C   UNL     1       4.002   4.747  17.488  0.00  0.00    +0.000 A 
ATOM      9  C   UNL     1       3.802   6.115  17.710  0.00  0.00    +0.000 A 
ATOM     10  C   UNL     1       4.491   7.036  16.904  0.00  0.00    +0.000 A 
ATOM     11  C   UNL     1       5.375   6.604  15.909  0.00  0.00    +0.000 A 
BRANCH   6  12
ATOM     12  C   UNL     1       6.495   4.711  14.653  0.00  0.00    +0.000 C 
ATOM     13  O   UNL     1       7.595   5.192  14.423  0.00  0.00    +0.000 OA
BRANCH  12  15
ATOM     14  C   UNL     1       6.306   3.557  12.635  0.00  0.00    +0.000 C 
ATOM     15  O   UNL     1       5.952   3.638  14.017  0.00  0.00    +0.000 OA
ENDBRANCH  12  15
ENDBRANCH   6  12
ENDBRANCH   1   9
BRANCH   4  16
ATOM     16  C   UNL     1       0.936   9.069  20.431  0.00  0.00    +0.000 C 
BRANCH  16  17
ATOM     17  N   UNL     1       0.533  10.104  19.448  0.00  0.00    +0.000 NA
ATOM     18  C   UNL     1      -0.933  10.260  19.420  0.00  0.00    +0.000 C 
ATOM     19  C   UNL     1      -1.347  11.285  18.369  0.00  0.00    +0.000 C 
ATOM     20  C   UNL     1      -0.697  12.635  18.634  0.00  0.00    +0.000 C 
ATOM     21  C   UNL     1       0.825  12.496  18.763  0.00  0.00    +0.000 C 
ATOM     22  C   UNL     1       1.182  11.388  19.777  0.00  0.00    +0.000 C 
BRANCH  21  23
ATOM     23  C   UNL     1       1.468  13.827  19.186  0.00  0.00    +0.000 C 
BRANCH  23  24
ATOM     24  N   UNL     1       2.836  13.952  18.715  0.00  0.00    +0.000 N 
ATOM     25  C   UNL     1       3.331  15.131  18.201  0.00  0.00    +0.000 C 
ATOM     26  C   UNL     1       4.772  15.073  17.770  0.00  0.00    +0.000 C 
ATOM     27  O   UNL     1       2.670  16.159  18.093  0.00  0.00    +0.000 OA
ATOM     28  H   UNL     1       3.444  13.147  18.784  0.00  0.00    +0.000 HD
ENDBRANCH  23  24
ENDBRANCH  21  23
ENDBRANCH  16  17
ENDBRANCH   4  16
TORSDOF 7
ENDMDL
MODEL 8
REMARK VINA RESULT:      -7.3      4.915      9.495
REMARK  Name = 
REMARK  9 active torsions:
REMARK  status: ('A' for Active; 'I' for Inactive)
REMARK    1  A    between atoms: C_1  and  O_2
REMARK    2  A    between atoms: O_2  and  C_3
REMARK    3  A    between atoms: C_3  and  C_5
REMARK    4  A    between atoms: C_8  and  C_9
REMARK    5  A    between atoms: C_12  and  C_13
REMARK    6  A    between atoms: C_13  and  N_14
REMARK    7  A    between atoms: C_18  and  C_19
REMARK    8  A    between atoms: C_19  and  N_20
REMARK    9  A    between atoms: C_21  and  C_22
REMARK                            x       y       z     vdW  Elec       q    Type
REMARK                         _______ _______ _______ _____ _____    ______ ____
ROOT
ATOM      1  C   UNL     1       0.914   9.256  20.886  0.00  0.00    +0.000 A 
ATOM      2  N   UNL     1       1.248   8.120  21.520  0.00  0.00    +0.000 NA
ATOM      3  O   UNL     1       1.878   7.360  20.531  0.00  0.00    +0.000 OA
ATOM      4  C   UNL     1       1.859   8.115  19.396  0.00  0.00    +0.000 A 
ATOM      5  N   UNL     1       1.282   9.284  19.558  0.00  0.00    +0.000 NA
ENDROOT
BRANCH   1   9
ATOM      6  C   UNL     1      -1.162  12.568  22.641  0.00  0.00    +0.000 A 
ATOM      7  C   UNL     1      -1.332  11.274  23.154  0.00  0.00    +0.000 A 
ATOM      8  C   UNL     1      -0.645  10.189  22.597  0.00  0.00    +0.000 A 
ATOM      9  C   UNL     1       0.212  10.376  21.505  0.00  0.00    +0.000 A 
ATOM     10  C   UNL     1       0.384  11.675  20.999  0.00  0.00    +0.000 A 
ATOM     11  C   UNL     1      -0.296  12.763  21.558  0.00  0.00    +0.000 A 
BRANCH   6  12
ATOM     12  C   UNL     1      -1.903  13.681  23.287  0.00  0.00    +0.000 C 
ATOM     13  O   UNL     1      -2.842  13.505  24.051  0.00  0.00    +0.000 OA
BRANCH  12  15
ATOM     14  C   UNL     1      -0.905  15.652  24.036  0.00  0.00    +0.000 C 
ATOM     15  O   UNL     1      -1.390  14.889  22.929  0.00  0.00    +0.000 OA
ENDBRANCH  12  15
ENDBRANCH   6  12
ENDBRANCH   1   9
BRANCH   4  16
ATOM     16  C   UNL     1       2.455   7.531  18.156  0.00  0.00    +0.000 C 
BRANCH  16  17
ATOM     17  N   UNL     1       3.017   6.169  18.320  0.00  0.00    +0.000 NA
ATOM     18  C   UNL     1       2.059   5.146  17.865  0.00  0.00    +0.000 C 
ATOM     19  C   UNL     1       2.618   3.744  18.087  0.00  0.00    +0.000 C 
ATOM     20  C   UNL     1       3.941   3.561  17.358  0.00  0.00    +0.000 C 
ATOM     21  C   UNL     1       4.935   4.666  17.738  0.00  0.00    +0.000 C 
ATOM     22  C   UNL     1       4.285   6.056  17.573  0.00  0.00    +0.000 C 
BRANCH  21  23
ATOM     23  C   UNL     1       6.213   4.576  16.888  0.00  0.00    +0.000 C 
BRANCH  23  24
ATOM     24  N   UNL     1       5.958   4.036  15.564  0.00  0.00    +0.000 N 
ATOM     25  C   UNL     1       6.657   4.453  14.454  0.00  0.00    +0.000 C 
ATOM     26  C   UNL     1       6.259   3.776  13.169  0.00  0.00    +0.000 C 
ATOM     27  O   UNL     1       7.538   5.307  14.482  0.00  0.00    +0.000 OA
ATOM     28  H   UNL     1       5.252   3.318  15.465  0.00  0.00    +0.000 HD
ENDBRANCH  23  24
ENDBRANCH  21  23
ENDBRANCH  16  17
ENDBRANCH   4  16
TORSDOF 7
ENDMDL
MODEL 9
REMARK VINA RESULT:      -7.3      4.729      9.653
REMARK  Name = 
REMARK  9 active torsions:
REMARK  status: ('A' for Active; 'I' for Inactive)
REMARK    1  A    between atoms: C_1  and  O_2
REMARK    2  A    between atoms: O_2  and  C_3
REMARK    3  A    between atoms: C_3  and  C_5
REMARK    4  A    between atoms: C_8  and  C_9
REMARK    5  A    between atoms: C_12  and  C_13
REMARK    6  A    between atoms: C_13  and  N_14
REMARK    7  A    between atoms: C_18  and  C_19
REMARK    8  A    between atoms: C_19  and  N_20
REMARK    9  A    between atoms: C_21  and  C_22
REMARK                            x       y       z     vdW  Elec       q    Type
REMARK                         _______ _______ _______ _____ _____    ______ ____
ROOT
ATOM      1  C   UNL     1       0.790   9.306  20.838  0.00  0.00    +0.000 A 
ATOM      2  N   UNL     1       1.191   8.240  21.551  0.00  0.00    +0.000 NA
ATOM      3  O   UNL     1       1.900   7.469  20.627  0.00  0.00    +0.000 OA
ATOM      4  C   UNL     1       1.855   8.148  19.445  0.00  0.00    +0.000 A 
ATOM      5  N   UNL     1       1.190   9.278  19.520  0.00  0.00    +0.000 NA
ENDROOT
BRANCH   1   9
ATOM      6  C   UNL     1      -1.584  12.544  22.335  0.00  0.00    +0.000 A 
ATOM      7  C   UNL     1      -1.402  11.385  23.104  0.00  0.00    +0.000 A 
ATOM      8  C   UNL     1      -0.613  10.330  22.630  0.00  0.00    +0.000 A 
ATOM      9  C   UNL     1      -0.008  10.406  21.369  0.00  0.00    +0.000 A 
ATOM     10  C   UNL     1      -0.189  11.571  20.605  0.00  0.00    +0.000 A 
ATOM     11  C   UNL     1      -0.970  12.631  21.079  0.00  0.00    +0.000 A 
BRANCH   6  12
ATOM     12  C   UNL     1      -2.415  13.637  22.901  0.00  0.00    +0.000 C 
ATOM     13  O   UNL     1      -2.200  14.821  22.685  0.00  0.00    +0.000 OA
BRANCH  12  15
ATOM     14  C   UNL     1      -4.344  14.144  24.110  0.00  0.00    +0.000 C 
ATOM     15  O   UNL     1      -3.430  13.142  23.659  0.00  0.00    +0.000 OA
ENDBRANCH  12  15
ENDBRANCH   6  12
ENDBRANCH   1   9
BRANCH   4  16
ATOM     16  C   UNL     1       2.525   7.534  18.258  0.00  0.00    +0.000 C 
BRANCH  16  17
ATOM     17  N   UNL     1       3.024   6.155  18.473  0.00  0.00    +0.000 NA
ATOM     18  C   UNL     1       2.073   5.162  17.942  0.00  0.00    +0.000 C 
ATOM     19  C   UNL     1       2.564   3.744  18.213  0.00  0.00    +0.000 C 
ATOM     20  C   UNL     1       3.936   3.512  17.598  0.00  0.00    +0.000 C 
ATOM     21  C   UNL     1       4.932   4.585  18.057  0.00  0.00    +0.000 C 
ATOM     22  C   UNL     1       4.346   5.995  17.835  0.00  0.00    +0.000 C 
BRANCH  21  23
ATOM     23  C   UNL     1       6.273   4.447  17.318  0.00  0.00    +0.000 C 
BRANCH  23  24
ATOM     24  N   UNL     1       6.108   3.940  15.967  0.00  0.00    +0.000 N 
ATOM     25  C   UNL     1       6.736   4.516  14.885  0.00  0.00    +0.000 C 
ATOM     26  C   UNL     1       6.452   3.849  13.565  0.00  0.00    +0.000 C 
ATOM     27  O   UNL     1       7.472   5.495  14.964  0.00  0.00    +0.000 OA
ATOM     28  H   UNL     1       5.524   3.126  15.827  0.00  0.00    +0.000 HD
ENDBRANCH  23  24
ENDBRANCH  21  23
ENDBRANCH  16  17
ENDBRANCH   4  16
TORSDOF 7
ENDMDL
