MODEL 1
REMARK VINA RESULT:      -7.1      0.000      0.000
REMARK  Name = 
REMARK  7 active torsions:
REMARK  status: ('A' for Active; 'I' for Inactive)
REMARK    1  A    between atoms: C_1  and  C_2
REMARK    2  A    between atoms: C_2  and  C_3
REMARK    3  A    between atoms: C_2  and  N_4
REMARK    4  A    between atoms: C_11  and  C_12
REMARK    5  A    between atoms: C_17  and  O_18
REMARK    6  A    between atoms: C_20  and  C_21
REMARK    7  A    between atoms: C_26  and  O_27
REMARK                            x       y       z     vdW  Elec       q    Type
REMARK                         _______ _______ _______ _____ _____    ______ ____
ROOT
ATOM      1  N   UNL     1       5.568   5.140  15.420  0.00  0.00    +0.000 NA
ATOM      2  C   UNL     1       4.553   4.318  16.089  0.00  0.00    +0.000 C 
ATOM      3  C   UNL     1       3.474   5.185  16.732  0.00  0.00    +0.000 C 
ATOM      4  C   UNL     1       4.041   6.133  17.814  0.00  0.00    +0.000 C 
ATOM      5  C   UNL     1       5.089   6.985  17.058  0.00  0.00    +0.000 C 
ATOM      6  C   UNL     1       6.150   6.142  16.328  0.00  0.00    +0.000 C 
ATOM      7  N   UNL     1       2.976   7.061  18.231  0.00  0.00    +0.000 NA
ATOM      8  C   UNL     1       2.606   7.148  19.466  0.00  0.00    +0.000 C 
ATOM      9  C   UNL     1       3.172   6.281  20.567  0.00  0.00    +0.000 C 
ATOM     10  C   UNL     1       3.845   5.039  20.017  0.00  0.00    +0.000 C 
ATOM     11  N   UNL     1       4.719   5.466  18.926  0.00  0.00    +0.000 NA
ATOM     12  H   UNL     1       5.263   4.668  18.609  0.00  0.00    +0.000 HD
ENDROOT
BRANCH   8  13
ATOM     13  C   UNL     1       1.530   8.124  19.851  0.00  0.00    +0.000 A 
ATOM     14  C   UNL     1       0.894   7.944  21.084  0.00  0.00    +0.000 A 
ATOM     15  C   UNL     1      -0.074   8.849  21.531  0.00  0.00    +0.000 A 
ATOM     16  C   UNL     1      -0.422   9.936  20.736  0.00  0.00    +0.000 A 
ATOM     17  C   UNL     1       0.181  10.120  19.496  0.00  0.00    +0.000 A 
ATOM     18  C   UNL     1       1.150   9.214  19.054  0.00  0.00    +0.000 A 
BRANCH  18  19
ATOM     19  O   UNL     1       1.697   9.414  17.818  0.00  0.00    +0.000 OA
ATOM     20  H   UNL     1       1.690   8.586  17.314  0.00  0.00    +0.000 HD
ENDBRANCH  18  19
ENDBRANCH   8  13
BRANCH  10  21
ATOM     21  C   UNL     1       2.960   3.847  19.662  0.00  0.00    +0.000 A 
ATOM     22  C   UNL     1       1.555   3.923  19.672  0.00  0.00    +0.000 A 
ATOM     23  C   UNL     1       0.775   2.910  19.108  0.00  0.00    +0.000 A 
ATOM     24  C   UNL     1       1.380   1.776  18.576  0.00  0.00    +0.000 A 
ATOM     25  C   UNL     1       2.762   1.630  18.654  0.00  0.00    +0.000 A 
ATOM     26  C   UNL     1       3.537   2.654  19.201  0.00  0.00    +0.000 A 
BRANCH  26  27
ATOM     27  O   UNL     1       4.895   2.499  19.265  0.00  0.00    +0.000 OA
ATOM     28  H   UNL     1       5.166   2.591  20.193  0.00  0.00    +0.000 HD
ENDBRANCH  26  27
ENDBRANCH  10  21
BRANCH   1  30
ATOM     29  C   UNL     1       5.898   3.558  13.506  0.00  0.00    +0.000 C 
ATOM     30  C   UNL     1       6.544   4.316  14.673  0.00  0.00    +0.000 C 
ATOM     31  C   UNL     1       7.796   5.054  14.175  0.00  0.00    +0.000 C 
ENDBRANCH   1  30
TORSDOF 5
ENDMDL
MODEL 2
REMARK VINA RESULT:      -7.0      1.872      6.559
REMARK  Name = 
REMARK  7 active torsions:
REMARK  status: ('A' for Active; 'I' for Inactive)
REMARK    1  A    between atoms: C_1  and  C_2
REMARK    2  A    between atoms: C_2  and  C_3
REMARK    3  A    between atoms: C_2  and  N_4
REMARK    4  A    between atoms: C_11  and  C_12
REMARK    5  A    between atoms: C_17  and  O_18
REMARK    6  A    between atoms: C_20  and  C_21
REMARK    7  A    between atoms: C_26  and  O_27
REMARK                            x       y       z     vdW  Elec       q    Type
REMARK                         _______ _______ _______ _____ _____    ______ ____
ROOT
ATOM      1  N   UNL     1       1.513   8.218  20.443  0.00  0.00    +0.000 NA
ATOM      2  C   UNL     1       1.922   6.852  20.793  0.00  0.00    +0.000 C 
ATOM      3  C   UNL     1       3.067   6.372  19.906  0.00  0.00    +0.000 C 
ATOM      4  C   UNL     1       2.682   6.334  18.409  0.00  0.00    +0.000 C 
ATOM      5  C   UNL     1       2.277   7.792  18.086  0.00  0.00    +0.000 C 
ATOM      6  C   UNL     1       1.179   8.341  19.014  0.00  0.00    +0.000 C 
ATOM      7  N   UNL     1       3.894   6.056  17.618  0.00  0.00    +0.000 NA
ATOM      8  C   UNL     1       3.958   5.042  16.821  0.00  0.00    +0.000 C 
ATOM      9  C   UNL     1       2.845   4.030  16.671  0.00  0.00    +0.000 C 
ATOM     10  C   UNL     1       1.887   4.067  17.845  0.00  0.00    +0.000 C 
ATOM     11  N   UNL     1       1.548   5.469  18.084  0.00  0.00    +0.000 NA
ATOM     12  H   UNL     1       0.825   5.515  18.797  0.00  0.00    +0.000 HD
ENDROOT
BRANCH   8  13
ATOM     13  C   UNL     1       5.206   4.808  16.017  0.00  0.00    +0.000 A 
ATOM     14  C   UNL     1       5.060   4.371  14.695  0.00  0.00    +0.000 A 
ATOM     15  C   UNL     1       6.178   4.191  13.873  0.00  0.00    +0.000 A 
ATOM     16  C   UNL     1       7.452   4.434  14.376  0.00  0.00    +0.000 A 
ATOM     17  C   UNL     1       7.619   4.846  15.693  0.00  0.00    +0.000 A 
ATOM     18  C   UNL     1       6.500   5.028  16.512  0.00  0.00    +0.000 A 
BRANCH  18  19
ATOM     19  O   UNL     1       6.709   5.405  17.808  0.00  0.00    +0.000 OA
ATOM     20  H   UNL     1       5.968   5.947  18.120  0.00  0.00    +0.000 HD
ENDBRANCH  18  19
ENDBRANCH   8  13
BRANCH  10  21
ATOM     21  C   UNL     1       2.281   3.308  19.109  0.00  0.00    +0.000 A 
ATOM     22  C   UNL     1       3.570   2.780  19.300  0.00  0.00    +0.000 A 
ATOM     23  C   UNL     1       3.981   2.314  20.552  0.00  0.00    +0.000 A 
ATOM     24  C   UNL     1       3.092   2.314  21.623  0.00  0.00    +0.000 A 
ATOM     25  C   UNL     1       1.778   2.729  21.430  0.00  0.00    +0.000 A 
ATOM     26  C   UNL     1       1.380   3.212  20.181  0.00  0.00    +0.000 A 
BRANCH  26  27
ATOM     27  O   UNL     1       0.087   3.623  20.008  0.00  0.00    +0.000 OA
ATOM     28  H   UNL     1       0.055   4.198  19.226  0.00  0.00    +0.000 HD
ENDBRANCH  26  27
ENDBRANCH  10  21
BRANCH   1  30
ATOM     29  C   UNL     1       1.130   9.294  22.671  0.00  0.00    +0.000 C 
ATOM     30  C   UNL     1       0.502   8.752  21.381  0.00  0.00    +0.000 C 
ATOM     31  C   UNL     1      -0.460   9.798  20.799  0.00  0.00    +0.000 C 
ENDBRANCH   1  30
TORSDOF 5
ENDMDL
MODEL 3
REMARK VINA RESULT:      -6.5      4.109      9.049
REMARK  Name = 
REMARK  7 active torsions:
REMARK  status: ('A' for Active; 'I' for Inactive)
REMARK    1  A    between atoms: C_1  and  C_2
REMARK    2  A    between atoms: C_2  and  C_3
REMARK    3  A    between atoms: C_2  and  N_4
REMARK    4  A    between atoms: C_11  and  C_12
REMARK    5  A    between atoms: C_17  and  O_18
REMARK    6  A    between atoms: C_20  and  C_21
REMARK    7  A    between atoms: C_26  and  O_27
REMARK                            x       y       z     vdW  Elec       q    Type
REMARK                         _______ _______ _______ _____ _____    ______ ____
ROOT
ATOM      1  N   UNL     1       2.446  15.211  19.422  0.00  0.00    +0.000 NA
ATOM      2  C   UNL     1       1.524  14.530  20.339  0.00  0.00    +0.000 C 
ATOM      3  C   UNL     1       1.802  13.030  20.391  0.00  0.00    +0.000 C 
ATOM      4  C   UNL     1       1.623  12.346  19.015  0.00  0.00    +0.000 C 
ATOM      5  C   UNL     1       2.622  13.085  18.093  0.00  0.00    +0.000 C 
ATOM      6  C   UNL     1       2.425  14.611  18.078  0.00  0.00    +0.000 C 
ATOM      7  N   UNL     1       2.101  10.956  19.115  0.00  0.00    +0.000 NA
ATOM      8  C   UNL     1       1.330   9.959  18.833  0.00  0.00    +0.000 C 
ATOM      9  C   UNL     1      -0.122  10.114  18.443  0.00  0.00    +0.000 C 
ATOM     10  C   UNL     1      -0.676  11.463  18.855  0.00  0.00    +0.000 C 
ATOM     11  N   UNL     1       0.288  12.476  18.429  0.00  0.00    +0.000 NA
ATOM     12  H   UNL     1      -0.107  13.396  18.598  0.00  0.00    +0.000 HD
ENDROOT
BRANCH   8  13
ATOM     13  C   UNL     1       1.865   8.558  18.928  0.00  0.00    +0.000 A 
ATOM     14  C   UNL     1       2.479   8.014  17.794  0.00  0.00    +0.000 A 
ATOM     15  C   UNL     1       3.051   6.738  17.831  0.00  0.00    +0.000 A 
ATOM     16  C   UNL     1       3.000   5.991  19.004  0.00  0.00    +0.000 A 
ATOM     17  C   UNL     1       2.373   6.504  20.134  0.00  0.00    +0.000 A 
ATOM     18  C   UNL     1       1.805   7.781  20.095  0.00  0.00    +0.000 A 
BRANCH  18  19
ATOM     19  O   UNL     1       1.174   8.236  21.218  0.00  0.00    +0.000 OA
ATOM     20  H   UNL     1       0.682   7.514  21.639  0.00  0.00    +0.000 HD
ENDBRANCH  18  19
ENDBRANCH   8  13
BRANCH  10  21
ATOM     21  C   UNL     1      -1.143  11.630  20.298  0.00  0.00    +0.000 A 
ATOM     22  C   UNL     1      -0.802  10.715  21.311  0.00  0.00    +0.000 A 
ATOM     23  C   UNL     1      -1.025  11.014  22.658  0.00  0.00    +0.000 A 
ATOM     24  C   UNL     1      -1.645  12.207  23.015  0.00  0.00    +0.000 A 
ATOM     25  C   UNL     1      -2.090  13.078  22.025  0.00  0.00    +0.000 A 
ATOM     26  C   UNL     1      -1.847  12.782  20.682  0.00  0.00    +0.000 A 
BRANCH  26  27
ATOM     27  O   UNL     1      -2.284  13.650  19.719  0.00  0.00    +0.000 OA
ATOM     28  H   UNL     1      -1.552  13.811  19.101  0.00  0.00    +0.000 HD
ENDBRANCH  26  27
ENDBRANCH  10  21
BRANCH   1  30
ATOM     29  C   UNL     1       1.195  17.178  18.507  0.00  0.00    +0.000 C 
ATOM     30  C   UNL     1       2.284  16.681  19.466  0.00  0.00    +0.000 C 
ATOM     31  C   UNL     1       2.056  17.285  20.860  0.00  0.00    +0.000 C 
ENDBRANCH   1  30
TORSDOF 5
ENDMDL
MODEL 4
REMARK VINA RESULT:      -6.4      4.170      9.075
REMARK  Name = 
REMARK  7 active torsions:
REMARK  status: ('A' for Active; 'I' for Inactive)
REMARK    1  A    between atoms: C_1  and  C_2
REMARK    2  A    between atoms: C_2  and  C_3
REMARK    3  A    between atoms: C_2  and  N_4
REMARK    4  A    between atoms: C_11  and  C_12
REMARK    5  A    between atoms: C_17  and  O_18
REMARK    6  A    between atoms: C_20  and  C_21
REMARK    7  A    between atoms: C_26  and  O_27
REMARK                            x       y       z     vdW  Elec       q    Type
REMARK                         _______ _______ _______ _____ _____    ______ ____
ROOT
ATOM      1  N   UNL     1       2.505  15.266  19.236  0.00  0.00    +0.000 NA
ATOM      2  C   UNL     1       1.575  14.697  20.219  0.00  0.00    +0.000 C 
ATOM      3  C   UNL     1       1.791  13.195  20.382  0.00  0.00    +0.000 C 
ATOM      4  C   UNL     1       1.555  12.416  19.066  0.00  0.00    +0.000 C 
ATOM      5  C   UNL     1       2.564  13.038  18.072  0.00  0.00    +0.000 C 
ATOM      6  C   UNL     1       2.431  14.566  17.942  0.00  0.00    +0.000 C 
ATOM      7  N   UNL     1       1.977  11.018  19.265  0.00  0.00    +0.000 NA
ATOM      8  C   UNL     1       1.159  10.037  19.074  0.00  0.00    +0.000 C 
ATOM      9  C   UNL     1      -0.293  10.224  18.699  0.00  0.00    +0.000 C 
ATOM     10  C   UNL     1      -0.782  11.623  19.016  0.00  0.00    +0.000 C 
ATOM     11  N   UNL     1       0.215  12.558  18.496  0.00  0.00    +0.000 NA
ATOM     12  H   UNL     1      -0.138  13.505  18.600  0.00  0.00    +0.000 HD
ENDROOT
BRANCH   8  13
ATOM     13  C   UNL     1       1.637   8.625  19.267  0.00  0.00    +0.000 A 
ATOM     14  C   UNL     1       1.375   8.008  20.496  0.00  0.00    +0.000 A 
ATOM     15  C   UNL     1       1.740   6.676  20.721  0.00  0.00    +0.000 A 
ATOM     16  C   UNL     1       2.383   5.957  19.719  0.00  0.00    +0.000 A 
ATOM     17  C   UNL     1       2.674   6.560  18.500  0.00  0.00    +0.000 A 
ATOM     18  C   UNL     1       2.305   7.890  18.277  0.00  0.00    +0.000 A 
BRANCH  18  19
ATOM     19  O   UNL     1       2.635   8.453  17.077  0.00  0.00    +0.000 OA
ATOM     20  H   UNL     1       2.047   9.202  16.888  0.00  0.00    +0.000 HD
ENDBRANCH  18  19
ENDBRANCH   8  13
BRANCH  10  21
ATOM     21  C   UNL     1      -1.211  11.920  20.450  0.00  0.00    +0.000 A 
ATOM     22  C   UNL     1      -0.953  11.035  21.512  0.00  0.00    +0.000 A 
ATOM     23  C   UNL     1      -1.127  11.432  22.840  0.00  0.00    +0.000 A 
ATOM     24  C   UNL     1      -1.617  12.701  23.131  0.00  0.00    +0.000 A 
ATOM     25  C   UNL     1      -1.983  13.555  22.095  0.00  0.00    +0.000 A 
ATOM     26  C   UNL     1      -1.787  13.159  20.770  0.00  0.00    +0.000 A 
BRANCH  26  27
ATOM     27  O   UNL     1      -2.145  14.011  19.761  0.00  0.00    +0.000 OA
ATOM     28  H   UNL     1      -2.992  14.423  19.999  0.00  0.00    +0.000 HD
ENDBRANCH  26  27
ENDBRANCH  10  21
BRANCH   1  30
ATOM     29  C   UNL     1       1.076  17.210  18.566  0.00  0.00    +0.000 C 
ATOM     30  C   UNL     1       2.406  16.740  19.169  0.00  0.00    +0.000 C 
ATOM     31  C   UNL     1       2.665  17.486  20.487  0.00  0.00    +0.000 C 
ENDBRANCH   1  30
TORSDOF 5
ENDMDL
MODEL 5
REMARK VINA RESULT:      -6.3      4.690      9.799
REMARK  Name = 
REMARK  7 active torsions:
REMARK  status: ('A' for Active; 'I' for Inactive)
REMARK    1  A    between atoms: C_1  and  C_2
REMARK    2  A    between atoms: C_2  and  C_3
REMARK    3  A    between atoms: C_2  and  N_4
REMARK    4  A    between atoms: C_11  and  C_12
REMARK    5  A    between atoms: C_17  and  O_18
REMARK    6  A    between atoms: C_20  and  C_21
REMARK    7  A    between atoms: C_26  and  O_27
REMARK                            x       y       z     vdW  Elec       q    Type
REMARK                         _______ _______ _______ _____ _____    ______ ____
ROOT
ATOM      1  N   UNL     1       1.385  16.064  19.951  0.00  0.00    +0.000 NA
ATOM      2  C   UNL     1       0.482  15.328  20.844  0.00  0.00    +0.000 C 
ATOM      3  C   UNL     1       0.849  13.848  20.907  0.00  0.00    +0.000 C 
ATOM      4  C   UNL     1       0.750  13.154  19.528  0.00  0.00    +0.000 C 
ATOM      5  C   UNL     1       1.726  13.951  18.632  0.00  0.00    +0.000 C 
ATOM      6  C   UNL     1       1.438  15.463  18.608  0.00  0.00    +0.000 C 
ATOM      7  N   UNL     1       1.309  11.796  19.645  0.00  0.00    +0.000 NA
ATOM      8  C   UNL     1       0.608  10.753  19.344  0.00  0.00    +0.000 C 
ATOM      9  C   UNL     1      -0.840  10.819  18.914  0.00  0.00    +0.000 C 
ATOM     10  C   UNL     1      -1.486  12.132  19.309  0.00  0.00    +0.000 C 
ATOM     11  N   UNL     1      -0.574  13.202  18.907  0.00  0.00    +0.000 NA
ATOM     12  H   UNL     1      -1.029  14.096  19.062  0.00  0.00    +0.000 HD
ENDROOT
BRANCH   8  13
ATOM     13  C   UNL     1       1.225   9.387  19.457  0.00  0.00    +0.000 A 
ATOM     14  C   UNL     1       1.049   8.686  20.655  0.00  0.00    +0.000 A 
ATOM     15  C   UNL     1       1.546   7.387  20.805  0.00  0.00    +0.000 A 
ATOM     16  C   UNL     1       2.236   6.786  19.757  0.00  0.00    +0.000 A 
ATOM     17  C   UNL     1       2.443   7.475  18.567  0.00  0.00    +0.000 A 
ATOM     18  C   UNL     1       1.943   8.772  18.420  0.00  0.00    +0.000 A 
BRANCH  18  19
ATOM     19  O   UNL     1       2.192   9.425  17.246  0.00  0.00    +0.000 OA
ATOM     20  H   UNL     1       1.576   9.124  16.560  0.00  0.00    +0.000 HD
ENDBRANCH  18  19
ENDBRANCH   8  13
BRANCH  10  21
ATOM     21  C   UNL     1      -2.001  12.271  20.738  0.00  0.00    +0.000 A 
ATOM     22  C   UNL     1      -1.579  11.422  21.777  0.00  0.00    +0.000 A 
ATOM     23  C   UNL     1      -1.865  11.719  23.113  0.00  0.00    +0.000 A 
ATOM     24  C   UNL     1      -2.627  12.838  23.431  0.00  0.00    +0.000 A 
ATOM     25  C   UNL     1      -3.148  13.631  22.414  0.00  0.00    +0.000 A 
ATOM     26  C   UNL     1      -2.842  13.341  21.082  0.00  0.00    +0.000 A 
BRANCH  26  27
ATOM     27  O   UNL     1      -3.355  14.133  20.093  0.00  0.00    +0.000 OA
ATOM     28  H   UNL     1      -4.204  13.754  19.811  0.00  0.00    +0.000 HD
ENDBRANCH  26  27
ENDBRANCH  10  21
BRANCH   1  30
ATOM     29  C   UNL     1       2.136  18.266  20.877  0.00  0.00    +0.000 C 
ATOM     30  C   UNL     1       1.133  17.522  19.986  0.00  0.00    +0.000 C 
ATOM     31  C   UNL     1       1.047  18.215  18.618  0.00  0.00    +0.000 C 
ENDBRANCH   1  30
TORSDOF 5
ENDMDL
MODEL 6
REMARK VINA RESULT:      -6.2      4.846      9.924
REMARK  Name = 
REMARK  7 active torsions:
REMARK  status: ('A' for Active; 'I' for Inactive)
REMARK    1  A    between atoms: C_1  and  C_2
REMARK    2  A    between atoms: C_2  and  C_3
REMARK    3  A    between atoms: C_2  and  N_4
REMARK    4  A    between atoms: C_11  and  C_12
REMARK    5  A    between atoms: C_17  and  O_18
REMARK    6  A    between atoms: C_20  and  C_21
REMARK    7  A    between atoms: C_26  and  O_27
REMARK                            x       y       z     vdW  Elec       q    Type
REMARK                         _______ _______ _______ _____ _____    ______ ____
ROOT
ATOM      1  N   UNL     1       1.769  16.187  20.167  0.00  0.00    +0.000 NA
ATOM      2  C   UNL     1       0.833  15.420  20.998  0.00  0.00    +0.000 C 
ATOM      3  C   UNL     1       1.130  13.925  20.931  0.00  0.00    +0.000 C 
ATOM      4  C   UNL     1       0.995  13.358  19.498  0.00  0.00    +0.000 C 
ATOM      5  C   UNL     1       2.007  14.183  18.668  0.00  0.00    +0.000 C 
ATOM      6  C   UNL     1       1.791  15.703  18.777  0.00  0.00    +0.000 C 
ATOM      7  N   UNL     1       1.489  11.970  19.493  0.00  0.00    +0.000 NA
ATOM      8  C   UNL     1       0.739  10.991  19.107  0.00  0.00    +0.000 C 
ATOM      9  C   UNL     1      -0.704  11.163  18.693  0.00  0.00    +0.000 C 
ATOM     10  C   UNL     1      -1.287  12.466  19.203  0.00  0.00    +0.000 C 
ATOM     11  N   UNL     1      -0.326  13.522  18.890  0.00  0.00    +0.000 NA
ATOM     12  H   UNL     1      -0.738  14.420  19.125  0.00  0.00    +0.000 HD
ENDROOT
BRANCH   8  13
ATOM     13  C   UNL     1       1.291   9.593  19.097  0.00  0.00    +0.000 A 
ATOM     14  C   UNL     1       1.750   9.080  17.879  0.00  0.00    +0.000 A 
ATOM     15  C   UNL     1       2.330   7.809  17.811  0.00  0.00    +0.000 A 
ATOM     16  C   UNL     1       2.440   7.036  18.962  0.00  0.00    +0.000 A 
ATOM     17  C   UNL     1       1.968   7.519  20.178  0.00  0.00    +0.000 A 
ATOM     18  C   UNL     1       1.392   8.791  20.244  0.00  0.00    +0.000 A 
BRANCH  18  19
ATOM     19  O   UNL     1       0.915   9.216  21.451  0.00  0.00    +0.000 OA
ATOM     20  H   UNL     1       0.641   8.456  21.987  0.00  0.00    +0.000 HD
ENDBRANCH  18  19
ENDBRANCH   8  13
BRANCH  10  21
ATOM     21  C   UNL     1      -1.793  12.504  20.642  0.00  0.00    +0.000 A 
ATOM     22  C   UNL     1      -1.498  11.491  21.572  0.00  0.00    +0.000 A 
ATOM     23  C   UNL     1      -1.755  11.666  22.934  0.00  0.00    +0.000 A 
ATOM     24  C   UNL     1      -2.364  12.832  23.386  0.00  0.00    +0.000 A 
ATOM     25  C   UNL     1      -2.764  13.801  22.472  0.00  0.00    +0.000 A 
ATOM     26  C   UNL     1      -2.486  13.630  21.114  0.00  0.00    +0.000 A 
BRANCH  26  27
ATOM     27  O   UNL     1      -2.879  14.594  20.227  0.00  0.00    +0.000 OA
ATOM     28  H   UNL     1      -2.138  15.208  20.099  0.00  0.00    +0.000 HD
ENDBRANCH  26  27
ENDBRANCH  10  21
BRANCH   1  30
ATOM     29  C   UNL     1       2.856  18.340  20.842  0.00  0.00    +0.000 C 
ATOM     30  C   UNL     1       1.587  17.647  20.330  0.00  0.00    +0.000 C 
ATOM     31  C   UNL     1       1.055  18.393  19.097  0.00  0.00    +0.000 C 
ENDBRANCH   1  30
TORSDOF 5
ENDMDL
MODEL 7
REMARK VINA RESULT:      -6.1      1.892      6.442
REMARK  Name = 
REMARK  7 active torsions:
REMARK  status: ('A' for Active; 'I' for Inactive)
REMARK    1  A    between atoms: C_1  and  C_2
REMARK    2  A    between atoms: C_2  and  C_3
REMARK    3  A    between atoms: C_2  and  N_4
REMARK    4  A    between atoms: C_11  and  C_12
REMARK    5  A    between atoms: C_17  and  O_18
REMARK    6  A    between atoms: C_20  and  C_21
REMARK    7  A    between atoms: C_26  and  O_27
REMARK                            x       y       z     vdW  Elec       q    Type
REMARK                         _______ _______ _______ _____ _____    ______ ____
ROOT
ATOM      1  N   UNL     1       1.111   8.853  20.277  0.00  0.00    +0.000 NA
ATOM      2  C   UNL     1       1.483   7.525  20.780  0.00  0.00    +0.000 C 
ATOM      3  C   UNL     1       2.716   6.985  20.062  0.00  0.00    +0.000 C 
ATOM      4  C   UNL     1       2.492   6.821  18.540  0.00  0.00    +0.000 C 
ATOM      5  C   UNL     1       2.121   8.243  18.057  0.00  0.00    +0.000 C 
ATOM      6  C   UNL     1       0.930   8.855  18.815  0.00  0.00    +0.000 C 
ATOM      7  N   UNL     1       3.781   6.491  17.907  0.00  0.00    +0.000 NA
ATOM      8  C   UNL     1       3.930   5.415  17.208  0.00  0.00    +0.000 C 
ATOM      9  C   UNL     1       2.840   4.383  17.026  0.00  0.00    +0.000 C 
ATOM     10  C   UNL     1       1.764   4.506  18.086  0.00  0.00    +0.000 C 
ATOM     11  N   UNL     1       1.399   5.920  18.171  0.00  0.00    +0.000 NA
ATOM     12  H   UNL     1       0.605   6.017  18.797  0.00  0.00    +0.000 HD
ENDROOT
BRANCH   8  13
ATOM     13  C   UNL     1       5.256   5.128  16.562  0.00  0.00    +0.000 A 
ATOM     14  C   UNL     1       5.344   5.242  15.170  0.00  0.00    +0.000 A 
ATOM     15  C   UNL     1       6.562   5.047  14.510  0.00  0.00    +0.000 A 
ATOM     16  C   UNL     1       7.700   4.723  15.242  0.00  0.00    +0.000 A 
ATOM     17  C   UNL     1       7.628   4.582  16.624  0.00  0.00    +0.000 A 
ATOM     18  C   UNL     1       6.410   4.780  17.280  0.00  0.00    +0.000 A 
BRANCH  18  19
ATOM     19  O   UNL     1       6.376   4.604  18.634  0.00  0.00    +0.000 OA
ATOM     20  H   UNL     1       7.216   4.229  18.942  0.00  0.00    +0.000 HD
ENDBRANCH  18  19
ENDBRANCH   8  13
BRANCH  10  21
ATOM     21  C   UNL     1       2.023   3.858  19.443  0.00  0.00    +0.000 A 
ATOM     22  C   UNL     1       1.166   4.043  20.543  0.00  0.00    +0.000 A 
ATOM     23  C   UNL     1       1.281   3.251  21.688  0.00  0.00    +0.000 A 
ATOM     24  C   UNL     1       2.290   2.298  21.780  0.00  0.00    +0.000 A 
ATOM     25  C   UNL     1       3.218   2.173  20.750  0.00  0.00    +0.000 A 
ATOM     26  C   UNL     1       3.085   2.954  19.599  0.00  0.00    +0.000 A 
BRANCH  26  27
ATOM     27  O   UNL     1       4.000   2.815  18.592  0.00  0.00    +0.000 OA
ATOM     28  H   UNL     1       3.634   3.227  17.792  0.00  0.00    +0.000 HD
ENDBRANCH  26  27
ENDBRANCH  10  21
BRANCH   1  30
ATOM     29  C   UNL     1       0.245   9.370  22.569  0.00  0.00    +0.000 C 
ATOM     30  C   UNL     1       0.005   9.452  21.056  0.00  0.00    +0.000 C 
ATOM     31  C   UNL     1      -0.375  10.890  20.674  0.00  0.00    +0.000 C 
ENDBRANCH   1  30
TORSDOF 5
ENDMDL
MODEL 8
REMARK VINA RESULT:      -6.0      0.926      1.293
REMARK  Name = 
REMARK  7 active torsions:
REMARK  status: ('A' for Active; 'I' for Inactive)
REMARK    1  A    between atoms: C_1  and  C_2
REMARK    2  A    between atoms: C_2  and  C_3
REMARK    3  A    between atoms: C_2  and  N_4
REMARK    4  A    between atoms: C_11  and  C_12
REMARK    5  A    between atoms: C_17  and  O_18
REMARK    6  A    between atoms: C_20  and  C_21
REMARK    7  A    between atoms: C_26  and  O_27
REMARK                            x       y       z     vdW  Elec       q    Type
REMARK                         _______ _______ _______ _____ _____    ______ ____
ROOT
ATOM      1  N   UNL     1       5.619   5.054  15.077  0.00  0.00    +0.000 NA
ATOM      2  C   UNL     1       4.628   4.276  15.830  0.00  0.00    +0.000 C 
ATOM      3  C   UNL     1       3.548   5.178  16.421  0.00  0.00    +0.000 C 
ATOM      4  C   UNL     1       4.121   6.219  17.412  0.00  0.00    +0.000 C 
ATOM      5  C   UNL     1       5.143   7.020  16.570  0.00  0.00    +0.000 C 
ATOM      6  C   UNL     1       6.202   6.134  15.890  0.00  0.00    +0.000 C 
ATOM      7  N   UNL     1       3.050   7.164  17.772  0.00  0.00    +0.000 NA
ATOM      8  C   UNL     1       2.701   7.345  19.003  0.00  0.00    +0.000 C 
ATOM      9  C   UNL     1       3.300   6.578  20.159  0.00  0.00    +0.000 C 
ATOM     10  C   UNL     1       3.981   5.305  19.700  0.00  0.00    +0.000 C 
ATOM     11  N   UNL     1       4.829   5.654  18.561  0.00  0.00    +0.000 NA
ATOM     12  H   UNL     1       5.378   4.840  18.300  0.00  0.00    +0.000 HD
ENDROOT
BRANCH   8  13
ATOM     13  C   UNL     1       1.618   8.336  19.328  0.00  0.00    +0.000 A 
ATOM     14  C   UNL     1       1.102   9.108  18.282  0.00  0.00    +0.000 A 
ATOM     15  C   UNL     1       0.052  10.006  18.504  0.00  0.00    +0.000 A 
ATOM     16  C   UNL     1      -0.479  10.146  19.782  0.00  0.00    +0.000 A 
ATOM     17  C   UNL     1       0.036   9.405  20.840  0.00  0.00    +0.000 A 
ATOM     18  C   UNL     1       1.083   8.506  20.614  0.00  0.00    +0.000 A 
BRANCH  18  19
ATOM     19  O   UNL     1       1.580   7.819  21.685  0.00  0.00    +0.000 OA
ATOM     20  H   UNL     1       0.920   7.186  22.009  0.00  0.00    +0.000 HD
ENDBRANCH  18  19
ENDBRANCH   8  13
BRANCH  10  21
ATOM     21  C   UNL     1       3.107   4.077  19.460  0.00  0.00    +0.000 A 
ATOM     22  C   UNL     1       1.702   4.148  19.417  0.00  0.00    +0.000 A 
ATOM     23  C   UNL     1       0.939   3.074  18.952  0.00  0.00    +0.000 A 
ATOM     24  C   UNL     1       1.561   1.888  18.575  0.00  0.00    +0.000 A 
ATOM     25  C   UNL     1       2.939   1.756  18.712  0.00  0.00    +0.000 A 
ATOM     26  C   UNL     1       3.698   2.840  19.159  0.00  0.00    +0.000 A 
BRANCH  26  27
ATOM     27  O   UNL     1       5.053   2.699  19.282  0.00  0.00    +0.000 OA
ATOM     28  H   UNL     1       5.435   3.575  19.451  0.00  0.00    +0.000 HD
ENDBRANCH  26  27
ENDBRANCH  10  21
BRANCH   1  30
ATOM     29  C   UNL     1       5.940   3.340  13.279  0.00  0.00    +0.000 C 
ATOM     30  C   UNL     1       6.593   4.185  14.381  0.00  0.00    +0.000 C 
ATOM     31  C   UNL     1       7.834   4.894  13.817  0.00  0.00    +0.000 C 
ENDBRANCH   1  30
TORSDOF 5
ENDMDL
MODEL 9
REMARK VINA RESULT:      -6.0      8.283     12.383
REMARK  Name = 
REMARK  7 active torsions:
REMARK  status: ('A' for Active; 'I' for Inactive)
REMARK    1  A    between atoms: C_1  and  C_2
REMARK    2  A    between atoms: C_2  and  C_3
REMARK    3  A    between atoms: C_2  and  N_4
REMARK    4  A    between atoms: C_11  and  C_12
REMARK    5  A    between atoms: C_17  and  O_18
REMARK    6  A    between atoms: C_20  and  C_21
REMARK    7  A    between atoms: C_26  and  O_27
REMARK                            x       y       z     vdW  Elec       q    Type
REMARK                         _______ _______ _______ _____ _____    ______ ____
ROOT
ATOM      1  N   UNL     1      -4.927  15.443  23.155  0.00  0.00    +0.000 NA
ATOM      2  C   UNL     1      -3.760  15.860  22.369  0.00  0.00    +0.000 C 
ATOM      3  C   UNL     1      -3.655  15.068  21.069  0.00  0.00    +0.000 C 
ATOM      4  C   UNL     1      -3.490  13.549  21.310  0.00  0.00    +0.000 C 
ATOM      5  C   UNL     1      -4.747  13.157  22.124  0.00  0.00    +0.000 C 
ATOM      6  C   UNL     1      -4.931  13.991  23.404  0.00  0.00    +0.000 C 
ATOM      7  N   UNL     1      -3.600  12.852  20.017  0.00  0.00    +0.000 NA
ATOM      8  C   UNL     1      -2.651  12.091  19.582  0.00  0.00    +0.000 C 
ATOM      9  C   UNL     1      -1.341  11.895  20.311  0.00  0.00    +0.000 C 
ATOM     10  C   UNL     1      -1.084  12.999  21.317  0.00  0.00    +0.000 C 
ATOM     11  N   UNL     1      -2.312  13.172  22.092  0.00  0.00    +0.000 NA
ATOM     12  H   UNL     1      -2.134  13.832  22.844  0.00  0.00    +0.000 HD
ENDROOT
BRANCH   8  13
ATOM     13  C   UNL     1      -2.813  11.382  18.267  0.00  0.00    +0.000 A 
ATOM     14  C   UNL     1      -1.811  10.485  17.879  0.00  0.00    +0.000 A 
ATOM     15  C   UNL     1      -1.928   9.747  16.697  0.00  0.00    +0.000 A 
ATOM     16  C   UNL     1      -3.046   9.914  15.886  0.00  0.00    +0.000 A 
ATOM     17  C   UNL     1      -4.041  10.818  16.241  0.00  0.00    +0.000 A 
ATOM     18  C   UNL     1      -3.923  11.552  17.425  0.00  0.00    +0.000 A 
BRANCH  18  19
ATOM     19  O   UNL     1      -4.908  12.450  17.724  0.00  0.00    +0.000 OA
ATOM     20  H   UNL     1      -5.778  12.060  17.546  0.00  0.00    +0.000 HD
ENDBRANCH  18  19
ENDBRANCH   8  13
BRANCH  10  21
ATOM     21  C   UNL     1      -0.494  14.308  20.802  0.00  0.00    +0.000 A 
ATOM     22  C   UNL     1      -0.441  14.623  19.432  0.00  0.00    +0.000 A 
ATOM     23  C   UNL     1      -0.132  15.916  19.001  0.00  0.00    +0.000 A 
ATOM     24  C   UNL     1       0.186  16.904  19.928  0.00  0.00    +0.000 A 
ATOM     25  C   UNL     1       0.247  16.587  21.282  0.00  0.00    +0.000 A 
ATOM     26  C   UNL     1      -0.082  15.298  21.707  0.00  0.00    +0.000 A 
BRANCH  26  27
ATOM     27  O   UNL     1      -0.025  15.003  23.042  0.00  0.00    +0.000 OA
ATOM     28  H   UNL     1      -0.586  15.638  23.517  0.00  0.00    +0.000 HD
ENDBRANCH  26  27
ENDBRANCH  10  21
BRANCH   1  30
ATOM     29  C   UNL     1      -3.818  16.537  25.116  0.00  0.00    +0.000 C 
ATOM     30  C   UNL     1      -5.124  16.294  24.349  0.00  0.00    +0.000 C 
ATOM     31  C   UNL     1      -5.832  17.634  24.101  0.00  0.00    +0.000 C 
ENDBRANCH   1  30
TORSDOF 5
ENDMDL
