MODEL 1
REMARK VINA RESULT:      -7.8      0.000      0.000
REMARK  Name = 
REMARK  5 active torsions:
REMARK  status: ('A' for Active; 'I' for Inactive)
REMARK    1  A    between atoms: C_1  and  C_2
REMARK    2  A    between atoms: C_5  and  C_6
REMARK    3  A    between atoms: C_9  and  C_10
REMARK    4  A    between atoms: N_16  and  S_17
REMARK    5  A    between atoms: S_17  and  C_18
REMARK                            x       y       z     vdW  Elec       q    Type
REMARK                         _______ _______ _______ _____ _____    ______ ____
ROOT
ATOM      1  C   UNL     1       0.160  10.227  20.258  0.00  0.00    +0.000 A 
ATOM      2  C   UNL     1       0.239  10.339  18.858  0.00  0.00    +0.000 A 
ATOM      3  C   UNL     1       1.049   9.480  18.105  0.00  0.00    +0.000 A 
ATOM      4  C   UNL     1       1.802   8.485  18.737  0.00  0.00    +0.000 A 
ATOM      5  C   UNL     1       1.749   8.362  20.126  0.00  0.00    +0.000 A 
ATOM      6  C   UNL     1       0.922   9.211  20.869  0.00  0.00    +0.000 A 
ENDROOT
BRANCH   4   7
ATOM      7  C   UNL     1       2.735   7.672  17.912  0.00  0.00    +0.000 C 
ATOM      8  O   UNL     1       3.303   8.256  16.990  0.00  0.00    +0.000 OA
ATOM      9  N   UNL     1       2.964   6.318  18.223  0.00  0.00    +0.000 N 
ATOM     10  C   UNL     1       3.966   5.627  17.405  0.00  0.00    +0.000 C 
ATOM     11  C   UNL     1       5.064   4.892  18.170  0.00  0.00    +0.000 C 
ATOM     12  C   UNL     1       4.695   3.952  19.309  0.00  0.00    +0.000 C 
ATOM     13  N   UNL     1       3.306   3.483  19.315  0.00  0.00    +0.000 NA
ATOM     14  C   UNL     1       2.320   4.468  19.818  0.00  0.00    +0.000 C 
ATOM     15  C   UNL     1       1.879   5.465  18.744  0.00  0.00    +0.000 C 
BRANCH  13  16
ATOM     16  S   UNL     1       2.794   2.284  18.251  0.00  0.00    +0.000 S 
ATOM     17  C   UNL     1       1.238   1.800  18.964  0.00  0.00    +0.000 C 
ATOM     18  O   UNL     1       2.511   2.907  16.978  0.00  0.00    +0.000 OA
ATOM     19  O   UNL     1       3.697   1.162  18.355  0.00  0.00    +0.000 OA
ENDBRANCH  13  16
ENDBRANCH   4   7
BRANCH   1  24
ATOM     20  C   UNL     1      -2.567  13.826  23.744  0.00  0.00    +0.000 C 
ATOM     21  C   UNL     1      -1.927  12.897  22.765  0.00  0.00    +0.000 A 
ATOM     22  C   UNL     1      -2.220  12.939  21.413  0.00  0.00    +0.000 A 
ATOM     23  C   UNL     1      -1.566  12.057  20.557  0.00  0.00    +0.000 A 
ATOM     24  C   UNL     1      -0.634  11.168  21.076  0.00  0.00    +0.000 A 
ATOM     25  N   UNL     1      -0.389  11.147  22.406  0.00  0.00    +0.000 NA
ATOM     26  N   UNL     1      -1.035  12.013  23.255  0.00  0.00    +0.000 NA
ENDBRANCH   1  24
TORSDOF 3
ENDMDL
MODEL 2
REMARK VINA RESULT:      -7.7      1.143      1.285
REMARK  Name = 
REMARK  5 active torsions:
REMARK  status: ('A' for Active; 'I' for Inactive)
REMARK    1  A    between atoms: C_1  and  C_2
REMARK    2  A    between atoms: C_5  and  C_6
REMARK    3  A    between atoms: C_9  and  C_10
REMARK    4  A    between atoms: N_16  and  S_17
REMARK    5  A    between atoms: S_17  and  C_18
REMARK                            x       y       z     vdW  Elec       q    Type
REMARK                         _______ _______ _______ _____ _____    ______ ____
ROOT
ATOM      1  C   UNL     1       0.476  10.406  20.764  0.00  0.00    +0.000 A 
ATOM      2  C   UNL     1       0.540  10.634  19.377  0.00  0.00    +0.000 A 
ATOM      3  C   UNL     1       1.190   9.736  18.521  0.00  0.00    +0.000 A 
ATOM      4  C   UNL     1       1.795   8.584  19.035  0.00  0.00    +0.000 A 
ATOM      5  C   UNL     1       1.754   8.342  20.409  0.00  0.00    +0.000 A 
ATOM      6  C   UNL     1       1.085   9.233  21.254  0.00  0.00    +0.000 A 
ENDROOT
BRANCH   4   7
ATOM      7  C   UNL     1       2.572   7.719  18.107  0.00  0.00    +0.000 C 
ATOM      8  O   UNL     1       3.016   8.261  17.096  0.00  0.00    +0.000 OA
ATOM      9  N   UNL     1       2.802   6.366  18.422  0.00  0.00    +0.000 N 
ATOM     10  C   UNL     1       3.652   5.621  17.488  0.00  0.00    +0.000 C 
ATOM     11  C   UNL     1       4.826   4.867  18.106  0.00  0.00    +0.000 C 
ATOM     12  C   UNL     1       4.599   3.969  19.313  0.00  0.00    +0.000 C 
ATOM     13  N   UNL     1       3.212   3.549  19.535  0.00  0.00    +0.000 NA
ATOM     14  C   UNL     1       2.341   4.579  20.146  0.00  0.00    +0.000 C 
ATOM     15  C   UNL     1       1.778   5.564  19.119  0.00  0.00    +0.000 C 
BRANCH  13  16
ATOM     16  S   UNL     1       2.514   2.343  18.592  0.00  0.00    +0.000 S 
ATOM     17  C   UNL     1       3.834   1.156  18.476  0.00  0.00    +0.000 C 
ATOM     18  O   UNL     1       1.451   1.734  19.358  0.00  0.00    +0.000 OA
ATOM     19  O   UNL     1       2.279   2.873  17.268  0.00  0.00    +0.000 OA
ENDBRANCH  13  16
ENDBRANCH   4   7
BRANCH   1  24
ATOM     20  C   UNL     1      -1.715  14.492  24.086  0.00  0.00    +0.000 C 
ATOM     21  C   UNL     1      -1.189  13.355  23.273  0.00  0.00    +0.000 A 
ATOM     22  C   UNL     1      -1.810  12.119  23.252  0.00  0.00    +0.000 A 
ATOM     23  C   UNL     1      -1.275  11.113  22.451  0.00  0.00    +0.000 A 
ATOM     24  C   UNL     1      -0.144  11.376  21.690  0.00  0.00    +0.000 A 
ATOM     25  N   UNL     1       0.443  12.593  21.752  0.00  0.00    +0.000 NA
ATOM     26  N   UNL     1      -0.079  13.587  22.544  0.00  0.00    +0.000 NA
ENDBRANCH   1  24
TORSDOF 3
ENDMDL
MODEL 3
REMARK VINA RESULT:      -7.7      0.452      1.046
REMARK  Name = 
REMARK  5 active torsions:
REMARK  status: ('A' for Active; 'I' for Inactive)
REMARK    1  A    between atoms: C_1  and  C_2
REMARK    2  A    between atoms: C_5  and  C_6
REMARK    3  A    between atoms: C_9  and  C_10
REMARK    4  A    between atoms: N_16  and  S_17
REMARK    5  A    between atoms: S_17  and  C_18
REMARK                            x       y       z     vdW  Elec       q    Type
REMARK                         _______ _______ _______ _____ _____    ______ ____
ROOT
ATOM      1  C   UNL     1       0.293  10.028  20.273  0.00  0.00    +0.000 A 
ATOM      2  C   UNL     1       1.079   8.994  20.813  0.00  0.00    +0.000 A 
ATOM      3  C   UNL     1       1.953   8.249  20.011  0.00  0.00    +0.000 A 
ATOM      4  C   UNL     1       2.061   8.523  18.643  0.00  0.00    +0.000 A 
ATOM      5  C   UNL     1       1.283   9.537  18.082  0.00  0.00    +0.000 A 
ATOM      6  C   UNL     1       0.428  10.289  18.895  0.00  0.00    +0.000 A 
ENDROOT
BRANCH   4   7
ATOM      7  C   UNL     1       2.914   7.635  17.809  0.00  0.00    +0.000 C 
ATOM      8  O   UNL     1       3.459   8.155  16.836  0.00  0.00    +0.000 OA
ATOM      9  N   UNL     1       3.098   6.285  18.166  0.00  0.00    +0.000 N 
ATOM     10  C   UNL     1       4.025   5.516  17.330  0.00  0.00    +0.000 C 
ATOM     11  C   UNL     1       5.127   4.763  18.070  0.00  0.00    +0.000 C 
ATOM     12  C   UNL     1       4.775   3.888  19.265  0.00  0.00    +0.000 C 
ATOM     13  N   UNL     1       3.369   3.484  19.360  0.00  0.00    +0.000 NA
ATOM     14  C   UNL     1       2.455   4.533  19.868  0.00  0.00    +0.000 C 
ATOM     15  C   UNL     1       2.004   5.505  18.776  0.00  0.00    +0.000 C 
BRANCH  13  16
ATOM     16  S   UNL     1       2.751   2.268  18.374  0.00  0.00    +0.000 S 
ATOM     17  C   UNL     1       1.234   1.855  19.208  0.00  0.00    +0.000 C 
ATOM     18  O   UNL     1       2.399   2.859  17.103  0.00  0.00    +0.000 OA
ATOM     19  O   UNL     1       3.626   1.122  18.455  0.00  0.00    +0.000 OA
ENDBRANCH  13  16
ENDBRANCH   4   7
BRANCH   1  24
ATOM     20  C   UNL     1      -3.228  12.799  23.803  0.00  0.00    +0.000 C 
ATOM     21  C   UNL     1      -2.363  12.105  22.802  0.00  0.00    +0.000 A 
ATOM     22  C   UNL     1      -2.339  12.476  21.470  0.00  0.00    +0.000 A 
ATOM     23  C   UNL     1      -1.489  11.798  20.600  0.00  0.00    +0.000 A 
ATOM     24  C   UNL     1      -0.685  10.777  21.089  0.00  0.00    +0.000 A 
ATOM     25  N   UNL     1      -0.752  10.434  22.396  0.00  0.00    +0.000 NA
ATOM     26  N   UNL     1      -1.591  11.097  23.257  0.00  0.00    +0.000 NA
ENDBRANCH   1  24
TORSDOF 3
ENDMDL
MODEL 4
REMARK VINA RESULT:      -7.6      2.876      3.719
REMARK  Name = 
REMARK  5 active torsions:
REMARK  status: ('A' for Active; 'I' for Inactive)
REMARK    1  A    between atoms: C_1  and  C_2
REMARK    2  A    between atoms: C_5  and  C_6
REMARK    3  A    between atoms: C_9  and  C_10
REMARK    4  A    between atoms: N_16  and  S_17
REMARK    5  A    between atoms: S_17  and  C_18
REMARK                            x       y       z     vdW  Elec       q    Type
REMARK                         _______ _______ _______ _____ _____    ______ ____
ROOT
ATOM      1  C   UNL     1       0.950  10.250  19.417  0.00  0.00    +0.000 A 
ATOM      2  C   UNL     1       1.427   9.541  18.300  0.00  0.00    +0.000 A 
ATOM      3  C   UNL     1       1.864   8.216  18.413  0.00  0.00    +0.000 A 
ATOM      4  C   UNL     1       1.836   7.566  19.651  0.00  0.00    +0.000 A 
ATOM      5  C   UNL     1       1.378   8.253  20.776  0.00  0.00    +0.000 A 
ATOM      6  C   UNL     1       0.924   9.570  20.651  0.00  0.00    +0.000 A 
ENDROOT
BRANCH   4   7
ATOM      7  C   UNL     1       2.417   6.200  19.747  0.00  0.00    +0.000 C 
ATOM      8  O   UNL     1       1.919   5.451  20.588  0.00  0.00    +0.000 OA
ATOM      9  N   UNL     1       3.451   5.804  18.879  0.00  0.00    +0.000 N 
ATOM     10  C   UNL     1       3.895   4.411  18.994  0.00  0.00    +0.000 C 
ATOM     11  C   UNL     1       3.933   3.610  17.695  0.00  0.00    +0.000 C 
ATOM     12  C   UNL     1       4.614   4.193  16.465  0.00  0.00    +0.000 C 
ATOM     13  N   UNL     1       5.557   5.285  16.725  0.00  0.00    +0.000 NA
ATOM     14  C   UNL     1       4.928   6.599  16.990  0.00  0.00    +0.000 C 
ATOM     15  C   UNL     1       4.488   6.761  18.447  0.00  0.00    +0.000 C 
BRANCH  13  16
ATOM     16  S   UNL     1       7.091   4.973  17.342  0.00  0.00    +0.000 S 
ATOM     17  C   UNL     1       7.683   6.612  17.701  0.00  0.00    +0.000 C 
ATOM     18  O   UNL     1       6.934   4.284  18.603  0.00  0.00    +0.000 OA
ATOM     19  O   UNL     1       7.911   4.429  16.284  0.00  0.00    +0.000 OA
ENDBRANCH  13  16
ENDBRANCH   4   7
BRANCH   1  24
ATOM     20  C   UNL     1      -0.290  15.776  18.731  0.00  0.00    +0.000 C 
ATOM     21  C   UNL     1      -0.033  14.326  18.984  0.00  0.00    +0.000 A 
ATOM     22  C   UNL     1      -0.961  13.516  19.614  0.00  0.00    +0.000 A 
ATOM     23  C   UNL     1      -0.661  12.168  19.795  0.00  0.00    +0.000 A 
ATOM     24  C   UNL     1       0.550  11.670  19.332  0.00  0.00    +0.000 A 
ATOM     25  N   UNL     1       1.437  12.500  18.737  0.00  0.00    +0.000 NA
ATOM     26  N   UNL     1       1.147  13.831  18.559  0.00  0.00    +0.000 NA
ENDBRANCH   1  24
TORSDOF 3
ENDMDL
MODEL 5
REMARK VINA RESULT:      -7.6      5.686      7.294
REMARK  Name = 
REMARK  5 active torsions:
REMARK  status: ('A' for Active; 'I' for Inactive)
REMARK    1  A    between atoms: C_1  and  C_2
REMARK    2  A    between atoms: C_5  and  C_6
REMARK    3  A    between atoms: C_9  and  C_10
REMARK    4  A    between atoms: N_16  and  S_17
REMARK    5  A    between atoms: S_17  and  C_18
REMARK                            x       y       z     vdW  Elec       q    Type
REMARK                         _______ _______ _______ _____ _____    ______ ____
ROOT
ATOM      1  C   UNL     1       8.188   8.556  18.224  0.00  0.00    +0.000 A 
ATOM      2  C   UNL     1       8.420   7.390  18.976  0.00  0.00    +0.000 A 
ATOM      3  C   UNL     1       7.816   6.173  18.635  0.00  0.00    +0.000 A 
ATOM      4  C   UNL     1       6.962   6.094  17.531  0.00  0.00    +0.000 A 
ATOM      5  C   UNL     1       6.707   7.240  16.776  0.00  0.00    +0.000 A 
ATOM      6  C   UNL     1       7.331   8.447  17.111  0.00  0.00    +0.000 A 
ENDROOT
BRANCH   4   7
ATOM      7  C   UNL     1       6.253   4.811  17.274  0.00  0.00    +0.000 C 
ATOM      8  O   UNL     1       6.716   4.099  16.385  0.00  0.00    +0.000 OA
ATOM      9  N   UNL     1       5.140   4.445  18.054  0.00  0.00    +0.000 N 
ATOM     10  C   UNL     1       4.565   3.124  17.782  0.00  0.00    +0.000 C 
ATOM     11  C   UNL     1       4.380   2.212  18.991  0.00  0.00    +0.000 C 
ATOM     12  C   UNL     1       3.697   2.743  20.243  0.00  0.00    +0.000 C 
ATOM     13  N   UNL     1       2.883   3.948  20.055  0.00  0.00    +0.000 NA
ATOM     14  C   UNL     1       3.654   5.208  19.949  0.00  0.00    +0.000 C 
ATOM     15  C   UNL     1       4.184   5.461  18.536  0.00  0.00    +0.000 C 
BRANCH  13  16
ATOM     16  S   UNL     1       1.360   3.859  19.346  0.00  0.00    +0.000 S 
ATOM     17  C   UNL     1       1.105   2.101  19.244  0.00  0.00    +0.000 C 
ATOM     18  O   UNL     1       0.396   4.382  20.287  0.00  0.00    +0.000 OA
ATOM     19  O   UNL     1       1.450   4.372  17.998  0.00  0.00    +0.000 OA
ENDBRANCH  13  16
ENDBRANCH   4   7
BRANCH   1  24
ATOM     20  C   UNL     1      10.071  13.803  19.432  0.00  0.00    +0.000 C 
ATOM     21  C   UNL     1       9.648  12.393  19.178  0.00  0.00    +0.000 A 
ATOM     22  C   UNL     1       9.939  11.369  20.061  0.00  0.00    +0.000 A 
ATOM     23  C   UNL     1       9.492  10.083  19.768  0.00  0.00    +0.000 A 
ATOM     24  C   UNL     1       8.760   9.862  18.608  0.00  0.00    +0.000 A 
ATOM     25  N   UNL     1       8.512  10.889  17.763  0.00  0.00    +0.000 NA
ATOM     26  N   UNL     1       8.954  12.158  18.046  0.00  0.00    +0.000 NA
ENDBRANCH   1  24
TORSDOF 3
ENDMDL
MODEL 6
REMARK VINA RESULT:      -7.5      4.764      9.362
REMARK  Name = 
REMARK  5 active torsions:
REMARK  status: ('A' for Active; 'I' for Inactive)
REMARK    1  A    between atoms: C_1  and  C_2
REMARK    2  A    between atoms: C_5  and  C_6
REMARK    3  A    between atoms: C_9  and  C_10
REMARK    4  A    between atoms: N_16  and  S_17
REMARK    5  A    between atoms: S_17  and  C_18
REMARK                            x       y       z     vdW  Elec       q    Type
REMARK                         _______ _______ _______ _____ _____    ______ ____
ROOT
ATOM      1  C   UNL     1       1.994   7.796  19.370  0.00  0.00    +0.000 A 
ATOM      2  C   UNL     1       2.039   8.421  18.111  0.00  0.00    +0.000 A 
ATOM      3  C   UNL     1       1.521   9.708  17.919  0.00  0.00    +0.000 A 
ATOM      4  C   UNL     1       0.943  10.403  18.987  0.00  0.00    +0.000 A 
ATOM      5  C   UNL     1       0.877   9.798  20.243  0.00  0.00    +0.000 A 
ATOM      6  C   UNL     1       1.415   8.520  20.431  0.00  0.00    +0.000 A 
ENDROOT
BRANCH   4   7
ATOM      7  C   UNL     1       0.303  11.717  18.714  0.00  0.00    +0.000 C 
ATOM      8  O   UNL     1      -0.849  11.687  18.284  0.00  0.00    +0.000 OA
ATOM      9  N   UNL     1       0.994  12.914  18.983  0.00  0.00    +0.000 N 
ATOM     10  C   UNL     1       0.246  14.156  18.762  0.00  0.00    +0.000 C 
ATOM     11  C   UNL     1       0.230  15.144  19.926  0.00  0.00    +0.000 C 
ATOM     12  C   UNL     1       1.532  15.526  20.614  0.00  0.00    +0.000 C 
ATOM     13  N   UNL     1       2.753  15.261  19.846  0.00  0.00    +0.000 NA
ATOM     14  C   UNL     1       3.183  13.843  19.834  0.00  0.00    +0.000 C 
ATOM     15  C   UNL     1       2.452  13.012  18.778  0.00  0.00    +0.000 C 
BRANCH  13  16
ATOM     16  S   UNL     1       3.209  16.265  18.575  0.00  0.00    +0.000 S 
ATOM     17  C   UNL     1       4.892  16.654  19.001  0.00  0.00    +0.000 C 
ATOM     18  O   UNL     1       3.241  15.471  17.367  0.00  0.00    +0.000 OA
ATOM     19  O   UNL     1       2.439  17.485  18.654  0.00  0.00    +0.000 OA
ENDBRANCH  13  16
ENDBRANCH   4   7
BRANCH   1  24
ATOM     20  C   UNL     1       4.258   2.598  19.999  0.00  0.00    +0.000 C 
ATOM     21  C   UNL     1       3.580   3.923  19.872  0.00  0.00    +0.000 A 
ATOM     22  C   UNL     1       2.467   4.253  20.626  0.00  0.00    +0.000 A 
ATOM     23  C   UNL     1       1.902   5.516  20.470  0.00  0.00    +0.000 A 
ATOM     24  C   UNL     1       2.472   6.413  19.576  0.00  0.00    +0.000 A 
ATOM     25  N   UNL     1       3.549   6.044  18.846  0.00  0.00    +0.000 NA
ATOM     26  N   UNL     1       4.108   4.798  18.993  0.00  0.00    +0.000 NA
ENDBRANCH   1  24
TORSDOF 3
ENDMDL
MODEL 7
REMARK VINA RESULT:      -7.5      5.742      7.403
REMARK  Name = 
REMARK  5 active torsions:
REMARK  status: ('A' for Active; 'I' for Inactive)
REMARK    1  A    between atoms: C_1  and  C_2
REMARK    2  A    between atoms: C_5  and  C_6
REMARK    3  A    between atoms: C_9  and  C_10
REMARK    4  A    between atoms: N_16  and  S_17
REMARK    5  A    between atoms: S_17  and  C_18
REMARK                            x       y       z     vdW  Elec       q    Type
REMARK                         _______ _______ _______ _____ _____    ______ ____
ROOT
ATOM      1  C   UNL     1       8.279   8.959  18.317  0.00  0.00    +0.000 A 
ATOM      2  C   UNL     1       7.282   8.979  17.324  0.00  0.00    +0.000 A 
ATOM      3  C   UNL     1       6.587   7.817  16.969  0.00  0.00    +0.000 A 
ATOM      4  C   UNL     1       6.873   6.602  17.600  0.00  0.00    +0.000 A 
ATOM      5  C   UNL     1       7.865   6.555  18.581  0.00  0.00    +0.000 A 
ATOM      6  C   UNL     1       8.540   7.725  18.944  0.00  0.00    +0.000 A 
ENDROOT
BRANCH   4   7
ATOM      7  C   UNL     1       6.192   5.373  17.112  0.00  0.00    +0.000 C 
ATOM      8  O   UNL     1       6.632   4.880  16.074  0.00  0.00    +0.000 OA
ATOM      9  N   UNL     1       5.132   4.807  17.846  0.00  0.00    +0.000 N 
ATOM     10  C   UNL     1       4.586   3.549  17.328  0.00  0.00    +0.000 C 
ATOM     11  C   UNL     1       4.491   2.399  18.327  0.00  0.00    +0.000 C 
ATOM     12  C   UNL     1       3.857   2.630  19.691  0.00  0.00    +0.000 C 
ATOM     13  N   UNL     1       2.997   3.813  19.794  0.00  0.00    +0.000 NA
ATOM     14  C   UNL     1       3.721   5.099  19.921  0.00  0.00    +0.000 C 
ATOM     15  C   UNL     1       4.170   5.661  18.570  0.00  0.00    +0.000 C 
BRANCH  13  16
ATOM     16  S   UNL     1       1.443   3.811  19.148  0.00  0.00    +0.000 S 
ATOM     17  C   UNL     1       1.170   2.077  18.855  0.00  0.00    +0.000 C 
ATOM     18  O   UNL     1       0.526   4.224  20.186  0.00  0.00    +0.000 OA
ATOM     19  O   UNL     1       1.478   4.475  17.866  0.00  0.00    +0.000 OA
ENDBRANCH  13  16
ENDBRANCH   4   7
BRANCH   1  24
ATOM     20  C   UNL     1      11.535  13.340  19.975  0.00  0.00    +0.000 C 
ATOM     21  C   UNL     1      10.646  12.251  19.468  0.00  0.00    +0.000 A 
ATOM     22  C   UNL     1      10.154  12.248  18.175  0.00  0.00    +0.000 A 
ATOM     23  C   UNL     1       9.351  11.187  17.766  0.00  0.00    +0.000 A 
ATOM     24  C   UNL     1       9.071  10.159  18.657  0.00  0.00    +0.000 A 
ATOM     25  N   UNL     1       9.557  10.210  19.918  0.00  0.00    +0.000 NA
ATOM     26  N   UNL     1      10.348  11.256  20.328  0.00  0.00    +0.000 NA
ENDBRANCH   1  24
TORSDOF 3
ENDMDL
MODEL 8
REMARK VINA RESULT:      -7.5      5.424      7.483
REMARK  Name = 
REMARK  5 active torsions:
REMARK  status: ('A' for Active; 'I' for Inactive)
REMARK    1  A    between atoms: C_1  and  C_2
REMARK    2  A    between atoms: C_5  and  C_6
REMARK    3  A    between atoms: C_9  and  C_10
REMARK    4  A    between atoms: N_16  and  S_17
REMARK    5  A    between atoms: S_17  and  C_18
REMARK                            x       y       z     vdW  Elec       q    Type
REMARK                         _______ _______ _______ _____ _____    ______ ____
ROOT
ATOM      1  C   UNL     1       8.421   9.035  18.442  0.00  0.00    +0.000 A 
ATOM      2  C   UNL     1       7.464   9.193  17.423  0.00  0.00    +0.000 A 
ATOM      3  C   UNL     1       6.725   8.104  16.944  0.00  0.00    +0.000 A 
ATOM      4  C   UNL     1       6.927   6.826  17.475  0.00  0.00    +0.000 A 
ATOM      5  C   UNL     1       7.879   6.642  18.479  0.00  0.00    +0.000 A 
ATOM      6  C   UNL     1       8.598   7.739  18.966  0.00  0.00    +0.000 A 
ENDROOT
BRANCH   4   7
ATOM      7  C   UNL     1       6.204   5.681  16.859  0.00  0.00    +0.000 C 
ATOM      8  O   UNL     1       6.563   5.352  15.728  0.00  0.00    +0.000 OA
ATOM      9  N   UNL     1       5.198   5.006  17.575  0.00  0.00    +0.000 N 
ATOM     10  C   UNL     1       4.608   3.837  16.915  0.00  0.00    +0.000 C 
ATOM     11  C   UNL     1       4.579   2.549  17.733  0.00  0.00    +0.000 C 
ATOM     12  C   UNL     1       4.049   2.569  19.160  0.00  0.00    +0.000 C 
ATOM     13  N   UNL     1       3.206   3.719  19.504  0.00  0.00    +0.000 NA
ATOM     14  C   UNL     1       3.947   4.974  19.769  0.00  0.00    +0.000 C 
ATOM     15  C   UNL     1       4.298   5.735  18.489  0.00  0.00    +0.000 C 
BRANCH  13  16
ATOM     16  S   UNL     1       1.609   3.805  18.981  0.00  0.00    +0.000 S 
ATOM     17  C   UNL     1       0.816   4.606  20.358  0.00  0.00    +0.000 C 
ATOM     18  O   UNL     1       1.554   4.716  17.861  0.00  0.00    +0.000 OA
ATOM     19  O   UNL     1       1.083   2.463  18.887  0.00  0.00    +0.000 OA
ENDBRANCH  13  16
ENDBRANCH   4   7
BRANCH   1  24
ATOM     20  C   UNL     1      11.633  13.544  19.816  0.00  0.00    +0.000 C 
ATOM     21  C   UNL     1      10.799  12.333  19.552  0.00  0.00    +0.000 A 
ATOM     22  C   UNL     1      10.130  11.667  20.563  0.00  0.00    +0.000 A 
ATOM     23  C   UNL     1       9.352  10.560  20.237  0.00  0.00    +0.000 A 
ATOM     24  C   UNL     1       9.258  10.157  18.911  0.00  0.00    +0.000 A 
ATOM     25  N   UNL     1       9.942  10.826  17.955  0.00  0.00    +0.000 NA
ATOM     26  N   UNL     1      10.714  11.918  18.272  0.00  0.00    +0.000 NA
ENDBRANCH   1  24
TORSDOF 3
ENDMDL
MODEL 9
REMARK VINA RESULT:      -7.4      4.499      9.338
REMARK  Name = 
REMARK  5 active torsions:
REMARK  status: ('A' for Active; 'I' for Inactive)
REMARK    1  A    between atoms: C_1  and  C_2
REMARK    2  A    between atoms: C_5  and  C_6
REMARK    3  A    between atoms: C_9  and  C_10
REMARK    4  A    between atoms: N_16  and  S_17
REMARK    5  A    between atoms: S_17  and  C_18
REMARK                            x       y       z     vdW  Elec       q    Type
REMARK                         _______ _______ _______ _____ _____    ______ ____
ROOT
ATOM      1  C   UNL     1       2.279   7.386  19.208  0.00  0.00    +0.000 A 
ATOM      2  C   UNL     1       2.230   8.043  17.966  0.00  0.00    +0.000 A 
ATOM      3  C   UNL     1       1.542   9.254  17.810  0.00  0.00    +0.000 A 
ATOM      4  C   UNL     1       0.885   9.836  18.899  0.00  0.00    +0.000 A 
ATOM      5  C   UNL     1       0.910   9.196  20.139  0.00  0.00    +0.000 A 
ATOM      6  C   UNL     1       1.616   7.999  20.290  0.00  0.00    +0.000 A 
ENDROOT
BRANCH   4   7
ATOM      7  C   UNL     1       0.072  11.060  18.662  0.00  0.00    +0.000 C 
ATOM      8  O   UNL     1      -1.056  10.887  18.201  0.00  0.00    +0.000 OA
ATOM      9  N   UNL     1       0.581  12.328  18.999  0.00  0.00    +0.000 N 
ATOM     10  C   UNL     1      -0.329  13.462  18.810  0.00  0.00    +0.000 C 
ATOM     11  C   UNL     1      -0.508  14.385  20.012  0.00  0.00    +0.000 C 
ATOM     12  C   UNL     1       0.713  14.914  20.750  0.00  0.00    +0.000 C 
ATOM     13  N   UNL     1       1.975  14.856  20.004  0.00  0.00    +0.000 NA
ATOM     14  C   UNL     1       2.600  13.515  19.945  0.00  0.00    +0.000 C 
ATOM     15  C   UNL     1       2.015  12.637  18.837  0.00  0.00    +0.000 C 
BRANCH  13  16
ATOM     16  S   UNL     1       2.311  15.970  18.788  0.00  0.00    +0.000 S 
ATOM     17  C   UNL     1       3.370  17.125  19.631  0.00  0.00    +0.000 C 
ATOM     18  O   UNL     1       3.108  15.306  17.782  0.00  0.00    +0.000 OA
ATOM     19  O   UNL     1       1.088  16.660  18.446  0.00  0.00    +0.000 OA
ENDBRANCH  13  16
ENDBRANCH   4   7
BRANCH   1  24
ATOM     20  C   UNL     1       4.412   2.153  19.989  0.00  0.00    +0.000 C 
ATOM     21  C   UNL     1       3.945   3.552  19.755  0.00  0.00    +0.000 A 
ATOM     22  C   UNL     1       4.617   4.419  18.912  0.00  0.00    +0.000 A 
ATOM     23  C   UNL     1       4.108   5.702  18.724  0.00  0.00    +0.000 A 
ATOM     24  C   UNL     1       2.940   6.075  19.375  0.00  0.00    +0.000 A 
ATOM     25  N   UNL     1       2.323   5.202  20.204  0.00  0.00    +0.000 NA
ATOM     26  N   UNL     1       2.823   3.937  20.396  0.00  0.00    +0.000 NA
ENDBRANCH   1  24
TORSDOF 3
ENDMDL
