MODEL 1
REMARK VINA RESULT:      -7.8      0.000      0.000
REMARK  Name = 
REMARK  15 active torsions:
REMARK  status: ('A' for Active; 'I' for Inactive)
REMARK    1  A    between atoms: C_1  and  C_2
REMARK    2  A    between atoms: C_2  and  C_18
REMARK    3  A    between atoms: N_3  and  O_4
REMARK    4  A    between atoms: O_4  and  C_5
REMARK    5  A    between atoms: C_5  and  C_6
REMARK    6  A    between atoms: C_9  and  C_10
REMARK    7  A    between atoms: C_21  and  C_22
REMARK    8  A    between atoms: C_22  and  C_23
REMARK    9  A    between atoms: C_23  and  C_24
REMARK   10  A    between atoms: C_24  and  N_25
REMARK   11  A    between atoms: C_24  and  C_26
REMARK   12  A    between atoms: C_24  and  C_28
REMARK   13  A    between atoms: C_26  and  O_27
REMARK   14  A    between atoms: C_28  and  C_29
REMARK   15  A    between atoms: C_29  and  O_30
REMARK                            x       y       z     vdW  Elec       q    Type
REMARK                         _______ _______ _______ _____ _____    ______ ____
ROOT
ATOM      1  C   UNL     1       6.887   6.062  17.736  0.00  0.00    +0.000 A 
ATOM      2  C   UNL     1       7.772   6.032  18.808  0.00  0.00    +0.000 A 
ATOM      3  C   UNL     1       8.471   7.174  19.141  0.00  0.00    +0.000 A 
ATOM      4  C   UNL     1       8.334   8.342  18.396  0.00  0.00    +0.000 A 
ATOM      5  C   UNL     1       7.438   8.375  17.316  0.00  0.00    +0.000 A 
ATOM      6  C   UNL     1       6.729   7.220  16.972  0.00  0.00    +0.000 A 
ENDROOT
BRANCH   1   8
ATOM      7  C   UNL     1       6.212   4.286  16.022  0.00  0.00    +0.000 C 
ATOM      8  C   UNL     1       6.084   4.853  17.432  0.00  0.00    +0.000 C 
ATOM      9  N   UNL     1       5.345   4.374  18.364  0.00  0.00    +0.000 NA
BRANCH   9  10
ATOM     10  O   UNL     1       4.643   3.248  17.928  0.00  0.00    +0.000 OA
BRANCH  10  11
ATOM     11  C   UNL     1       3.470   3.109  18.721  0.00  0.00    +0.000 C 
BRANCH  11  12
ATOM     12  C   UNL     1       2.946   4.485  18.984  0.00  0.00    +0.000 A 
ATOM     13  C   UNL     1       2.810   5.394  17.933  0.00  0.00    +0.000 A 
ATOM     14  C   UNL     1       2.363   6.683  18.186  0.00  0.00    +0.000 A 
ATOM     15  C   UNL     1       2.030   7.103  19.488  0.00  0.00    +0.000 A 
ATOM     16  C   UNL     1       2.188   6.186  20.538  0.00  0.00    +0.000 A 
ATOM     17  C   UNL     1       2.642   4.894  20.290  0.00  0.00    +0.000 A 
BRANCH  15  18
ATOM     18  C   UNL     1       1.504   8.454  19.712  0.00  0.00    +0.000 A 
ATOM     19  C   UNL     1       1.391   9.351  18.634  0.00  0.00    +0.000 A 
ATOM     20  C   UNL     1       0.927  10.648  18.821  0.00  0.00    +0.000 A 
ATOM     21  C   UNL     1       0.546  11.070  20.092  0.00  0.00    +0.000 A 
ATOM     22  C   UNL     1       0.628  10.194  21.171  0.00  0.00    +0.000 A 
ATOM     23  C   UNL     1       1.103   8.896  20.985  0.00  0.00    +0.000 A 
ENDBRANCH  15  18
ENDBRANCH  11  12
ENDBRANCH  10  11
ENDBRANCH   9  10
ENDBRANCH   1   8
BRANCH   4  24
ATOM     24  C   UNL     1       9.110   9.563  18.814  0.00  0.00    +0.000 C 
BRANCH  24  25
ATOM     25  C   UNL     1       8.877  10.809  17.934  0.00  0.00    +0.000 C 
BRANCH  25  26
ATOM     26  C   UNL     1       9.723  12.068  18.273  0.00  0.00    +0.000 C 
BRANCH  26  27
ATOM     27  N   UNL     1       9.263  13.221  17.480  0.00  0.00    +0.000 NA
ATOM     28  H   UNL     1       8.287  13.416  17.693  0.00  0.00    +0.000 HD
ATOM     29  H   UNL     1       9.279  12.972  16.490  0.00  0.00    +0.000 HD
ENDBRANCH  26  27
BRANCH  26  30
ATOM     30  C   UNL     1       9.641  12.413  19.784  0.00  0.00    +0.000 C 
BRANCH  30  31
ATOM     31  O   UNL     1      10.776  11.978  20.522  0.00  0.00    +0.000 OA
ATOM     32  H   UNL     1      11.325  11.471  19.902  0.00  0.00    +0.000 HD
ENDBRANCH  30  31
ENDBRANCH  26  30
BRANCH  26  33
ATOM     33  C   UNL     1      11.195  11.764  17.873  0.00  0.00    +0.000 C 
BRANCH  33  34
ATOM     34  C   UNL     1      12.002  12.971  17.393  0.00  0.00    +0.000 C 
BRANCH  34  35
ATOM     35  O   UNL     1      11.853  13.122  15.983  0.00  0.00    +0.000 OA
ATOM     36  H   UNL     1      11.584  12.259  15.627  0.00  0.00    +0.000 HD
ENDBRANCH  34  35
ENDBRANCH  33  34
ENDBRANCH  26  33
ENDBRANCH  25  26
ENDBRANCH  24  25
ENDBRANCH   4  24
TORSDOF 14
ENDMDL
MODEL 2
REMARK VINA RESULT:      -7.6      4.689      8.002
REMARK  Name = 
REMARK  15 active torsions:
REMARK  status: ('A' for Active; 'I' for Inactive)
REMARK    1  A    between atoms: C_1  and  C_2
REMARK    2  A    between atoms: C_2  and  C_18
REMARK    3  A    between atoms: N_3  and  O_4
REMARK    4  A    between atoms: O_4  and  C_5
REMARK    5  A    between atoms: C_5  and  C_6
REMARK    6  A    between atoms: C_9  and  C_10
REMARK    7  A    between atoms: C_21  and  C_22
REMARK    8  A    between atoms: C_22  and  C_23
REMARK    9  A    between atoms: C_23  and  C_24
REMARK   10  A    between atoms: C_24  and  N_25
REMARK   11  A    between atoms: C_24  and  C_26
REMARK   12  A    between atoms: C_24  and  C_28
REMARK   13  A    between atoms: C_26  and  O_27
REMARK   14  A    between atoms: C_28  and  C_29
REMARK   15  A    between atoms: C_29  and  O_30
REMARK                            x       y       z     vdW  Elec       q    Type
REMARK                         _______ _______ _______ _____ _____    ______ ____
ROOT
ATOM      1  C   UNL     1       1.655   8.915  18.811  0.00  0.00    +0.000 A 
ATOM      2  C   UNL     1       1.588   7.814  19.657  0.00  0.00    +0.000 A 
ATOM      3  C   UNL     1       2.399   6.724  19.414  0.00  0.00    +0.000 A 
ATOM      4  C   UNL     1       3.253   6.694  18.314  0.00  0.00    +0.000 A 
ATOM      5  C   UNL     1       3.323   7.808  17.462  0.00  0.00    +0.000 A 
ATOM      6  C   UNL     1       2.502   8.914  17.701  0.00  0.00    +0.000 A 
ENDROOT
BRANCH   1   8
ATOM      7  C   UNL     1      -0.647  10.033  18.771  0.00  0.00    +0.000 C 
ATOM      8  C   UNL     1       0.836  10.111  19.122  0.00  0.00    +0.000 C 
ATOM      9  N   UNL     1       1.423  11.117  19.657  0.00  0.00    +0.000 NA
BRANCH   9  10
ATOM     10  O   UNL     1       0.530  12.168  19.881  0.00  0.00    +0.000 OA
BRANCH  10  11
ATOM     11  C   UNL     1       0.448  12.404  21.281  0.00  0.00    +0.000 C 
BRANCH  11  12
ATOM     12  C   UNL     1      -1.005  12.478  21.634  0.00  0.00    +0.000 A 
ATOM     13  C   UNL     1      -1.928  12.956  20.704  0.00  0.00    +0.000 A 
ATOM     14  C   UNL     1      -3.268  13.062  21.048  0.00  0.00    +0.000 A 
ATOM     15  C   UNL     1      -3.729  12.689  22.325  0.00  0.00    +0.000 A 
ATOM     16  C   UNL     1      -2.789  12.226  23.258  0.00  0.00    +0.000 A 
ATOM     17  C   UNL     1      -1.443  12.124  22.919  0.00  0.00    +0.000 A 
BRANCH  15  18
ATOM     18  C   UNL     1      -5.161  12.758  22.637  0.00  0.00    +0.000 A 
ATOM     19  C   UNL     1      -6.111  12.631  21.607  0.00  0.00    +0.000 A 
ATOM     20  C   UNL     1      -7.474  12.724  21.867  0.00  0.00    +0.000 A 
ATOM     21  C   UNL     1      -7.917  12.929  23.171  0.00  0.00    +0.000 A 
ATOM     22  C   UNL     1      -6.997  13.037  24.211  0.00  0.00    +0.000 A 
ATOM     23  C   UNL     1      -5.629  12.953  23.949  0.00  0.00    +0.000 A 
ENDBRANCH  15  18
ENDBRANCH  11  12
ENDBRANCH  10  11
ENDBRANCH   9  10
ENDBRANCH   1   8
BRANCH   4  24
ATOM     24  C   UNL     1       4.126   5.486  18.107  0.00  0.00    +0.000 C 
BRANCH  24  25
ATOM     25  C   UNL     1       5.452   5.506  18.897  0.00  0.00    +0.000 C 
BRANCH  25  26
ATOM     26  C   UNL     1       6.744   5.787  18.080  0.00  0.00    +0.000 C 
BRANCH  26  27
ATOM     27  N   UNL     1       6.537   6.931  17.175  0.00  0.00    +0.000 NA
ATOM     28  H   UNL     1       6.589   7.799  17.704  0.00  0.00    +0.000 HD
ATOM     29  H   UNL     1       5.586   6.896  16.806  0.00  0.00    +0.000 HD
ENDBRANCH  26  27
BRANCH  26  30
ATOM     30  C   UNL     1       7.951   6.075  19.012  0.00  0.00    +0.000 C 
BRANCH  30  31
ATOM     31  O   UNL     1       7.834   5.462  20.289  0.00  0.00    +0.000 OA
ATOM     32  H   UNL     1       7.217   4.719  20.178  0.00  0.00    +0.000 HD
ENDBRANCH  30  31
ENDBRANCH  26  30
BRANCH  26  33
ATOM     33  C   UNL     1       7.029   4.529  17.208  0.00  0.00    +0.000 C 
BRANCH  33  34
ATOM     34  C   UNL     1       6.660   4.664  15.731  0.00  0.00    +0.000 C 
BRANCH  34  35
ATOM     35  O   UNL     1       7.690   5.364  15.037  0.00  0.00    +0.000 OA
ATOM     36  H   UNL     1       8.371   4.713  14.797  0.00  0.00    +0.000 HD
ENDBRANCH  34  35
ENDBRANCH  33  34
ENDBRANCH  26  33
ENDBRANCH  25  26
ENDBRANCH  24  25
ENDBRANCH   4  24
TORSDOF 14
ENDMDL
MODEL 3
REMARK VINA RESULT:      -7.6      4.808      9.387
REMARK  Name = 
REMARK  15 active torsions:
REMARK  status: ('A' for Active; 'I' for Inactive)
REMARK    1  A    between atoms: C_1  and  C_2
REMARK    2  A    between atoms: C_2  and  C_18
REMARK    3  A    between atoms: N_3  and  O_4
REMARK    4  A    between atoms: O_4  and  C_5
REMARK    5  A    between atoms: C_5  and  C_6
REMARK    6  A    between atoms: C_9  and  C_10
REMARK    7  A    between atoms: C_21  and  C_22
REMARK    8  A    between atoms: C_22  and  C_23
REMARK    9  A    between atoms: C_23  and  C_24
REMARK   10  A    between atoms: C_24  and  N_25
REMARK   11  A    between atoms: C_24  and  C_26
REMARK   12  A    between atoms: C_24  and  C_28
REMARK   13  A    between atoms: C_26  and  O_27
REMARK   14  A    between atoms: C_28  and  C_29
REMARK   15  A    between atoms: C_29  and  O_30
REMARK                            x       y       z     vdW  Elec       q    Type
REMARK                         _______ _______ _______ _____ _____    ______ ____
ROOT
ATOM      1  C   UNL     1       1.734   7.517  20.026  0.00  0.00    +0.000 A 
ATOM      2  C   UNL     1       1.936   8.310  18.902  0.00  0.00    +0.000 A 
ATOM      3  C   UNL     1       1.414   9.587  18.871  0.00  0.00    +0.000 A 
ATOM      4  C   UNL     1       0.656  10.078  19.931  0.00  0.00    +0.000 A 
ATOM      5  C   UNL     1       0.455   9.279  21.068  0.00  0.00    +0.000 A 
ATOM      6  C   UNL     1       0.978   7.984  21.103  0.00  0.00    +0.000 A 
ENDROOT
BRANCH   1   8
ATOM      7  C   UNL     1       1.493   5.036  20.608  0.00  0.00    +0.000 C 
ATOM      8  C   UNL     1       2.361   6.175  20.081  0.00  0.00    +0.000 C 
ATOM      9  N   UNL     1       3.576   6.064  19.688  0.00  0.00    +0.000 NA
BRANCH   9  10
ATOM     10  O   UNL     1       4.032   4.749  19.808  0.00  0.00    +0.000 OA
BRANCH  10  11
ATOM     11  C   UNL     1       5.448   4.745  19.667  0.00  0.00    +0.000 C 
BRANCH  11  12
ATOM     12  C   UNL     1       5.748   4.673  18.202  0.00  0.00    +0.000 A 
ATOM     13  C   UNL     1       4.844   4.062  17.332  0.00  0.00    +0.000 A 
ATOM     14  C   UNL     1       5.144   3.960  15.981  0.00  0.00    +0.000 A 
ATOM     15  C   UNL     1       6.346   4.469  15.455  0.00  0.00    +0.000 A 
ATOM     16  C   UNL     1       7.254   5.065  16.343  0.00  0.00    +0.000 A 
ATOM     17  C   UNL     1       6.961   5.164  17.700  0.00  0.00    +0.000 A 
BRANCH  15  18
ATOM     18  C   UNL     1       6.605   4.398  14.013  0.00  0.00    +0.000 A 
ATOM     19  C   UNL     1       5.891   3.485  13.216  0.00  0.00    +0.000 A 
ATOM     20  C   UNL     1       6.138   3.372  11.852  0.00  0.00    +0.000 A 
ATOM     21  C   UNL     1       7.095   4.186  11.252  0.00  0.00    +0.000 A 
ATOM     22  C   UNL     1       7.800   5.112  12.016  0.00  0.00    +0.000 A 
ATOM     23  C   UNL     1       7.559   5.219  13.386  0.00  0.00    +0.000 A 
ENDBRANCH  15  18
ENDBRANCH  11  12
ENDBRANCH  10  11
ENDBRANCH   9  10
ENDBRANCH   1   8
BRANCH   4  24
ATOM     24  C   UNL     1       0.124  11.485  19.851  0.00  0.00    +0.000 C 
BRANCH  24  25
ATOM     25  C   UNL     1      -1.413  11.599  19.931  0.00  0.00    +0.000 C 
BRANCH  25  26
ATOM     26  C   UNL     1      -2.193  11.434  18.597  0.00  0.00    +0.000 C 
BRANCH  26  27
ATOM     27  N   UNL     1      -1.577  12.255  17.540  0.00  0.00    +0.000 NA
ATOM     28  H   UNL     1      -2.225  12.354  16.763  0.00  0.00    +0.000 HD
ATOM     29  H   UNL     1      -0.771  11.756  17.159  0.00  0.00    +0.000 HD
ENDBRANCH  26  27
BRANCH  26  30
ATOM     30  C   UNL     1      -2.230   9.950  18.144  0.00  0.00    +0.000 C 
BRANCH  30  31
ATOM     31  O   UNL     1      -1.920   9.775  16.767  0.00  0.00    +0.000 OA
ATOM     32  H   UNL     1      -1.778   8.822  16.641  0.00  0.00    +0.000 HD
ENDBRANCH  30  31
ENDBRANCH  26  30
BRANCH  26  33
ATOM     33  C   UNL     1      -3.639  11.958  18.833  0.00  0.00    +0.000 C 
BRANCH  33  34
ATOM     34  C   UNL     1      -4.655  11.570  17.759  0.00  0.00    +0.000 C 
BRANCH  34  35
ATOM     35  O   UNL     1      -4.230  12.061  16.490  0.00  0.00    +0.000 OA
ATOM     36  H   UNL     1      -3.855  11.311  16.000  0.00  0.00    +0.000 HD
ENDBRANCH  34  35
ENDBRANCH  33  34
ENDBRANCH  26  33
ENDBRANCH  25  26
ENDBRANCH  24  25
ENDBRANCH   4  24
TORSDOF 14
ENDMDL
MODEL 4
REMARK VINA RESULT:      -7.6      5.014      9.271
REMARK  Name = 
REMARK  15 active torsions:
REMARK  status: ('A' for Active; 'I' for Inactive)
REMARK    1  A    between atoms: C_1  and  C_2
REMARK    2  A    between atoms: C_2  and  C_18
REMARK    3  A    between atoms: N_3  and  O_4
REMARK    4  A    between atoms: O_4  and  C_5
REMARK    5  A    between atoms: C_5  and  C_6
REMARK    6  A    between atoms: C_9  and  C_10
REMARK    7  A    between atoms: C_21  and  C_22
REMARK    8  A    between atoms: C_22  and  C_23
REMARK    9  A    between atoms: C_23  and  C_24
REMARK   10  A    between atoms: C_24  and  N_25
REMARK   11  A    between atoms: C_24  and  C_26
REMARK   12  A    between atoms: C_24  and  C_28
REMARK   13  A    between atoms: C_26  and  O_27
REMARK   14  A    between atoms: C_28  and  C_29
REMARK   15  A    between atoms: C_29  and  O_30
REMARK                            x       y       z     vdW  Elec       q    Type
REMARK                         _______ _______ _______ _____ _____    ______ ____
ROOT
ATOM      1  C   UNL     1       1.854   7.426  19.933  0.00  0.00    +0.000 A 
ATOM      2  C   UNL     1       1.158   8.020  20.981  0.00  0.00    +0.000 A 
ATOM      3  C   UNL     1       0.649   9.292  20.821  0.00  0.00    +0.000 A 
ATOM      4  C   UNL     1       0.856  10.005  19.642  0.00  0.00    +0.000 A 
ATOM      5  C   UNL     1       1.555   9.405  18.582  0.00  0.00    +0.000 A 
ATOM      6  C   UNL     1       2.075   8.117  18.741  0.00  0.00    +0.000 A 
ENDROOT
BRANCH   1   8
ATOM      7  C   UNL     1       1.365   5.044  20.731  0.00  0.00    +0.000 C 
ATOM      8  C   UNL     1       2.333   6.032  20.087  0.00  0.00    +0.000 C 
ATOM      9  N   UNL     1       3.515   5.755  19.673  0.00  0.00    +0.000 NA
BRANCH   9  10
ATOM     10  O   UNL     1       3.830   4.412  19.893  0.00  0.00    +0.000 OA
BRANCH  10  11
ATOM     11  C   UNL     1       5.240   4.254  19.791  0.00  0.00    +0.000 C 
BRANCH  11  12
ATOM     12  C   UNL     1       5.584   4.276  18.335  0.00  0.00    +0.000 A 
ATOM     13  C   UNL     1       6.844   4.709  17.920  0.00  0.00    +0.000 A 
ATOM     14  C   UNL     1       7.146   4.768  16.567  0.00  0.00    +0.000 A 
ATOM     15  C   UNL     1       6.207   4.389  15.588  0.00  0.00    +0.000 A 
ATOM     16  C   UNL     1       4.939   3.971  16.016  0.00  0.00    +0.000 A 
ATOM     17  C   UNL     1       4.629   3.917  17.373  0.00  0.00    +0.000 A 
BRANCH  15  18
ATOM     18  C   UNL     1       6.579   4.406  14.169  0.00  0.00    +0.000 A 
ATOM     19  C   UNL     1       5.997   3.485  13.279  0.00  0.00    +0.000 A 
ATOM     20  C   UNL     1       6.354   3.455  11.936  0.00  0.00    +0.000 A 
ATOM     21  C   UNL     1       7.290   4.362  11.449  0.00  0.00    +0.000 A 
ATOM     22  C   UNL     1       7.865   5.298  12.305  0.00  0.00    +0.000 A 
ATOM     23  C   UNL     1       7.515   5.322  13.655  0.00  0.00    +0.000 A 
ENDBRANCH  15  18
ENDBRANCH  11  12
ENDBRANCH  10  11
ENDBRANCH   9  10
ENDBRANCH   1   8
BRANCH   4  24
ATOM     24  C   UNL     1       0.263  11.384  19.516  0.00  0.00    +0.000 C 
BRANCH  24  25
ATOM     25  C   UNL     1      -1.248  11.466  19.818  0.00  0.00    +0.000 C 
BRANCH  25  26
ATOM     26  C   UNL     1      -2.199  11.532  18.590  0.00  0.00    +0.000 C 
BRANCH  26  27
ATOM     27  N   UNL     1      -1.617  12.382  17.537  0.00  0.00    +0.000 NA
ATOM     28  H   UNL     1      -0.625  12.175  17.439  0.00  0.00    +0.000 HD
ATOM     29  H   UNL     1      -1.660  13.358  17.836  0.00  0.00    +0.000 HD
ENDBRANCH  26  27
BRANCH  26  30
ATOM     30  C   UNL     1      -2.479  10.117  18.016  0.00  0.00    +0.000 C 
BRANCH  30  31
ATOM     31  O   UNL     1      -1.568   9.735  16.993  0.00  0.00    +0.000 OA
ATOM     32  H   UNL     1      -0.678   9.856  17.364  0.00  0.00    +0.000 HD
ENDBRANCH  30  31
ENDBRANCH  26  30
BRANCH  26  33
ATOM     33  C   UNL     1      -3.527  12.191  19.062  0.00  0.00    +0.000 C 
BRANCH  33  34
ATOM     34  C   UNL     1      -3.430  13.000  20.354  0.00  0.00    +0.000 C 
BRANCH  34  35
ATOM     35  O   UNL     1      -4.440  12.578  21.267  0.00  0.00    +0.000 OA
ATOM     36  H   UNL     1      -5.256  13.053  21.035  0.00  0.00    +0.000 HD
ENDBRANCH  34  35
ENDBRANCH  33  34
ENDBRANCH  26  33
ENDBRANCH  25  26
ENDBRANCH  24  25
ENDBRANCH   4  24
TORSDOF 14
ENDMDL
MODEL 5
REMARK VINA RESULT:      -7.6      0.651      1.366
REMARK  Name = 
REMARK  15 active torsions:
REMARK  status: ('A' for Active; 'I' for Inactive)
REMARK    1  A    between atoms: C_1  and  C_2
REMARK    2  A    between atoms: C_2  and  C_18
REMARK    3  A    between atoms: N_3  and  O_4
REMARK    4  A    between atoms: O_4  and  C_5
REMARK    5  A    between atoms: C_5  and  C_6
REMARK    6  A    between atoms: C_9  and  C_10
REMARK    7  A    between atoms: C_21  and  C_22
REMARK    8  A    between atoms: C_22  and  C_23
REMARK    9  A    between atoms: C_23  and  C_24
REMARK   10  A    between atoms: C_24  and  N_25
REMARK   11  A    between atoms: C_24  and  C_26
REMARK   12  A    between atoms: C_24  and  C_28
REMARK   13  A    between atoms: C_26  and  O_27
REMARK   14  A    between atoms: C_28  and  C_29
REMARK   15  A    between atoms: C_29  and  O_30
REMARK                            x       y       z     vdW  Elec       q    Type
REMARK                         _______ _______ _______ _____ _____    ______ ____
ROOT
ATOM      1  C   UNL     1       6.436   5.744  17.573  0.00  0.00    +0.000 A 
ATOM      2  C   UNL     1       7.326   5.586  18.629  0.00  0.00    +0.000 A 
ATOM      3  C   UNL     1       8.125   6.647  19.006  0.00  0.00    +0.000 A 
ATOM      4  C   UNL     1       8.081   7.858  18.318  0.00  0.00    +0.000 A 
ATOM      5  C   UNL     1       7.180   8.018  17.253  0.00  0.00    +0.000 A 
ATOM      6  C   UNL     1       6.371   6.946  16.866  0.00  0.00    +0.000 A 
ENDROOT
BRANCH   1   8
ATOM      7  C   UNL     1       5.254   4.406  15.739  0.00  0.00    +0.000 C 
ATOM      8  C   UNL     1       5.530   4.624  17.223  0.00  0.00    +0.000 C 
ATOM      9  N   UNL     1       5.045   3.924  18.181  0.00  0.00    +0.000 NA
BRANCH   9  10
ATOM     10  O   UNL     1       4.204   2.917  17.701  0.00  0.00    +0.000 OA
BRANCH  10  11
ATOM     11  C   UNL     1       3.072   2.824  18.558  0.00  0.00    +0.000 C 
BRANCH  11  12
ATOM     12  C   UNL     1       2.681   4.220  18.930  0.00  0.00    +0.000 A 
ATOM     13  C   UNL     1       2.590   4.587  20.273  0.00  0.00    +0.000 A 
ATOM     14  C   UNL     1       2.187   5.870  20.615  0.00  0.00    +0.000 A 
ATOM     15  C   UNL     1       1.872   6.827  19.633  0.00  0.00    +0.000 A 
ATOM     16  C   UNL     1       1.951   6.441  18.286  0.00  0.00    +0.000 A 
ATOM     17  C   UNL     1       2.347   5.153  17.938  0.00  0.00    +0.000 A 
BRANCH  15  18
ATOM     18  C   UNL     1       1.507   8.192  20.028  0.00  0.00    +0.000 A 
ATOM     19  C   UNL     1       1.291   8.496  21.384  0.00  0.00    +0.000 A 
ATOM     20  C   UNL     1       0.913   9.773  21.785  0.00  0.00    +0.000 A 
ATOM     21  C   UNL     1       0.760  10.779  20.836  0.00  0.00    +0.000 A 
ATOM     22  C   UNL     1       0.988  10.508  19.489  0.00  0.00    +0.000 A 
ATOM     23  C   UNL     1       1.359   9.226  19.085  0.00  0.00    +0.000 A 
ENDBRANCH  15  18
ENDBRANCH  11  12
ENDBRANCH  10  11
ENDBRANCH   9  10
ENDBRANCH   1   8
BRANCH   4  24
ATOM     24  C   UNL     1       8.963   8.986  18.782  0.00  0.00    +0.000 C 
BRANCH  24  25
ATOM     25  C   UNL     1       8.643  10.357  18.150  0.00  0.00    +0.000 C 
BRANCH  25  26
ATOM     26  C   UNL     1       9.357  11.591  18.769  0.00  0.00    +0.000 C 
BRANCH  26  27
ATOM     27  N   UNL     1       8.696  12.834  18.337  0.00  0.00    +0.000 NA
ATOM     28  H   UNL     1       7.726  12.640  18.096  0.00  0.00    +0.000 HD
ATOM     29  H   UNL     1       9.129  13.159  17.472  0.00  0.00    +0.000 HD
ENDBRANCH  26  27
BRANCH  26  30
ATOM     30  C   UNL     1       9.366  11.521  20.319  0.00  0.00    +0.000 C 
BRANCH  30  31
ATOM     31  O   UNL     1      10.663  11.677  20.881  0.00  0.00    +0.000 OA
ATOM     32  H   UNL     1      10.580  11.446  21.821  0.00  0.00    +0.000 HD
ENDBRANCH  30  31
ENDBRANCH  26  30
BRANCH  26  33
ATOM     33  C   UNL     1      10.816  11.608  18.226  0.00  0.00    +0.000 C 
BRANCH  33  34
ATOM     34  C   UNL     1      11.353  12.988  17.846  0.00  0.00    +0.000 C 
BRANCH  34  35
ATOM     35  O   UNL     1      10.934  13.323  16.525  0.00  0.00    +0.000 OA
ATOM     36  H   UNL     1      10.326  12.625  16.229  0.00  0.00    +0.000 HD
ENDBRANCH  34  35
ENDBRANCH  33  34
ENDBRANCH  26  33
ENDBRANCH  25  26
ENDBRANCH  24  25
ENDBRANCH   4  24
TORSDOF 14
ENDMDL
MODEL 6
REMARK VINA RESULT:      -7.6      0.934      2.042
REMARK  Name = 
REMARK  15 active torsions:
REMARK  status: ('A' for Active; 'I' for Inactive)
REMARK    1  A    between atoms: C_1  and  C_2
REMARK    2  A    between atoms: C_2  and  C_18
REMARK    3  A    between atoms: N_3  and  O_4
REMARK    4  A    between atoms: O_4  and  C_5
REMARK    5  A    between atoms: C_5  and  C_6
REMARK    6  A    between atoms: C_9  and  C_10
REMARK    7  A    between atoms: C_21  and  C_22
REMARK    8  A    between atoms: C_22  and  C_23
REMARK    9  A    between atoms: C_23  and  C_24
REMARK   10  A    between atoms: C_24  and  N_25
REMARK   11  A    between atoms: C_24  and  C_26
REMARK   12  A    between atoms: C_24  and  C_28
REMARK   13  A    between atoms: C_26  and  O_27
REMARK   14  A    between atoms: C_28  and  C_29
REMARK   15  A    between atoms: C_29  and  O_30
REMARK                            x       y       z     vdW  Elec       q    Type
REMARK                         _______ _______ _______ _____ _____    ______ ____
ROOT
ATOM      1  C   UNL     1       7.007   6.146  17.637  0.00  0.00    +0.000 A 
ATOM      2  C   UNL     1       7.843   6.071  18.745  0.00  0.00    +0.000 A 
ATOM      3  C   UNL     1       8.505   7.204  19.172  0.00  0.00    +0.000 A 
ATOM      4  C   UNL     1       8.379   8.411  18.487  0.00  0.00    +0.000 A 
ATOM      5  C   UNL     1       7.531   8.488  17.370  0.00  0.00    +0.000 A 
ATOM      6  C   UNL     1       6.861   7.342  16.931  0.00  0.00    +0.000 A 
ENDROOT
BRANCH   1   8
ATOM      7  C   UNL     1       6.567   4.359  15.858  0.00  0.00    +0.000 C 
ATOM      8  C   UNL     1       6.243   4.943  17.230  0.00  0.00    +0.000 C 
ATOM      9  N   UNL     1       5.371   4.481  18.049  0.00  0.00    +0.000 NA
BRANCH   9  10
ATOM     10  O   UNL     1       4.726   3.357  17.526  0.00  0.00    +0.000 OA
BRANCH  10  11
ATOM     11  C   UNL     1       3.542   3.122  18.279  0.00  0.00    +0.000 C 
BRANCH  11  12
ATOM     12  C   UNL     1       3.039   4.452  18.742  0.00  0.00    +0.000 A 
ATOM     13  C   UNL     1       2.716   4.649  20.086  0.00  0.00    +0.000 A 
ATOM     14  C   UNL     1       2.210   5.871  20.505  0.00  0.00    +0.000 A 
ATOM     15  C   UNL     1       2.020   6.935  19.603  0.00  0.00    +0.000 A 
ATOM     16  C   UNL     1       2.332   6.720  18.252  0.00  0.00    +0.000 A 
ATOM     17  C   UNL     1       2.833   5.493  17.826  0.00  0.00    +0.000 A 
BRANCH  15  18
ATOM     18  C   UNL     1       1.539   8.234  20.090  0.00  0.00    +0.000 A 
ATOM     19  C   UNL     1       1.300   8.424  21.463  0.00  0.00    +0.000 A 
ATOM     20  C   UNL     1       0.814   9.632  21.950  0.00  0.00    +0.000 A 
ATOM     21  C   UNL     1       0.574  10.685  21.072  0.00  0.00    +0.000 A 
ATOM     22  C   UNL     1       0.822  10.528  19.711  0.00  0.00    +0.000 A 
ATOM     23  C   UNL     1       1.301   9.313  19.221  0.00  0.00    +0.000 A 
ENDBRANCH  15  18
ENDBRANCH  11  12
ENDBRANCH  10  11
ENDBRANCH   9  10
ENDBRANCH   1   8
BRANCH   4  24
ATOM     24  C   UNL     1       9.111   9.619  19.007  0.00  0.00    +0.000 C 
BRANCH  24  25
ATOM     25  C   UNL     1       9.377  10.715  17.954  0.00  0.00    +0.000 C 
BRANCH  25  26
ATOM     26  C   UNL     1      10.450  11.779  18.314  0.00  0.00    +0.000 C 
BRANCH  26  27
ATOM     27  N   UNL     1      11.607  11.666  17.409  0.00  0.00    +0.000 NA
ATOM     28  H   UNL     1      11.531  10.811  16.862  0.00  0.00    +0.000 HD
ATOM     29  H   UNL     1      12.456  11.557  17.965  0.00  0.00    +0.000 HD
ENDBRANCH  26  27
BRANCH  26  30
ATOM     30  C   UNL     1       9.870  13.216  18.235  0.00  0.00    +0.000 C 
BRANCH  30  31
ATOM     31  O   UNL     1      10.790  14.166  17.713  0.00  0.00    +0.000 OA
ATOM     32  H   UNL     1      11.558  13.658  17.403  0.00  0.00    +0.000 HD
ENDBRANCH  30  31
ENDBRANCH  26  30
BRANCH  26  33
ATOM     33  C   UNL     1      10.940  11.479  19.761  0.00  0.00    +0.000 C 
BRANCH  33  34
ATOM     34  C   UNL     1      10.536  12.513  20.812  0.00  0.00    +0.000 C 
BRANCH  34  35
ATOM     35  O   UNL     1       9.798  11.879  21.855  0.00  0.00    +0.000 OA
ATOM     36  H   UNL     1       9.657  12.540  22.553  0.00  0.00    +0.000 HD
ENDBRANCH  34  35
ENDBRANCH  33  34
ENDBRANCH  26  33
ENDBRANCH  25  26
ENDBRANCH  24  25
ENDBRANCH   4  24
TORSDOF 14
ENDMDL
MODEL 7
REMARK VINA RESULT:      -7.5      3.117      9.506
REMARK  Name = 
REMARK  15 active torsions:
REMARK  status: ('A' for Active; 'I' for Inactive)
REMARK    1  A    between atoms: C_1  and  C_2
REMARK    2  A    between atoms: C_2  and  C_18
REMARK    3  A    between atoms: N_3  and  O_4
REMARK    4  A    between atoms: O_4  and  C_5
REMARK    5  A    between atoms: C_5  and  C_6
REMARK    6  A    between atoms: C_9  and  C_10
REMARK    7  A    between atoms: C_21  and  C_22
REMARK    8  A    between atoms: C_22  and  C_23
REMARK    9  A    between atoms: C_23  and  C_24
REMARK   10  A    between atoms: C_24  and  N_25
REMARK   11  A    between atoms: C_24  and  C_26
REMARK   12  A    between atoms: C_24  and  C_28
REMARK   13  A    between atoms: C_26  and  O_27
REMARK   14  A    between atoms: C_28  and  C_29
REMARK   15  A    between atoms: C_29  and  O_30
REMARK                            x       y       z     vdW  Elec       q    Type
REMARK                         _______ _______ _______ _____ _____    ______ ____
ROOT
ATOM      1  C   UNL     1       6.066   5.986  17.816  0.00  0.00    +0.000 A 
ATOM      2  C   UNL     1       4.800   6.523  18.024  0.00  0.00    +0.000 A 
ATOM      3  C   UNL     1       3.686   5.768  17.718  0.00  0.00    +0.000 A 
ATOM      4  C   UNL     1       3.810   4.495  17.166  0.00  0.00    +0.000 A 
ATOM      5  C   UNL     1       5.088   3.951  16.960  0.00  0.00    +0.000 A 
ATOM      6  C   UNL     1       6.220   4.712  17.266  0.00  0.00    +0.000 A 
ENDROOT
BRANCH   1   8
ATOM      7  C   UNL     1       8.228   6.100  19.181  0.00  0.00    +0.000 C 
ATOM      8  C   UNL     1       7.256   6.773  18.217  0.00  0.00    +0.000 C 
ATOM      9  N   UNL     1       7.385   7.954  17.733  0.00  0.00    +0.000 NA
BRANCH   9  10
ATOM     10  O   UNL     1       8.543   8.575  18.207  0.00  0.00    +0.000 OA
BRANCH  10  11
ATOM     11  C   UNL     1       8.746   9.777  17.475  0.00  0.00    +0.000 C 
BRANCH  11  12
ATOM     12  C   UNL     1       8.997  10.866  18.469  0.00  0.00    +0.000 A 
ATOM     13  C   UNL     1       8.966  12.202  18.068  0.00  0.00    +0.000 A 
ATOM     14  C   UNL     1       9.241  13.208  18.983  0.00  0.00    +0.000 A 
ATOM     15  C   UNL     1       9.546  12.915  20.326  0.00  0.00    +0.000 A 
ATOM     16  C   UNL     1       9.591  11.567  20.714  0.00  0.00    +0.000 A 
ATOM     17  C   UNL     1       9.323  10.555  19.797  0.00  0.00    +0.000 A 
BRANCH  15  18
ATOM     18  C   UNL     1       9.772  14.004  21.282  0.00  0.00    +0.000 A 
ATOM     19  C   UNL     1      10.672  15.039  20.967  0.00  0.00    +0.000 A 
ATOM     20  C   UNL     1      10.931  16.068  21.866  0.00  0.00    +0.000 A 
ATOM     21  C   UNL     1      10.281  16.092  23.096  0.00  0.00    +0.000 A 
ATOM     22  C   UNL     1       9.370  15.090  23.423  0.00  0.00    +0.000 A 
ATOM     23  C   UNL     1       9.116  14.053  22.525  0.00  0.00    +0.000 A 
ENDBRANCH  15  18
ENDBRANCH  11  12
ENDBRANCH  10  11
ENDBRANCH   9  10
ENDBRANCH   1   8
BRANCH   4  24
ATOM     24  C   UNL     1       2.561   3.711  16.867  0.00  0.00    +0.000 C 
BRANCH  24  25
ATOM     25  C   UNL     1       1.438   3.861  17.915  0.00  0.00    +0.000 C 
BRANCH  25  26
ATOM     26  C   UNL     1       1.415   2.814  19.063  0.00  0.00    +0.000 C 
BRANCH  26  27
ATOM     27  N   UNL     1       0.473   1.727  18.745  0.00  0.00    +0.000 NA
ATOM     28  H   UNL     1       0.985   0.925  18.384  0.00  0.00    +0.000 HD
ATOM     29  H   UNL     1      -0.134   2.026  17.980  0.00  0.00    +0.000 HD
ENDBRANCH  26  27
BRANCH  26  30
ATOM     30  C   UNL     1       2.827   2.218  19.313  0.00  0.00    +0.000 C 
BRANCH  30  31
ATOM     31  O   UNL     1       3.077   1.034  18.568  0.00  0.00    +0.000 OA
ATOM     32  H   UNL     1       2.324   0.443  18.735  0.00  0.00    +0.000 HD
ENDBRANCH  30  31
ENDBRANCH  26  30
BRANCH  26  33
ATOM     33  C   UNL     1       0.904   3.534  20.344  0.00  0.00    +0.000 C 
BRANCH  33  34
ATOM     34  C   UNL     1       1.347   4.990  20.493  0.00  0.00    +0.000 C 
BRANCH  34  35
ATOM     35  O   UNL     1       2.491   5.063  21.341  0.00  0.00    +0.000 OA
ATOM     36  H   UNL     1       2.378   4.393  22.037  0.00  0.00    +0.000 HD
ENDBRANCH  34  35
ENDBRANCH  33  34
ENDBRANCH  26  33
ENDBRANCH  25  26
ENDBRANCH  24  25
ENDBRANCH   4  24
TORSDOF 14
ENDMDL
MODEL 8
REMARK VINA RESULT:      -7.5      5.350      9.652
REMARK  Name = 
REMARK  15 active torsions:
REMARK  status: ('A' for Active; 'I' for Inactive)
REMARK    1  A    between atoms: C_1  and  C_2
REMARK    2  A    between atoms: C_2  and  C_18
REMARK    3  A    between atoms: N_3  and  O_4
REMARK    4  A    between atoms: O_4  and  C_5
REMARK    5  A    between atoms: C_5  and  C_6
REMARK    6  A    between atoms: C_9  and  C_10
REMARK    7  A    between atoms: C_21  and  C_22
REMARK    8  A    between atoms: C_22  and  C_23
REMARK    9  A    between atoms: C_23  and  C_24
REMARK   10  A    between atoms: C_24  and  N_25
REMARK   11  A    between atoms: C_24  and  C_26
REMARK   12  A    between atoms: C_24  and  C_28
REMARK   13  A    between atoms: C_26  and  O_27
REMARK   14  A    between atoms: C_28  and  C_29
REMARK   15  A    between atoms: C_29  and  O_30
REMARK                            x       y       z     vdW  Elec       q    Type
REMARK                         _______ _______ _______ _____ _____    ______ ____
ROOT
ATOM      1  C   UNL     1       1.528   9.152  19.059  0.00  0.00    +0.000 A 
ATOM      2  C   UNL     1       2.118   8.965  17.814  0.00  0.00    +0.000 A 
ATOM      3  C   UNL     1       2.787   7.787  17.551  0.00  0.00    +0.000 A 
ATOM      4  C   UNL     1       2.915   6.802  18.527  0.00  0.00    +0.000 A 
ATOM      5  C   UNL     1       2.317   6.989  19.784  0.00  0.00    +0.000 A 
ATOM      6  C   UNL     1       1.641   8.181  20.056  0.00  0.00    +0.000 A 
ENDROOT
BRANCH   1   8
ATOM      7  C   UNL     1      -0.753  10.313  19.047  0.00  0.00    +0.000 C 
ATOM      8  C   UNL     1       0.748  10.388  19.307  0.00  0.00    +0.000 C 
ATOM      9  N   UNL     1       1.382  11.425  19.718  0.00  0.00    +0.000 NA
BRANCH   9  10
ATOM     10  O   UNL     1       0.520  12.510  19.897  0.00  0.00    +0.000 OA
BRANCH  10  11
ATOM     11  C   UNL     1       0.428  12.792  21.288  0.00  0.00    +0.000 C 
BRANCH  11  12
ATOM     12  C   UNL     1      -1.027  12.875  21.628  0.00  0.00    +0.000 A 
ATOM     13  C   UNL     1      -1.460  12.591  22.924  0.00  0.00    +0.000 A 
ATOM     14  C   UNL     1      -2.814  12.628  23.226  0.00  0.00    +0.000 A 
ATOM     15  C   UNL     1      -3.774  12.958  22.251  0.00  0.00    +0.000 A 
ATOM     16  C   UNL     1      -3.329  13.225  20.948  0.00  0.00    +0.000 A 
ATOM     17  C   UNL     1      -1.972  13.182  20.639  0.00  0.00    +0.000 A 
BRANCH  15  18
ATOM     18  C   UNL     1      -5.192  13.047  22.619  0.00  0.00    +0.000 A 
ATOM     19  C   UNL     1      -5.584  12.860  23.957  0.00  0.00    +0.000 A 
ATOM     20  C   UNL     1      -6.923  12.906  24.329  0.00  0.00    +0.000 A 
ATOM     21  C   UNL     1      -7.899  13.159  23.370  0.00  0.00    +0.000 A 
ATOM     22  C   UNL     1      -7.535  13.368  22.043  0.00  0.00    +0.000 A 
ATOM     23  C   UNL     1      -6.193  13.313  21.667  0.00  0.00    +0.000 A 
ENDBRANCH  15  18
ENDBRANCH  11  12
ENDBRANCH  10  11
ENDBRANCH   9  10
ENDBRANCH   1   8
BRANCH   4  24
ATOM     24  C   UNL     1       3.642   5.530  18.181  0.00  0.00    +0.000 C 
BRANCH  24  25
ATOM     25  C   UNL     1       4.135   4.717  19.397  0.00  0.00    +0.000 C 
BRANCH  25  26
ATOM     26  C   UNL     1       3.419   3.363  19.663  0.00  0.00    +0.000 C 
BRANCH  26  27
ATOM     27  N   UNL     1       2.475   3.061  18.574  0.00  0.00    +0.000 NA
ATOM     28  H   UNL     1       1.609   3.575  18.719  0.00  0.00    +0.000 HD
ATOM     29  H   UNL     1       2.215   2.075  18.622  0.00  0.00    +0.000 HD
ENDBRANCH  26  27
BRANCH  26  30
ATOM     30  C   UNL     1       4.439   2.202  19.801  0.00  0.00    +0.000 C 
BRANCH  30  31
ATOM     31  O   UNL     1       4.280   1.194  18.811  0.00  0.00    +0.000 OA
ATOM     32  H   UNL     1       5.132   1.132  18.348  0.00  0.00    +0.000 HD
ENDBRANCH  30  31
ENDBRANCH  26  30
BRANCH  26  33
ATOM     33  C   UNL     1       2.603   3.517  20.979  0.00  0.00    +0.000 C 
BRANCH  33  34
ATOM     34  C   UNL     1       1.324   2.682  21.053  0.00  0.00    +0.000 C 
BRANCH  34  35
ATOM     35  O   UNL     1       0.279   3.334  20.336  0.00  0.00    +0.000 OA
ATOM     36  H   UNL     1       0.188   4.228  20.706  0.00  0.00    +0.000 HD
ENDBRANCH  34  35
ENDBRANCH  33  34
ENDBRANCH  26  33
ENDBRANCH  25  26
ENDBRANCH  24  25
ENDBRANCH   4  24
TORSDOF 14
ENDMDL
MODEL 9
REMARK VINA RESULT:      -7.5      4.803      8.622
REMARK  Name = 
REMARK  15 active torsions:
REMARK  status: ('A' for Active; 'I' for Inactive)
REMARK    1  A    between atoms: C_1  and  C_2
REMARK    2  A    between atoms: C_2  and  C_18
REMARK    3  A    between atoms: N_3  and  O_4
REMARK    4  A    between atoms: O_4  and  C_5
REMARK    5  A    between atoms: C_5  and  C_6
REMARK    6  A    between atoms: C_9  and  C_10
REMARK    7  A    between atoms: C_21  and  C_22
REMARK    8  A    between atoms: C_22  and  C_23
REMARK    9  A    between atoms: C_23  and  C_24
REMARK   10  A    between atoms: C_24  and  N_25
REMARK   11  A    between atoms: C_24  and  C_26
REMARK   12  A    between atoms: C_24  and  C_28
REMARK   13  A    between atoms: C_26  and  O_27
REMARK   14  A    between atoms: C_28  and  C_29
REMARK   15  A    between atoms: C_29  and  O_30
REMARK                            x       y       z     vdW  Elec       q    Type
REMARK                         _______ _______ _______ _____ _____    ______ ____
ROOT
ATOM      1  C   UNL     1       1.544   7.893  20.142  0.00  0.00    +0.000 A 
ATOM      2  C   UNL     1       2.154   7.967  18.895  0.00  0.00    +0.000 A 
ATOM      3  C   UNL     1       2.720   6.833  18.348  0.00  0.00    +0.000 A 
ATOM      4  C   UNL     1       2.725   5.627  19.045  0.00  0.00    +0.000 A 
ATOM      5  C   UNL     1       2.107   5.550  20.303  0.00  0.00    +0.000 A 
ATOM      6  C   UNL     1       1.535   6.696  20.862  0.00  0.00    +0.000 A 
ENDROOT
BRANCH   1   8
ATOM      7  C   UNL     1       0.318   8.986  22.104  0.00  0.00    +0.000 C 
ATOM      8  C   UNL     1       0.874   9.097  20.688  0.00  0.00    +0.000 C 
ATOM      9  N   UNL     1       0.807  10.136  19.941  0.00  0.00    +0.000 NA
BRANCH   9  10
ATOM     10  O   UNL     1       0.141  11.183  20.583  0.00  0.00    +0.000 OA
BRANCH  10  11
ATOM     11  C   UNL     1      -0.784  11.761  19.669  0.00  0.00    +0.000 C 
BRANCH  11  12
ATOM     12  C   UNL     1      -1.971  12.208  20.463  0.00  0.00    +0.000 A 
ATOM     13  C   UNL     1      -3.124  12.648  19.810  0.00  0.00    +0.000 A 
ATOM     14  C   UNL     1      -4.208  13.101  20.548  0.00  0.00    +0.000 A 
ATOM     15  C   UNL     1      -4.181  13.121  21.956  0.00  0.00    +0.000 A 
ATOM     16  C   UNL     1      -3.011  12.691  22.600  0.00  0.00    +0.000 A 
ATOM     17  C   UNL     1      -1.918  12.243  21.863  0.00  0.00    +0.000 A 
BRANCH  15  18
ATOM     18  C   UNL     1      -5.367  13.549  22.706  0.00  0.00    +0.000 A 
ATOM     19  C   UNL     1      -5.731  14.908  22.728  0.00  0.00    +0.000 A 
ATOM     20  C   UNL     1      -6.829  15.348  23.458  0.00  0.00    +0.000 A 
ATOM     21  C   UNL     1      -7.601  14.432  24.168  0.00  0.00    +0.000 A 
ATOM     22  C   UNL     1      -7.273  13.079  24.145  0.00  0.00    +0.000 A 
ATOM     23  C   UNL     1      -6.165  12.638  23.421  0.00  0.00    +0.000 A 
ENDBRANCH  15  18
ENDBRANCH  11  12
ENDBRANCH  10  11
ENDBRANCH   9  10
ENDBRANCH   1   8
BRANCH   4  24
ATOM     24  C   UNL     1       3.343   4.418  18.394  0.00  0.00    +0.000 C 
BRANCH  24  25
ATOM     25  C   UNL     1       3.816   4.639  16.941  0.00  0.00    +0.000 C 
BRANCH  25  26
ATOM     26  C   UNL     1       5.350   4.594  16.695  0.00  0.00    +0.000 C 
BRANCH  26  27
ATOM     27  N   UNL     1       5.765   3.237  16.303  0.00  0.00    +0.000 NA
ATOM     28  H   UNL     1       6.537   3.293  15.641  0.00  0.00    +0.000 HD
ATOM     29  H   UNL     1       5.003   2.790  15.791  0.00  0.00    +0.000 HD
ENDBRANCH  26  27
BRANCH  26  30
ATOM     30  C   UNL     1       5.775   5.604  15.596  0.00  0.00    +0.000 C 
BRANCH  30  31
ATOM     31  O   UNL     1       5.164   6.880  15.738  0.00  0.00    +0.000 OA
ATOM     32  H   UNL     1       4.254   6.782  15.413  0.00  0.00    +0.000 HD
ENDBRANCH  30  31
ENDBRANCH  26  30
BRANCH  26  33
ATOM     33  C   UNL     1       6.050   4.942  18.041  0.00  0.00    +0.000 C 
BRANCH  33  34
ATOM     34  C   UNL     1       7.541   5.260  17.936  0.00  0.00    +0.000 C 
BRANCH  34  35
ATOM     35  O   UNL     1       8.274   4.063  17.684  0.00  0.00    +0.000 OA
ATOM     36  H   UNL     1       9.217   4.274  17.789  0.00  0.00    +0.000 HD
ENDBRANCH  34  35
ENDBRANCH  33  34
ENDBRANCH  26  33
ENDBRANCH  25  26
ENDBRANCH  24  25
ENDBRANCH   4  24
TORSDOF 14
ENDMDL
