MODEL 1
REMARK VINA RESULT:      -8.6      0.000      0.000
REMARK  Name = 
REMARK  11 active torsions:
REMARK  status: ('A' for Active; 'I' for Inactive)
REMARK    1  A    between atoms: C_1  and  O_2
REMARK    2  A    between atoms: O_2  and  C_3
REMARK    3  A    between atoms: C_6  and  C_7
REMARK    4  A    between atoms: C_7  and  N_8
REMARK    5  A    between atoms: N_8  and  C_9
REMARK    6  A    between atoms: C_16  and  C_17
REMARK    7  A    between atoms: C_20  and  N_21
REMARK    8  A    between atoms: N_21  and  C_22
REMARK    9  A    between atoms: N_21  and  C_23
REMARK   10  A    between atoms: C_28  and  O_29
REMARK   11  A    between atoms: O_29  and  C_30
REMARK                            x       y       z     vdW  Elec       q    Type
REMARK                         _______ _______ _______ _____ _____    ______ ____
ROOT
ATOM      1  C   UNL     1       2.740   3.806  19.929  0.00  0.00    +0.000 A 
ATOM      2  N   UNL     1       1.892   2.968  19.307  0.00  0.00    +0.000 NA
ATOM      3  C   UNL     1       1.525   3.403  18.093  0.00  0.00    +0.000 A 
ATOM      4  N   UNL     1       1.853   4.597  17.586  0.00  0.00    +0.000 NA
ATOM      5  C   UNL     1       2.241   5.520  18.480  0.00  0.00    +0.000 A 
ATOM      6  C   UNL     1       2.323   6.823  18.057  0.00  0.00    +0.000 A 
ATOM      7  C   UNL     1       2.120   7.897  18.929  0.00  0.00    +0.000 A 
ATOM      8  C   UNL     1       1.746   7.748  20.277  0.00  0.00    +0.000 A 
ATOM      9  C   UNL     1       1.982   6.400  20.737  0.00  0.00    +0.000 A 
ATOM     10  C   UNL     1       2.397   5.238  19.823  0.00  0.00    +0.000 A 
ENDROOT
BRANCH   8  11
ATOM     11  C   UNL     1       1.053   8.990  20.922  0.00  0.00    +0.000 A 
ATOM     12  C   UNL     1       0.680   9.157  22.262  0.00  0.00    +0.000 A 
ATOM     13  C   UNL     1      -0.232  10.211  22.707  0.00  0.00    +0.000 A 
ATOM     14  C   UNL     1      -0.839  11.158  21.851  0.00  0.00    +0.000 A 
ATOM     15  C   UNL     1      -0.393  11.046  20.550  0.00  0.00    +0.000 A 
ATOM     16  C   UNL     1       0.522  10.033  20.113  0.00  0.00    +0.000 A 
BRANCH  14  17
ATOM     17  N   UNL     1      -1.795  12.100  22.257  0.00  0.00    +0.000 N 
ATOM     18  C   UNL     1      -2.694  11.927  23.400  0.00  0.00    +0.000 C 
ATOM     19  C   UNL     1      -2.037  13.390  21.580  0.00  0.00    +0.000 C 
ENDBRANCH  14  17
ENDBRANCH   8  11
BRANCH   1  20
ATOM     20  N   UNL     1       4.050   3.445  19.390  0.00  0.00    +0.000 N 
ATOM     21  H   UNL     1       4.322   2.687  20.014  0.00  0.00    +0.000 HD
BRANCH  20  22
ATOM     22  C   UNL     1       5.224   4.331  19.351  0.00  0.00    +0.000 C 
BRANCH  22  26
ATOM     23  C   UNL     1       6.630   4.855  15.261  0.00  0.00    +0.000 A 
ATOM     24  C   UNL     1       5.529   4.023  15.500  0.00  0.00    +0.000 A 
ATOM     25  C   UNL     1       5.060   3.803  16.812  0.00  0.00    +0.000 A 
ATOM     26  C   UNL     1       5.702   4.421  17.903  0.00  0.00    +0.000 A 
ATOM     27  C   UNL     1       6.837   5.201  17.646  0.00  0.00    +0.000 A 
ATOM     28  C   UNL     1       7.284   5.431  16.347  0.00  0.00    +0.000 A 
BRANCH  23  30
ATOM     29  C   UNL     1       6.599   4.037  13.023  0.00  0.00    +0.000 C 
ATOM     30  O   UNL     1       6.980   5.055  13.951  0.00  0.00    +0.000 OA
ENDBRANCH  23  30
BRANCH  27  31
ATOM     31  O   UNL     1       7.400   5.793  18.741  0.00  0.00    +0.000 OA
ATOM     32  C   UNL     1       8.025   7.039  18.534  0.00  0.00    +0.000 C 
ENDBRANCH  27  31
ENDBRANCH  22  26
ENDBRANCH  20  22
ENDBRANCH   1  20
TORSDOF 7
ENDMDL
MODEL 2
REMARK VINA RESULT:      -8.3      1.053      1.457
REMARK  Name = 
REMARK  11 active torsions:
REMARK  status: ('A' for Active; 'I' for Inactive)
REMARK    1  A    between atoms: C_1  and  O_2
REMARK    2  A    between atoms: O_2  and  C_3
REMARK    3  A    between atoms: C_6  and  C_7
REMARK    4  A    between atoms: C_7  and  N_8
REMARK    5  A    between atoms: N_8  and  C_9
REMARK    6  A    between atoms: C_16  and  C_17
REMARK    7  A    between atoms: C_20  and  N_21
REMARK    8  A    between atoms: N_21  and  C_22
REMARK    9  A    between atoms: N_21  and  C_23
REMARK   10  A    between atoms: C_28  and  O_29
REMARK   11  A    between atoms: O_29  and  C_30
REMARK                            x       y       z     vdW  Elec       q    Type
REMARK                         _______ _______ _______ _____ _____    ______ ____
ROOT
ATOM      1  C   UNL     1       2.624   5.017  20.093  0.00  0.00    +0.000 A 
ATOM      2  N   UNL     1       2.013   4.120  19.297  0.00  0.00    +0.000 NA
ATOM      3  C   UNL     1       1.800   4.584  18.057  0.00  0.00    +0.000 A 
ATOM      4  N   UNL     1       2.044   5.841  17.666  0.00  0.00    +0.000 NA
ATOM      5  C   UNL     1       2.148   6.744  18.652  0.00  0.00    +0.000 A 
ATOM      6  C   UNL     1       2.123   8.072  18.306  0.00  0.00    +0.000 A 
ATOM      7  C   UNL     1       1.633   9.053  19.173  0.00  0.00    +0.000 A 
ATOM      8  C   UNL     1       1.061   8.771  20.428  0.00  0.00    +0.000 A 
ATOM      9  C   UNL     1       1.396   7.437  20.865  0.00  0.00    +0.000 A 
ATOM     10  C   UNL     1       2.112   6.398  19.989  0.00  0.00    +0.000 A 
ENDROOT
BRANCH   8  11
ATOM     11  C   UNL     1       0.107   9.871  20.993  0.00  0.00    +0.000 A 
ATOM     12  C   UNL     1      -0.157  11.133  20.446  0.00  0.00    +0.000 A 
ATOM     13  C   UNL     1      -0.815  12.202  21.196  0.00  0.00    +0.000 A 
ATOM     14  C   UNL     1      -1.240  12.092  22.540  0.00  0.00    +0.000 A 
ATOM     15  C   UNL     1      -1.062  10.819  23.041  0.00  0.00    +0.000 A 
ATOM     16  C   UNL     1      -0.444   9.758  22.300  0.00  0.00    +0.000 A 
BRANCH  14  17
ATOM     17  N   UNL     1      -1.772  13.147  23.295  0.00  0.00    +0.000 N 
ATOM     18  C   UNL     1      -3.107  13.143  23.898  0.00  0.00    +0.000 C 
ATOM     19  C   UNL     1      -1.065  14.413  23.576  0.00  0.00    +0.000 C 
ENDBRANCH  14  17
ENDBRANCH   8  11
BRANCH   1  20
ATOM     20  N   UNL     1       4.042   4.860  19.776  0.00  0.00    +0.000 N 
ATOM     21  H   UNL     1       4.156   5.539  19.024  0.00  0.00    +0.000 HD
BRANCH  20  22
ATOM     22  C   UNL     1       4.666   3.630  19.262  0.00  0.00    +0.000 C 
BRANCH  22  26
ATOM     23  C   UNL     1       6.920   4.899  15.758  0.00  0.00    +0.000 A 
ATOM     24  C   UNL     1       5.785   4.098  15.581  0.00  0.00    +0.000 A 
ATOM     25  C   UNL     1       5.043   3.641  16.691  0.00  0.00    +0.000 A 
ATOM     26  C   UNL     1       5.443   3.987  17.997  0.00  0.00    +0.000 A 
ATOM     27  C   UNL     1       6.615   4.739  18.151  0.00  0.00    +0.000 A 
ATOM     28  C   UNL     1       7.332   5.204  17.051  0.00  0.00    +0.000 A 
BRANCH  23  30
ATOM     29  C   UNL     1       7.113   4.767  13.385  0.00  0.00    +0.000 C 
ATOM     30  O   UNL     1       7.544   5.342  14.620  0.00  0.00    +0.000 OA
ENDBRANCH  23  30
BRANCH  27  31
ATOM     31  O   UNL     1       6.936   5.064  19.439  0.00  0.00    +0.000 OA
ATOM     32  C   UNL     1       8.112   5.817  19.625  0.00  0.00    +0.000 C 
ENDBRANCH  27  31
ENDBRANCH  22  26
ENDBRANCH  20  22
ENDBRANCH   1  20
TORSDOF 7
ENDMDL
MODEL 3
REMARK VINA RESULT:      -8.2      0.981      1.337
REMARK  Name = 
REMARK  11 active torsions:
REMARK  status: ('A' for Active; 'I' for Inactive)
REMARK    1  A    between atoms: C_1  and  O_2
REMARK    2  A    between atoms: O_2  and  C_3
REMARK    3  A    between atoms: C_6  and  C_7
REMARK    4  A    between atoms: C_7  and  N_8
REMARK    5  A    between atoms: N_8  and  C_9
REMARK    6  A    between atoms: C_16  and  C_17
REMARK    7  A    between atoms: C_20  and  N_21
REMARK    8  A    between atoms: N_21  and  C_22
REMARK    9  A    between atoms: N_21  and  C_23
REMARK   10  A    between atoms: C_28  and  O_29
REMARK   11  A    between atoms: O_29  and  C_30
REMARK                            x       y       z     vdW  Elec       q    Type
REMARK                         _______ _______ _______ _____ _____    ______ ____
ROOT
ATOM      1  C   UNL     1       2.687   5.176  20.047  0.00  0.00    +0.000 A 
ATOM      2  N   UNL     1       2.005   4.261  19.336  0.00  0.00    +0.000 NA
ATOM      3  C   UNL     1       1.717   4.674  18.093  0.00  0.00    +0.000 A 
ATOM      4  N   UNL     1       1.959   5.907  17.630  0.00  0.00    +0.000 NA
ATOM      5  C   UNL     1       2.149   6.850  18.565  0.00  0.00    +0.000 A 
ATOM      6  C   UNL     1       2.128   8.162  18.161  0.00  0.00    +0.000 A 
ATOM      7  C   UNL     1       1.720   9.191  19.015  0.00  0.00    +0.000 A 
ATOM      8  C   UNL     1       1.230   8.978  20.317  0.00  0.00    +0.000 A 
ATOM      9  C   UNL     1       1.567   7.656  20.790  0.00  0.00    +0.000 A 
ATOM     10  C   UNL     1       2.199   6.563  19.915  0.00  0.00    +0.000 A 
ENDROOT
BRANCH   8  11
ATOM     11  C   UNL     1       0.341  10.124  20.895  0.00  0.00    +0.000 A 
ATOM     12  C   UNL     1      -0.036  10.318  22.230  0.00  0.00    +0.000 A 
ATOM     13  C   UNL     1      -1.110  11.228  22.628  0.00  0.00    +0.000 A 
ATOM     14  C   UNL     1      -1.886  11.992  21.726  0.00  0.00    +0.000 A 
ATOM     15  C   UNL     1      -1.447  11.867  20.425  0.00  0.00    +0.000 A 
ATOM     16  C   UNL     1      -0.377  10.999  20.032  0.00  0.00    +0.000 A 
BRANCH  14  17
ATOM     17  N   UNL     1      -2.985  12.781  22.094  0.00  0.00    +0.000 N 
ATOM     18  C   UNL     1      -3.536  13.866  21.279  0.00  0.00    +0.000 C 
ATOM     19  C   UNL     1      -3.732  12.637  23.361  0.00  0.00    +0.000 C 
ENDBRANCH  14  17
ENDBRANCH   8  11
BRANCH   1  20
ATOM     20  N   UNL     1       4.077   4.972  19.642  0.00  0.00    +0.000 N 
ATOM     21  H   UNL     1       4.162   5.636  18.874  0.00  0.00    +0.000 HD
BRANCH  20  22
ATOM     22  C   UNL     1       4.629   3.717  19.108  0.00  0.00    +0.000 C 
BRANCH  22  26
ATOM     23  C   UNL     1       6.881   4.886  15.568  0.00  0.00    +0.000 A 
ATOM     24  C   UNL     1       5.646   4.246  15.406  0.00  0.00    +0.000 A 
ATOM     25  C   UNL     1       4.898   3.825  16.526  0.00  0.00    +0.000 A 
ATOM     26  C   UNL     1       5.393   4.043  17.827  0.00  0.00    +0.000 A 
ATOM     27  C   UNL     1       6.657   4.631  17.962  0.00  0.00    +0.000 A 
ATOM     28  C   UNL     1       7.382   5.064  16.854  0.00  0.00    +0.000 A 
BRANCH  23  30
ATOM     29  C   UNL     1       7.142   4.655  13.210  0.00  0.00    +0.000 C 
ATOM     30  O   UNL     1       7.510   5.310  14.426  0.00  0.00    +0.000 OA
ENDBRANCH  23  30
BRANCH  27  31
ATOM     31  O   UNL     1       7.071   4.840  19.248  0.00  0.00    +0.000 OA
ATOM     32  C   UNL     1       7.981   5.895  19.455  0.00  0.00    +0.000 C 
ENDBRANCH  27  31
ENDBRANCH  22  26
ENDBRANCH  20  22
ENDBRANCH   1  20
TORSDOF 7
ENDMDL
MODEL 4
REMARK VINA RESULT:      -8.1      4.246      7.901
REMARK  Name = 
REMARK  11 active torsions:
REMARK  status: ('A' for Active; 'I' for Inactive)
REMARK    1  A    between atoms: C_1  and  O_2
REMARK    2  A    between atoms: O_2  and  C_3
REMARK    3  A    between atoms: C_6  and  C_7
REMARK    4  A    between atoms: C_7  and  N_8
REMARK    5  A    between atoms: N_8  and  C_9
REMARK    6  A    between atoms: C_16  and  C_17
REMARK    7  A    between atoms: C_20  and  N_21
REMARK    8  A    between atoms: N_21  and  C_22
REMARK    9  A    between atoms: N_21  and  C_23
REMARK   10  A    between atoms: C_28  and  O_29
REMARK   11  A    between atoms: O_29  and  C_30
REMARK                            x       y       z     vdW  Elec       q    Type
REMARK                         _______ _______ _______ _____ _____    ______ ____
ROOT
ATOM      1  C   UNL     1       5.261   5.877  16.606  0.00  0.00    +0.000 A 
ATOM      2  N   UNL     1       5.676   5.050  15.630  0.00  0.00    +0.000 NA
ATOM      3  C   UNL     1       6.778   4.362  15.963  0.00  0.00    +0.000 A 
ATOM      4  N   UNL     1       7.479   4.553  17.088  0.00  0.00    +0.000 NA
ATOM      5  C   UNL     1       7.274   5.726  17.706  0.00  0.00    +0.000 A 
ATOM      6  C   UNL     1       8.154   6.087  18.696  0.00  0.00    +0.000 A 
ATOM      7  C   UNL     1       8.434   7.426  18.982  0.00  0.00    +0.000 A 
ATOM      8  C   UNL     1       7.911   8.508  18.250  0.00  0.00    +0.000 A 
ATOM      9  C   UNL     1       6.778   8.099  17.454  0.00  0.00    +0.000 A 
ATOM     10  C   UNL     1       6.330   6.640  17.279  0.00  0.00    +0.000 A 
ENDROOT
BRANCH   8  11
ATOM     11  C   UNL     1       8.723   9.838  18.344  0.00  0.00    +0.000 A 
ATOM     12  C   UNL     1       9.716  10.166  19.276  0.00  0.00    +0.000 A 
ATOM     13  C   UNL     1      10.197  11.533  19.477  0.00  0.00    +0.000 A 
ATOM     14  C   UNL     1       9.715  12.661  18.774  0.00  0.00    +0.000 A 
ATOM     15  C   UNL     1       8.808  12.318  17.794  0.00  0.00    +0.000 A 
ATOM     16  C   UNL     1       8.354  10.977  17.573  0.00  0.00    +0.000 A 
BRANCH  14  17
ATOM     17  N   UNL     1      10.096  13.985  19.039  0.00  0.00    +0.000 N 
ATOM     18  C   UNL     1      10.319  15.004  18.011  0.00  0.00    +0.000 C 
ATOM     19  C   UNL     1      10.338  14.531  20.390  0.00  0.00    +0.000 C 
ENDBRANCH  14  17
ENDBRANCH   8  11
BRANCH   1  20
ATOM     20  N   UNL     1       4.472   5.015  17.486  0.00  0.00    +0.000 N 
ATOM     21  H   UNL     1       4.700   4.092  17.118  0.00  0.00    +0.000 HD
BRANCH  20  22
ATOM     22  C   UNL     1       3.004   5.022  17.586  0.00  0.00    +0.000 C 
BRANCH  22  26
ATOM     23  C   UNL     1       1.636   8.476  19.859  0.00  0.00    +0.000 A 
ATOM     24  C   UNL     1       1.883   8.620  18.488  0.00  0.00    +0.000 A 
ATOM     25  C   UNL     1       2.355   7.534  17.721  0.00  0.00    +0.000 A 
ATOM     26  C   UNL     1       2.587   6.286  18.333  0.00  0.00    +0.000 A 
ATOM     27  C   UNL     1       2.390   6.183  19.716  0.00  0.00    +0.000 A 
ATOM     28  C   UNL     1       1.904   7.252  20.465  0.00  0.00    +0.000 A 
BRANCH  23  30
ATOM     29  C   UNL     1       0.830  10.715  19.710  0.00  0.00    +0.000 C 
ATOM     30  O   UNL     1       1.126   9.569  20.511  0.00  0.00    +0.000 OA
ENDBRANCH  23  30
BRANCH  27  31
ATOM     31  O   UNL     1       2.606   4.942  20.247  0.00  0.00    +0.000 OA
ATOM     32  C   UNL     1       1.476   4.258  20.735  0.00  0.00    +0.000 C 
ENDBRANCH  27  31
ENDBRANCH  22  26
ENDBRANCH  20  22
ENDBRANCH   1  20
TORSDOF 7
ENDMDL
MODEL 5
REMARK VINA RESULT:      -8.1      0.808      1.294
REMARK  Name = 
REMARK  11 active torsions:
REMARK  status: ('A' for Active; 'I' for Inactive)
REMARK    1  A    between atoms: C_1  and  O_2
REMARK    2  A    between atoms: O_2  and  C_3
REMARK    3  A    between atoms: C_6  and  C_7
REMARK    4  A    between atoms: C_7  and  N_8
REMARK    5  A    between atoms: N_8  and  C_9
REMARK    6  A    between atoms: C_16  and  C_17
REMARK    7  A    between atoms: C_20  and  N_21
REMARK    8  A    between atoms: N_21  and  C_22
REMARK    9  A    between atoms: N_21  and  C_23
REMARK   10  A    between atoms: C_28  and  O_29
REMARK   11  A    between atoms: O_29  and  C_30
REMARK                            x       y       z     vdW  Elec       q    Type
REMARK                         _______ _______ _______ _____ _____    ______ ____
ROOT
ATOM      1  C   UNL     1       3.470   3.887  19.923  0.00  0.00    +0.000 A 
ATOM      2  N   UNL     1       2.756   2.844  19.464  0.00  0.00    +0.000 NA
ATOM      3  C   UNL     1       2.272   3.046  18.230  0.00  0.00    +0.000 A 
ATOM      4  N   UNL     1       2.368   4.200  17.559  0.00  0.00    +0.000 NA
ATOM      5  C   UNL     1       2.626   5.284  18.305  0.00  0.00    +0.000 A 
ATOM      6  C   UNL     1       2.465   6.515  17.719  0.00  0.00    +0.000 A 
ATOM      7  C   UNL     1       2.114   7.647  18.460  0.00  0.00    +0.000 A 
ATOM      8  C   UNL     1       1.824   7.620  19.837  0.00  0.00    +0.000 A 
ATOM      9  C   UNL     1       2.308   6.403  20.447  0.00  0.00    +0.000 A 
ATOM     10  C   UNL     1       2.881   5.214  19.661  0.00  0.00    +0.000 A 
ENDROOT
BRANCH   8  11
ATOM     11  C   UNL     1       0.953   8.804  20.364  0.00  0.00    +0.000 A 
ATOM     12  C   UNL     1       0.446   9.882  19.627  0.00  0.00    +0.000 A 
ATOM     13  C   UNL     1      -0.091  11.089  20.253  0.00  0.00    +0.000 A 
ATOM     14  C   UNL     1      -0.147  11.309  21.649  0.00  0.00    +0.000 A 
ATOM     15  C   UNL     1       0.266  10.207  22.368  0.00  0.00    +0.000 A 
ATOM     16  C   UNL     1       0.766   9.009  21.759  0.00  0.00    +0.000 A 
BRANCH  14  17
ATOM     17  N   UNL     1      -0.560  12.507  22.249  0.00  0.00    +0.000 N 
ATOM     18  C   UNL     1       0.063  13.811  22.011  0.00  0.00    +0.000 C 
ATOM     19  C   UNL     1      -1.672  12.618  23.215  0.00  0.00    +0.000 C 
ENDBRANCH  14  17
ENDBRANCH   8  11
BRANCH   1  20
ATOM     20  N   UNL     1       4.801   3.680  19.354  0.00  0.00    +0.000 N 
ATOM     21  H   UNL     1       5.256   3.151  20.096  0.00  0.00    +0.000 HD
BRANCH  20  22
ATOM     22  C   UNL     1       5.756   4.748  19.021  0.00  0.00    +0.000 C 
BRANCH  22  26
ATOM     23  C   UNL     1       6.756   4.677  14.782  0.00  0.00    +0.000 A 
ATOM     24  C   UNL     1       5.809   3.770  15.272  0.00  0.00    +0.000 A 
ATOM     25  C   UNL     1       5.477   3.740  16.643  0.00  0.00    +0.000 A 
ATOM     26  C   UNL     1       6.104   4.627  17.540  0.00  0.00    +0.000 A 
ATOM     27  C   UNL     1       7.091   5.485  17.037  0.00  0.00    +0.000 A 
ATOM     28  C   UNL     1       7.400   5.524  15.679  0.00  0.00    +0.000 A 
BRANCH  23  30
ATOM     29  C   UNL     1       6.357   3.620  12.684  0.00  0.00    +0.000 C 
ATOM     30  O   UNL     1       6.973   4.672  13.429  0.00  0.00    +0.000 OA
ENDBRANCH  23  30
BRANCH  27  31
ATOM     31  O   UNL     1       7.645   6.339  17.950  0.00  0.00    +0.000 OA
ATOM     32  C   UNL     1       7.644   7.707  17.615  0.00  0.00    +0.000 C 
ENDBRANCH  27  31
ENDBRANCH  22  26
ENDBRANCH  20  22
ENDBRANCH   1  20
TORSDOF 7
ENDMDL
MODEL 6
REMARK VINA RESULT:      -8.1      4.190      8.159
REMARK  Name = 
REMARK  11 active torsions:
REMARK  status: ('A' for Active; 'I' for Inactive)
REMARK    1  A    between atoms: C_1  and  O_2
REMARK    2  A    between atoms: O_2  and  C_3
REMARK    3  A    between atoms: C_6  and  C_7
REMARK    4  A    between atoms: C_7  and  N_8
REMARK    5  A    between atoms: N_8  and  C_9
REMARK    6  A    between atoms: C_16  and  C_17
REMARK    7  A    between atoms: C_20  and  N_21
REMARK    8  A    between atoms: N_21  and  C_22
REMARK    9  A    between atoms: N_21  and  C_23
REMARK   10  A    between atoms: C_28  and  O_29
REMARK   11  A    between atoms: O_29  and  C_30
REMARK                            x       y       z     vdW  Elec       q    Type
REMARK                         _______ _______ _______ _____ _____    ______ ____
ROOT
ATOM      1  C   UNL     1       5.384   5.611  16.302  0.00  0.00    +0.000 A 
ATOM      2  N   UNL     1       5.913   4.863  15.317  0.00  0.00    +0.000 NA
ATOM      3  C   UNL     1       7.064   4.274  15.670  0.00  0.00    +0.000 A 
ATOM      4  N   UNL     1       7.703   4.493  16.826  0.00  0.00    +0.000 NA
ATOM      5  C   UNL     1       7.363   5.619  17.472  0.00  0.00    +0.000 A 
ATOM      6  C   UNL     1       8.168   6.029  18.505  0.00  0.00    +0.000 A 
ATOM      7  C   UNL     1       8.305   7.378  18.844  0.00  0.00    +0.000 A 
ATOM      8  C   UNL     1       7.704   8.429  18.126  0.00  0.00    +0.000 A 
ATOM      9  C   UNL     1       6.645   7.939  17.276  0.00  0.00    +0.000 A 
ATOM     10  C   UNL     1       6.349   6.450  17.038  0.00  0.00    +0.000 A 
ENDROOT
BRANCH   8  11
ATOM     11  C   UNL     1       8.378   9.827  18.292  0.00  0.00    +0.000 A 
ATOM     12  C   UNL     1       8.197  10.961  17.490  0.00  0.00    +0.000 A 
ATOM     13  C   UNL     1       9.092  12.117  17.535  0.00  0.00    +0.000 A 
ATOM     14  C   UNL     1      10.229  12.216  18.369  0.00  0.00    +0.000 A 
ATOM     15  C   UNL     1      10.346  11.139  19.223  0.00  0.00    +0.000 A 
ATOM     16  C   UNL     1       9.455  10.016  19.203  0.00  0.00    +0.000 A 
BRANCH  14  17
ATOM     17  N   UNL     1      11.149  13.274  18.338  0.00  0.00    +0.000 N 
ATOM     18  C   UNL     1      11.320  14.189  17.207  0.00  0.00    +0.000 C 
ATOM     19  C   UNL     1      12.081  13.605  19.435  0.00  0.00    +0.000 C 
ENDBRANCH  14  17
ENDBRANCH   8  11
BRANCH   1  20
ATOM     20  N   UNL     1       4.654   4.646  17.123  0.00  0.00    +0.000 N 
ATOM     21  H   UNL     1       4.946   3.765  16.703  0.00  0.00    +0.000 HD
BRANCH  20  22
ATOM     22  C   UNL     1       3.189   4.547  17.214  0.00  0.00    +0.000 C 
BRANCH  22  26
ATOM     23  C   UNL     1       1.637   7.037  20.432  0.00  0.00    +0.000 A 
ATOM     24  C   UNL     1       2.141   7.653  19.280  0.00  0.00    +0.000 A 
ATOM     25  C   UNL     1       2.680   6.885  18.226  0.00  0.00    +0.000 A 
ATOM     26  C   UNL     1       2.719   5.480  18.327  0.00  0.00    +0.000 A 
ATOM     27  C   UNL     1       2.264   4.890  19.513  0.00  0.00    +0.000 A 
ATOM     28  C   UNL     1       1.715   5.652  20.542  0.00  0.00    +0.000 A 
BRANCH  23  30
ATOM     29  C   UNL     1       1.264   9.266  21.193  0.00  0.00    +0.000 C 
ATOM     30  O   UNL     1       1.083   7.860  21.379  0.00  0.00    +0.000 OA
ENDBRANCH  23  30
BRANCH  27  31
ATOM     31  O   UNL     1       2.304   3.524  19.541  0.00  0.00    +0.000 OA
ATOM     32  C   UNL     1       3.203   2.937  20.452  0.00  0.00    +0.000 C 
ENDBRANCH  27  31
ENDBRANCH  22  26
ENDBRANCH  20  22
ENDBRANCH   1  20
TORSDOF 7
ENDMDL
MODEL 7
REMARK VINA RESULT:      -8.0      4.497      9.635
REMARK  Name = 
REMARK  11 active torsions:
REMARK  status: ('A' for Active; 'I' for Inactive)
REMARK    1  A    between atoms: C_1  and  O_2
REMARK    2  A    between atoms: O_2  and  C_3
REMARK    3  A    between atoms: C_6  and  C_7
REMARK    4  A    between atoms: C_7  and  N_8
REMARK    5  A    between atoms: N_8  and  C_9
REMARK    6  A    between atoms: C_16  and  C_17
REMARK    7  A    between atoms: C_20  and  N_21
REMARK    8  A    between atoms: N_21  and  C_22
REMARK    9  A    between atoms: N_21  and  C_23
REMARK   10  A    between atoms: C_28  and  O_29
REMARK   11  A    between atoms: O_29  and  C_30
REMARK                            x       y       z     vdW  Elec       q    Type
REMARK                         _______ _______ _______ _____ _____    ______ ____
ROOT
ATOM      1  C   UNL     1      -0.042  11.690  20.788  0.00  0.00    +0.000 A 
ATOM      2  N   UNL     1       0.698  12.673  21.331  0.00  0.00    +0.000 NA
ATOM      3  C   UNL     1       1.623  13.156  20.490  0.00  0.00    +0.000 A 
ATOM      4  N   UNL     1       1.887  12.646  19.281  0.00  0.00    +0.000 NA
ATOM      5  C   UNL     1       1.465  11.389  19.078  0.00  0.00    +0.000 A 
ATOM      6  C   UNL     1       1.942  10.727  17.973  0.00  0.00    +0.000 A 
ATOM      7  C   UNL     1       2.088   9.337  17.951  0.00  0.00    +0.000 A 
ATOM      8  C   UNL     1       1.839   8.507  19.060  0.00  0.00    +0.000 A 
ATOM      9  C   UNL     1       1.058   9.196  20.060  0.00  0.00    +0.000 A 
ATOM     10  C   UNL     1       0.718  10.693  20.007  0.00  0.00    +0.000 A 
ENDROOT
BRANCH   8  11
ATOM     11  C   UNL     1       2.551   7.118  19.033  0.00  0.00    +0.000 A 
ATOM     12  C   UNL     1       3.114   6.471  17.926  0.00  0.00    +0.000 A 
ATOM     13  C   UNL     1       3.479   5.054  17.934  0.00  0.00    +0.000 A 
ATOM     14  C   UNL     1       3.298   4.189  19.037  0.00  0.00    +0.000 A 
ATOM     15  C   UNL     1       2.832   4.854  20.152  0.00  0.00    +0.000 A 
ATOM     16  C   UNL     1       2.499   6.248  20.158  0.00  0.00    +0.000 A 
BRANCH  14  17
ATOM     17  N   UNL     1       3.546   2.809  19.013  0.00  0.00    +0.000 N 
ATOM     18  C   UNL     1       4.313   2.087  20.032  0.00  0.00    +0.000 C 
ATOM     19  C   UNL     1       3.079   1.893  17.952  0.00  0.00    +0.000 C 
ENDBRANCH  14  17
ENDBRANCH   8  11
BRANCH   1  20
ATOM     20  N   UNL     1      -1.076  12.401  20.037  0.00  0.00    +0.000 N 
ATOM     21  H   UNL     1      -1.047  13.320  20.478  0.00  0.00    +0.000 HD
BRANCH  20  22
ATOM     22  C   UNL     1      -2.503  12.046  20.015  0.00  0.00    +0.000 C 
BRANCH  22  26
ATOM     23  C   UNL     1      -3.742  10.615  16.092  0.00  0.00    +0.000 A 
ATOM     24  C   UNL     1      -2.429  10.379  16.518  0.00  0.00    +0.000 A 
ATOM     25  C   UNL     1      -1.978  10.850  17.769  0.00  0.00    +0.000 A 
ATOM     26  C   UNL     1      -2.852  11.572  18.607  0.00  0.00    +0.000 A 
ATOM     27  C   UNL     1      -4.141  11.847  18.134  0.00  0.00    +0.000 A 
ATOM     28  C   UNL     1      -4.587  11.362  16.907  0.00  0.00    +0.000 A 
BRANCH  23  30
ATOM     29  C   UNL     1      -3.120  10.082  13.853  0.00  0.00    +0.000 C 
ATOM     30  O   UNL     1      -4.106  10.071  14.888  0.00  0.00    +0.000 OA
ENDBRANCH  23  30
BRANCH  27  31
ATOM     31  O   UNL     1      -4.949  12.528  19.002  0.00  0.00    +0.000 OA
ATOM     32  C   UNL     1      -6.125  11.872  19.416  0.00  0.00    +0.000 C 
ENDBRANCH  27  31
ENDBRANCH  22  26
ENDBRANCH  20  22
ENDBRANCH   1  20
TORSDOF 7
ENDMDL
MODEL 8
REMARK VINA RESULT:      -7.8      0.866      1.172
REMARK  Name = 
REMARK  11 active torsions:
REMARK  status: ('A' for Active; 'I' for Inactive)
REMARK    1  A    between atoms: C_1  and  O_2
REMARK    2  A    between atoms: O_2  and  C_3
REMARK    3  A    between atoms: C_6  and  C_7
REMARK    4  A    between atoms: C_7  and  N_8
REMARK    5  A    between atoms: N_8  and  C_9
REMARK    6  A    between atoms: C_16  and  C_17
REMARK    7  A    between atoms: C_20  and  N_21
REMARK    8  A    between atoms: N_21  and  C_22
REMARK    9  A    between atoms: N_21  and  C_23
REMARK   10  A    between atoms: C_28  and  O_29
REMARK   11  A    between atoms: O_29  and  C_30
REMARK                            x       y       z     vdW  Elec       q    Type
REMARK                         _______ _______ _______ _____ _____    ______ ____
ROOT
ATOM      1  C   UNL     1       2.605   4.171  20.035  0.00  0.00    +0.000 A 
ATOM      2  N   UNL     1       1.788   3.256  19.483  0.00  0.00    +0.000 NA
ATOM      3  C   UNL     1       1.484   3.530  18.207  0.00  0.00    +0.000 A 
ATOM      4  N   UNL     1       1.839   4.651  17.567  0.00  0.00    +0.000 NA
ATOM      5  C   UNL     1       2.183   5.682  18.354  0.00  0.00    +0.000 A 
ATOM      6  C   UNL     1       2.288   6.921  17.772  0.00  0.00    +0.000 A 
ATOM      7  C   UNL     1       2.043   8.096  18.488  0.00  0.00    +0.000 A 
ATOM      8  C   UNL     1       1.601   8.120  19.824  0.00  0.00    +0.000 A 
ATOM      9  C   UNL     1       1.811   6.844  20.464  0.00  0.00    +0.000 A 
ATOM     10  C   UNL     1       2.270   5.576  19.728  0.00  0.00    +0.000 A 
ENDROOT
BRANCH   8  11
ATOM     11  C   UNL     1       0.878   9.431  20.268  0.00  0.00    +0.000 A 
ATOM     12  C   UNL     1       0.991  10.703  19.693  0.00  0.00    +0.000 A 
ATOM     13  C   UNL     1       0.523  11.919  20.358  0.00  0.00    +0.000 A 
ATOM     14  C   UNL     1      -0.074  11.952  21.639  0.00  0.00    +0.000 A 
ATOM     15  C   UNL     1      -0.268  10.688  22.157  0.00  0.00    +0.000 A 
ATOM     16  C   UNL     1       0.163   9.490  21.497  0.00  0.00    +0.000 A 
BRANCH  14  17
ATOM     17  N   UNL     1      -0.425  13.124  22.324  0.00  0.00    +0.000 N 
ATOM     18  C   UNL     1      -1.484  13.209  23.332  0.00  0.00    +0.000 C 
ATOM     19  C   UNL     1       0.216  14.438  22.114  0.00  0.00    +0.000 C 
ENDBRANCH  14  17
ENDBRANCH   8  11
BRANCH   1  20
ATOM     20  N   UNL     1       3.940   3.751  19.612  0.00  0.00    +0.000 N 
ATOM     21  H   UNL     1       4.194   3.107  20.361  0.00  0.00    +0.000 HD
BRANCH  20  22
ATOM     22  C   UNL     1       5.106   4.639  19.478  0.00  0.00    +0.000 C 
BRANCH  22  26
ATOM     23  C   UNL     1       6.481   4.728  15.346  0.00  0.00    +0.000 A 
ATOM     24  C   UNL     1       5.500   3.799  15.715  0.00  0.00    +0.000 A 
ATOM     25  C   UNL     1       5.048   3.717  17.049  0.00  0.00    +0.000 A 
ATOM     26  C   UNL     1       5.586   4.574  18.030  0.00  0.00    +0.000 A 
ATOM     27  C   UNL     1       6.608   5.453  17.650  0.00  0.00    +0.000 A 
ATOM     28  C   UNL     1       7.036   5.544  16.327  0.00  0.00    +0.000 A 
BRANCH  23  30
ATOM     29  C   UNL     1       6.265   3.756  13.180  0.00  0.00    +0.000 C 
ATOM     30  O   UNL     1       6.817   4.774  14.018  0.00  0.00    +0.000 OA
ENDBRANCH  23  30
BRANCH  27  31
ATOM     31  O   UNL     1       7.071   6.275  18.639  0.00  0.00    +0.000 OA
ATOM     32  C   UNL     1       8.218   5.844  19.332  0.00  0.00    +0.000 C 
ENDBRANCH  27  31
ENDBRANCH  22  26
ENDBRANCH  20  22
ENDBRANCH   1  20
TORSDOF 7
ENDMDL
MODEL 9
REMARK VINA RESULT:      -7.7      4.476      7.899
REMARK  Name = 
REMARK  11 active torsions:
REMARK  status: ('A' for Active; 'I' for Inactive)
REMARK    1  A    between atoms: C_1  and  O_2
REMARK    2  A    between atoms: O_2  and  C_3
REMARK    3  A    between atoms: C_6  and  C_7
REMARK    4  A    between atoms: C_7  and  N_8
REMARK    5  A    between atoms: N_8  and  C_9
REMARK    6  A    between atoms: C_16  and  C_17
REMARK    7  A    between atoms: C_20  and  N_21
REMARK    8  A    between atoms: N_21  and  C_22
REMARK    9  A    between atoms: N_21  and  C_23
REMARK   10  A    between atoms: C_28  and  O_29
REMARK   11  A    between atoms: O_29  and  C_30
REMARK                            x       y       z     vdW  Elec       q    Type
REMARK                         _______ _______ _______ _____ _____    ______ ____
ROOT
ATOM      1  C   UNL     1       5.748   6.265  16.243  0.00  0.00    +0.000 A 
ATOM      2  N   UNL     1       6.287   5.425  15.342  0.00  0.00    +0.000 NA
ATOM      3  C   UNL     1       7.281   4.682  15.850  0.00  0.00    +0.000 A 
ATOM      4  N   UNL     1       7.785   4.832  17.081  0.00  0.00    +0.000 NA
ATOM      5  C   UNL     1       7.532   6.011  17.671  0.00  0.00    +0.000 A 
ATOM      6  C   UNL     1       8.244   6.324  18.802  0.00  0.00    +0.000 A 
ATOM      7  C   UNL     1       8.533   7.646  19.151  0.00  0.00    +0.000 A 
ATOM      8  C   UNL     1       8.195   8.756  18.354  0.00  0.00    +0.000 A 
ATOM      9  C   UNL     1       7.198   8.406  17.370  0.00  0.00    +0.000 A 
ATOM     10  C   UNL     1       6.720   6.972  17.101  0.00  0.00    +0.000 A 
ENDROOT
BRANCH   8  11
ATOM     11  C   UNL     1       9.041  10.045  18.605  0.00  0.00    +0.000 A 
ATOM     12  C   UNL     1       9.756  10.383  19.761  0.00  0.00    +0.000 A 
ATOM     13  C   UNL     1      10.256  11.733  20.019  0.00  0.00    +0.000 A 
ATOM     14  C   UNL     1      10.069  12.834  19.153  0.00  0.00    +0.000 A 
ATOM     15  C   UNL     1       9.448  12.473  17.975  0.00  0.00    +0.000 A 
ATOM     16  C   UNL     1       8.980  11.145  17.705  0.00  0.00    +0.000 A 
BRANCH  14  17
ATOM     17  N   UNL     1      10.453  14.151  19.446  0.00  0.00    +0.000 N 
ATOM     18  C   UNL     1      11.832  14.641  19.401  0.00  0.00    +0.000 C 
ATOM     19  C   UNL     1       9.521  15.222  19.855  0.00  0.00    +0.000 C 
ENDBRANCH  14  17
ENDBRANCH   8  11
BRANCH   1  20
ATOM     20  N   UNL     1       4.780   5.438  16.962  0.00  0.00    +0.000 N 
ATOM     21  H   UNL     1       5.394   4.770  17.426  0.00  0.00    +0.000 HD
BRANCH  20  22
ATOM     22  C   UNL     1       3.740   4.609  16.332  0.00  0.00    +0.000 C 
BRANCH  22  26
ATOM     23  C   UNL     1       1.418   3.047  19.670  0.00  0.00    +0.000 A 
ATOM     24  C   UNL     1       1.940   2.152  18.728  0.00  0.00    +0.000 A 
ATOM     25  C   UNL     1       2.673   2.618  17.616  0.00  0.00    +0.000 A 
ATOM     26  C   UNL     1       2.885   4.000  17.441  0.00  0.00    +0.000 A 
ATOM     27  C   UNL     1       2.303   4.879  18.363  0.00  0.00    +0.000 A 
ATOM     28  C   UNL     1       1.597   4.413  19.469  0.00  0.00    +0.000 A 
BRANCH  23  30
ATOM     29  C   UNL     1       1.471   2.503  21.990  0.00  0.00    +0.000 C 
ATOM     30  O   UNL     1       0.768   2.500  20.746  0.00  0.00    +0.000 OA
ENDBRANCH  23  30
BRANCH  27  31
ATOM     31  O   UNL     1       2.565   6.204  18.154  0.00  0.00    +0.000 OA
ATOM     32  C   UNL     1       2.350   7.070  19.244  0.00  0.00    +0.000 C 
ENDBRANCH  27  31
ENDBRANCH  22  26
ENDBRANCH  20  22
ENDBRANCH   1  20
TORSDOF 7
ENDMDL
