MODEL 1
REMARK VINA RESULT:      -8.5      0.000      0.000
REMARK  Name = 
REMARK  4 active torsions:
REMARK  status: ('A' for Active; 'I' for Inactive)
REMARK    1  A    between atoms: C_5  and  C_6
REMARK    2  A    between atoms: C_11  and  C_12
REMARK    3  A    between atoms: C_12  and  O_13
REMARK    4  A    between atoms: O_13  and  C_14
REMARK                            x       y       z     vdW  Elec       q    Type
REMARK                         _______ _______ _______ _____ _____    ______ ____
ROOT
ATOM      1  C   UNL     1       4.267   4.189  18.530  0.00  0.00    +0.000 C 
ATOM      2  C   UNL     1       4.422   2.946  19.437  0.00  0.00    +0.000 C 
ATOM      3  C   UNL     1       3.797   1.695  18.821  0.00  0.00    +0.000 C 
ATOM      4  N   UNL     1       2.391   1.886  18.476  0.00  0.00    +0.000 NA
ATOM      5  C   UNL     1       2.207   3.040  17.594  0.00  0.00    +0.000 C 
ATOM      6  C   UNL     1       2.770   4.350  18.179  0.00  0.00    +0.000 C 
ATOM      7  H   UNL     1       1.829   2.002  19.318  0.00  0.00    +0.000 HD
ENDROOT
BRANCH   1  12
ATOM      8  F   UNL     1       7.679   5.142  14.104  0.00  0.00    +0.000 F 
ATOM      9  C   UNL     1       6.894   4.785  15.129  0.00  0.00    +0.000 A 
ATOM     10  C   UNL     1       5.562   4.492  14.906  0.00  0.00    +0.000 A 
ATOM     11  C   UNL     1       4.730   4.230  15.995  0.00  0.00    +0.000 A 
ATOM     12  C   UNL     1       5.215   4.254  17.320  0.00  0.00    +0.000 A 
ATOM     13  C   UNL     1       6.591   4.489  17.495  0.00  0.00    +0.000 A 
ATOM     14  C   UNL     1       7.426   4.746  16.405  0.00  0.00    +0.000 A 
ENDBRANCH   1  12
BRANCH   6  15
ATOM     15  C   UNL     1       1.941   4.864  19.367  0.00  0.00    +0.000 C 
BRANCH  15  16
ATOM     16  O   UNL     1       2.635   6.020  19.823  0.00  0.00    +0.000 OA
BRANCH  16  17
ATOM     17  C   UNL     1       2.209   7.251  19.429  0.00  0.00    +0.000 A 
ATOM     18  C   UNL     1       2.382   7.815  18.155  0.00  0.00    +0.000 A 
ATOM     19  C   UNL     1       1.894   9.103  17.890  0.00  0.00    +0.000 A 
ATOM     20  C   UNL     1       1.254   9.773  18.913  0.00  0.00    +0.000 A 
ATOM     21  C   UNL     1       1.084   9.208  20.153  0.00  0.00    +0.000 A 
ATOM     22  C   UNL     1       1.548   7.947  20.435  0.00  0.00    +0.000 A 
ATOM     23  O   UNL     1       0.433  10.031  21.021  0.00  0.00    +0.000 OA
ATOM     24  C   UNL     1       0.258  11.198  20.194  0.00  0.00    +0.000 C 
ATOM     25  O   UNL     1       0.730  11.025  18.843  0.00  0.00    +0.000 OA
ENDBRANCH  16  17
ENDBRANCH  15  16
ENDBRANCH   6  15
TORSDOF 4
ENDMDL
MODEL 2
REMARK VINA RESULT:      -8.4      3.175      4.727
REMARK  Name = 
REMARK  4 active torsions:
REMARK  status: ('A' for Active; 'I' for Inactive)
REMARK    1  A    between atoms: C_5  and  C_6
REMARK    2  A    between atoms: C_11  and  C_12
REMARK    3  A    between atoms: C_12  and  O_13
REMARK    4  A    between atoms: O_13  and  C_14
REMARK                            x       y       z     vdW  Elec       q    Type
REMARK                         _______ _______ _______ _____ _____    ______ ____
ROOT
ATOM      1  C   UNL     1       6.044   5.929  15.925  0.00  0.00    +0.000 C 
ATOM      2  C   UNL     1       7.303   5.996  16.820  0.00  0.00    +0.000 C 
ATOM      3  C   UNL     1       7.588   4.668  17.522  0.00  0.00    +0.000 C 
ATOM      4  N   UNL     1       6.449   4.194  18.302  0.00  0.00    +0.000 NA
ATOM      5  C   UNL     1       5.242   4.092  17.480  0.00  0.00    +0.000 C 
ATOM      6  C   UNL     1       4.866   5.413  16.782  0.00  0.00    +0.000 C 
ATOM      7  H   UNL     1       6.276   4.811  19.094  0.00  0.00    +0.000 HD
ENDROOT
BRANCH   1  12
ATOM      8  F   UNL     1       6.977   2.711  11.352  0.00  0.00    +0.000 F 
ATOM      9  C   UNL     1       6.708   3.565  12.348  0.00  0.00    +0.000 A 
ATOM     10  C   UNL     1       7.639   4.522  12.704  0.00  0.00    +0.000 A 
ATOM     11  C   UNL     1       7.395   5.332  13.813  0.00  0.00    +0.000 A 
ATOM     12  C   UNL     1       6.219   5.201  14.581  0.00  0.00    +0.000 A 
ATOM     13  C   UNL     1       5.269   4.261  14.143  0.00  0.00    +0.000 A 
ATOM     14  C   UNL     1       5.509   3.453  13.029  0.00  0.00    +0.000 A 
ENDBRANCH   1  12
BRANCH   6  15
ATOM     15  C   UNL     1       4.353   6.473  17.772  0.00  0.00    +0.000 C 
BRANCH  15  16
ATOM     16  O   UNL     1       2.938   6.326  17.762  0.00  0.00    +0.000 OA
BRANCH  16  17
ATOM     17  C   UNL     1       2.376   5.247  18.372  0.00  0.00    +0.000 A 
ATOM     18  C   UNL     1       1.577   4.273  17.753  0.00  0.00    +0.000 A 
ATOM     19  C   UNL     1       1.057   3.212  18.509  0.00  0.00    +0.000 A 
ATOM     20  C   UNL     1       1.358   3.172  19.855  0.00  0.00    +0.000 A 
ATOM     21  C   UNL     1       2.146   4.127  20.449  0.00  0.00    +0.000 A 
ATOM     22  C   UNL     1       2.671   5.171  19.729  0.00  0.00    +0.000 A 
ATOM     23  O   UNL     1       2.321   3.910  21.782  0.00  0.00    +0.000 OA
ATOM     24  C   UNL     1       1.508   2.735  21.965  0.00  0.00    +0.000 C 
ATOM     25  O   UNL     1       0.935   2.232  20.741  0.00  0.00    +0.000 OA
ENDBRANCH  16  17
ENDBRANCH  15  16
ENDBRANCH   6  15
TORSDOF 4
ENDMDL
MODEL 3
REMARK VINA RESULT:      -8.3      3.428      6.557
REMARK  Name = 
REMARK  4 active torsions:
REMARK  status: ('A' for Active; 'I' for Inactive)
REMARK    1  A    between atoms: C_5  and  C_6
REMARK    2  A    between atoms: C_11  and  C_12
REMARK    3  A    between atoms: C_12  and  O_13
REMARK    4  A    between atoms: O_13  and  C_14
REMARK                            x       y       z     vdW  Elec       q    Type
REMARK                         _______ _______ _______ _____ _____    ______ ____
ROOT
ATOM      1  C   UNL     1       2.936   5.310  18.669  0.00  0.00    +0.000 C 
ATOM      2  C   UNL     1       2.169   4.401  17.679  0.00  0.00    +0.000 C 
ATOM      3  C   UNL     1       0.999   3.676  18.343  0.00  0.00    +0.000 C 
ATOM      4  N   UNL     1       1.412   2.901  19.509  0.00  0.00    +0.000 NA
ATOM      5  C   UNL     1       2.119   3.735  20.484  0.00  0.00    +0.000 C 
ATOM      6  C   UNL     1       3.345   4.457  19.892  0.00  0.00    +0.000 C 
ATOM      7  H   UNL     1       2.003   2.121  19.228  0.00  0.00    +0.000 HD
ENDROOT
BRANCH   1  12
ATOM      8  F   UNL     1       1.068  10.464  20.112  0.00  0.00    +0.000 F 
ATOM      9  C   UNL     1       1.380   9.212  19.752  0.00  0.00    +0.000 A 
ATOM     10  C   UNL     1       1.394   8.207  20.700  0.00  0.00    +0.000 A 
ATOM     11  C   UNL     1       1.827   6.932  20.336  0.00  0.00    +0.000 A 
ATOM     12  C   UNL     1       2.250   6.640  19.022  0.00  0.00    +0.000 A 
ATOM     13  C   UNL     1       2.155   7.675  18.074  0.00  0.00    +0.000 A 
ATOM     14  C   UNL     1       1.715   8.951  18.435  0.00  0.00    +0.000 A 
ENDBRANCH   1  12
BRANCH   6  15
ATOM     15  C   UNL     1       4.497   3.489  19.573  0.00  0.00    +0.000 C 
BRANCH  15  16
ATOM     16  O   UNL     1       5.667   4.299  19.581  0.00  0.00    +0.000 OA
BRANCH  16  17
ATOM     17  C   UNL     1       6.168   4.756  18.401  0.00  0.00    +0.000 A 
ATOM     18  C   UNL     1       6.896   5.942  18.217  0.00  0.00    +0.000 A 
ATOM     19  C   UNL     1       7.349   6.292  16.937  0.00  0.00    +0.000 A 
ATOM     20  C   UNL     1       7.053   5.440  15.893  0.00  0.00    +0.000 A 
ATOM     21  C   UNL     1       6.347   4.278  16.085  0.00  0.00    +0.000 A 
ATOM     22  C   UNL     1       5.897   3.911  17.329  0.00  0.00    +0.000 A 
ATOM     23  O   UNL     1       6.156   3.580  14.931  0.00  0.00    +0.000 OA
ATOM     24  C   UNL     1       6.784   4.466  13.984  0.00  0.00    +0.000 C 
ATOM     25  O   UNL     1       7.398   5.621  14.590  0.00  0.00    +0.000 OA
ENDBRANCH  16  17
ENDBRANCH  15  16
ENDBRANCH   6  15
TORSDOF 4
ENDMDL
MODEL 4
REMARK VINA RESULT:      -8.2      3.473      6.578
REMARK  Name = 
REMARK  4 active torsions:
REMARK  status: ('A' for Active; 'I' for Inactive)
REMARK    1  A    between atoms: C_5  and  C_6
REMARK    2  A    between atoms: C_11  and  C_12
REMARK    3  A    between atoms: C_12  and  O_13
REMARK    4  A    between atoms: O_13  and  C_14
REMARK                            x       y       z     vdW  Elec       q    Type
REMARK                         _______ _______ _______ _____ _____    ______ ____
ROOT
ATOM      1  C   UNL     1       3.042   5.546  18.683  0.00  0.00    +0.000 C 
ATOM      2  C   UNL     1       2.148   4.644  17.800  0.00  0.00    +0.000 C 
ATOM      3  C   UNL     1       0.968   4.059  18.574  0.00  0.00    +0.000 C 
ATOM      4  N   UNL     1       1.390   3.326  19.764  0.00  0.00    +0.000 NA
ATOM      5  C   UNL     1       2.218   4.158  20.640  0.00  0.00    +0.000 C 
ATOM      6  C   UNL     1       3.458   4.740  19.935  0.00  0.00    +0.000 C 
ATOM      7  H   UNL     1       1.901   2.484  19.503  0.00  0.00    +0.000 HD
ENDROOT
BRANCH   1  12
ATOM      8  F   UNL     1       0.338  10.433  19.654  0.00  0.00    +0.000 F 
ATOM      9  C   UNL     1       1.092   9.345  19.451  0.00  0.00    +0.000 A 
ATOM     10  C   UNL     1       1.635   9.108  18.202  0.00  0.00    +0.000 A 
ATOM     11  C   UNL     1       2.325   7.917  17.973  0.00  0.00    +0.000 A 
ATOM     12  C   UNL     1       2.484   6.947  18.985  0.00  0.00    +0.000 A 
ATOM     13  C   UNL     1       1.974   7.259  20.258  0.00  0.00    +0.000 A 
ATOM     14  C   UNL     1       1.289   8.454  20.491  0.00  0.00    +0.000 A 
ENDBRANCH   1  12
BRANCH   6  15
ATOM     15  C   UNL     1       4.509   3.664  19.617  0.00  0.00    +0.000 C 
BRANCH  15  16
ATOM     16  O   UNL     1       5.747   4.364  19.578  0.00  0.00    +0.000 OA
BRANCH  16  17
ATOM     17  C   UNL     1       6.225   4.805  18.382  0.00  0.00    +0.000 A 
ATOM     18  C   UNL     1       6.938   5.995  18.166  0.00  0.00    +0.000 A 
ATOM     19  C   UNL     1       7.367   6.327  16.873  0.00  0.00    +0.000 A 
ATOM     20  C   UNL     1       7.062   5.454  15.849  0.00  0.00    +0.000 A 
ATOM     21  C   UNL     1       6.370   4.290  16.072  0.00  0.00    +0.000 A 
ATOM     22  C   UNL     1       5.944   3.940  17.330  0.00  0.00    +0.000 A 
ATOM     23  O   UNL     1       6.167   3.571  14.933  0.00  0.00    +0.000 OA
ATOM     24  C   UNL     1       6.771   4.445  13.961  0.00  0.00    +0.000 C 
ATOM     25  O   UNL     1       7.383   5.616  14.537  0.00  0.00    +0.000 OA
ENDBRANCH  16  17
ENDBRANCH  15  16
ENDBRANCH   6  15
TORSDOF 4
ENDMDL
MODEL 5
REMARK VINA RESULT:      -8.1      0.458      1.080
REMARK  Name = 
REMARK  4 active torsions:
REMARK  status: ('A' for Active; 'I' for Inactive)
REMARK    1  A    between atoms: C_5  and  C_6
REMARK    2  A    between atoms: C_11  and  C_12
REMARK    3  A    between atoms: C_12  and  O_13
REMARK    4  A    between atoms: O_13  and  C_14
REMARK                            x       y       z     vdW  Elec       q    Type
REMARK                         _______ _______ _______ _____ _____    ______ ____
ROOT
ATOM      1  C   UNL     1       4.084   4.122  18.916  0.00  0.00    +0.000 C 
ATOM      2  C   UNL     1       4.207   2.698  19.505  0.00  0.00    +0.000 C 
ATOM      3  C   UNL     1       3.557   1.641  18.613  0.00  0.00    +0.000 C 
ATOM      4  N   UNL     1       2.157   1.939  18.325  0.00  0.00    +0.000 NA
ATOM      5  C   UNL     1       2.003   3.272  17.739  0.00  0.00    +0.000 C 
ATOM      6  C   UNL     1       2.592   4.394  18.614  0.00  0.00    +0.000 C 
ATOM      7  H   UNL     1       1.595   1.866  19.171  0.00  0.00    +0.000 HD
ENDROOT
BRANCH   1  12
ATOM      8  F   UNL     1       7.637   4.616  14.527  0.00  0.00    +0.000 F 
ATOM      9  C   UNL     1       6.802   4.634  15.574  0.00  0.00    +0.000 A 
ATOM     10  C   UNL     1       7.311   4.622  16.859  0.00  0.00    +0.000 A 
ATOM     11  C   UNL     1       6.433   4.529  17.940  0.00  0.00    +0.000 A 
ATOM     12  C   UNL     1       5.037   4.449  17.754  0.00  0.00    +0.000 A 
ATOM     13  C   UNL     1       4.560   4.533  16.434  0.00  0.00    +0.000 A 
ATOM     14  C   UNL     1       5.437   4.632  15.351  0.00  0.00    +0.000 A 
ENDBRANCH   1  12
BRANCH   6  15
ATOM     15  C   UNL     1       1.770   4.633  19.892  0.00  0.00    +0.000 C 
BRANCH  15  16
ATOM     16  O   UNL     1       2.323   5.810  20.468  0.00  0.00    +0.000 OA
BRANCH  16  17
ATOM     17  C   UNL     1       2.041   7.020  19.912  0.00  0.00    +0.000 A 
ATOM     18  C   UNL     1       2.392   7.436  18.618  0.00  0.00    +0.000 A 
ATOM     19  C   UNL     1       2.039   8.720  18.178  0.00  0.00    +0.000 A 
ATOM     20  C   UNL     1       1.349   9.534  19.052  0.00  0.00    +0.000 A 
ATOM     21  C   UNL     1       1.004   9.114  20.313  0.00  0.00    +0.000 A 
ATOM     22  C   UNL     1       1.334   7.861  20.766  0.00  0.00    +0.000 A 
ATOM     23  O   UNL     1       0.332  10.065  21.020  0.00  0.00    +0.000 OA
ATOM     24  C   UNL     1       0.338  11.149  20.071  0.00  0.00    +0.000 C 
ATOM     25  O   UNL     1       0.936  10.806  18.805  0.00  0.00    +0.000 OA
ENDBRANCH  16  17
ENDBRANCH  15  16
ENDBRANCH   6  15
TORSDOF 4
ENDMDL
MODEL 6
REMARK VINA RESULT:      -8.1      3.447      6.036
REMARK  Name = 
REMARK  4 active torsions:
REMARK  status: ('A' for Active; 'I' for Inactive)
REMARK    1  A    between atoms: C_5  and  C_6
REMARK    2  A    between atoms: C_11  and  C_12
REMARK    3  A    between atoms: C_12  and  O_13
REMARK    4  A    between atoms: O_13  and  C_14
REMARK                            x       y       z     vdW  Elec       q    Type
REMARK                         _______ _______ _______ _____ _____    ______ ____
ROOT
ATOM      1  C   UNL     1       2.654   5.167  17.848  0.00  0.00    +0.000 C 
ATOM      2  C   UNL     1       1.464   4.180  17.823  0.00  0.00    +0.000 C 
ATOM      3  C   UNL     1       1.269   3.471  19.163  0.00  0.00    +0.000 C 
ATOM      4  N   UNL     1       2.476   2.782  19.610  0.00  0.00    +0.000 NA
ATOM      5  C   UNL     1       3.621   3.692  19.673  0.00  0.00    +0.000 C 
ATOM      6  C   UNL     1       3.907   4.404  18.337  0.00  0.00    +0.000 C 
ATOM      7  H   UNL     1       2.690   1.999  18.994  0.00  0.00    +0.000 HD
ENDROOT
BRANCH   1  12
ATOM      8  F   UNL     1       1.017   9.952  20.409  0.00  0.00    +0.000 F 
ATOM      9  C   UNL     1       1.531   8.861  19.827  0.00  0.00    +0.000 A 
ATOM     10  C   UNL     1       1.877   8.893  18.489  0.00  0.00    +0.000 A 
ATOM     11  C   UNL     1       2.306   7.720  17.868  0.00  0.00    +0.000 A 
ATOM     12  C   UNL     1       2.400   6.501  18.571  0.00  0.00    +0.000 A 
ATOM     13  C   UNL     1       2.103   6.529  19.945  0.00  0.00    +0.000 A 
ATOM     14  C   UNL     1       1.679   7.704  20.571  0.00  0.00    +0.000 A 
ENDBRANCH   1  12
BRANCH   6  15
ATOM     15  C   UNL     1       4.463   3.446  17.270  0.00  0.00    +0.000 C 
BRANCH  15  16
ATOM     16  O   UNL     1       5.403   4.222  16.536  0.00  0.00    +0.000 OA
BRANCH  16  17
ATOM     17  C   UNL     1       6.270   5.027  17.208  0.00  0.00    +0.000 A 
ATOM     18  C   UNL     1       7.108   4.638  18.266  0.00  0.00    +0.000 A 
ATOM     19  C   UNL     1       7.951   5.580  18.872  0.00  0.00    +0.000 A 
ATOM     20  C   UNL     1       7.921   6.874  18.394  0.00  0.00    +0.000 A 
ATOM     21  C   UNL     1       7.103   7.242  17.354  0.00  0.00    +0.000 A 
ATOM     22  C   UNL     1       6.272   6.337  16.741  0.00  0.00    +0.000 A 
ATOM     23  O   UNL     1       7.217   8.562  17.035  0.00  0.00    +0.000 OA
ATOM     24  C   UNL     1       8.167   8.989  18.030  0.00  0.00    +0.000 C 
ATOM     25  O   UNL     1       8.655   7.918  18.863  0.00  0.00    +0.000 OA
ENDBRANCH  16  17
ENDBRANCH  15  16
ENDBRANCH   6  15
TORSDOF 4
ENDMDL
MODEL 7
REMARK VINA RESULT:      -8.1      5.584      6.783
REMARK  Name = 
REMARK  4 active torsions:
REMARK  status: ('A' for Active; 'I' for Inactive)
REMARK    1  A    between atoms: C_5  and  C_6
REMARK    2  A    between atoms: C_11  and  C_12
REMARK    3  A    between atoms: C_12  and  O_13
REMARK    4  A    between atoms: O_13  and  C_14
REMARK                            x       y       z     vdW  Elec       q    Type
REMARK                         _______ _______ _______ _____ _____    ______ ____
ROOT
ATOM      1  C   UNL     1       5.402   6.336  17.119  0.00  0.00    +0.000 C 
ATOM      2  C   UNL     1       5.727   5.701  15.747  0.00  0.00    +0.000 C 
ATOM      3  C   UNL     1       6.564   4.429  15.879  0.00  0.00    +0.000 C 
ATOM      4  N   UNL     1       7.797   4.648  16.629  0.00  0.00    +0.000 NA
ATOM      5  C   UNL     1       7.528   5.224  17.947  0.00  0.00    +0.000 C 
ATOM      6  C   UNL     1       6.730   6.541  17.885  0.00  0.00    +0.000 C 
ATOM      7  H   UNL     1       8.428   5.254  16.109  0.00  0.00    +0.000 HD
ENDROOT
BRANCH   1  12
ATOM      8  F   UNL     1       0.871   4.153  19.734  0.00  0.00    +0.000 F 
ATOM      9  C   UNL     1       2.017   4.592  19.199  0.00  0.00    +0.000 A 
ATOM     10  C   UNL     1       2.675   5.667  19.767  0.00  0.00    +0.000 A 
ATOM     11  C   UNL     1       3.806   6.185  19.137  0.00  0.00    +0.000 A 
ATOM     12  C   UNL     1       4.299   5.638  17.934  0.00  0.00    +0.000 A 
ATOM     13  C   UNL     1       3.640   4.504  17.427  0.00  0.00    +0.000 A 
ATOM     14  C   UNL     1       2.510   3.980  18.060  0.00  0.00    +0.000 A 
ENDBRANCH   1  12
BRANCH   6  15
ATOM     15  C   UNL     1       7.561   7.703  17.317  0.00  0.00    +0.000 C 
BRANCH  15  16
ATOM     16  O   UNL     1       8.305   8.196  18.426  0.00  0.00    +0.000 OA
BRANCH  16  17
ATOM     17  C   UNL     1       8.614   9.519  18.484  0.00  0.00    +0.000 A 
ATOM     18  C   UNL     1       8.201  10.505  17.574  0.00  0.00    +0.000 A 
ATOM     19  C   UNL     1       8.602  11.836  17.756  0.00  0.00    +0.000 A 
ATOM     20  C   UNL     1       9.403  12.125  18.842  0.00  0.00    +0.000 A 
ATOM     21  C   UNL     1       9.796  11.155  19.730  0.00  0.00    +0.000 A 
ATOM     22  C   UNL     1       9.412   9.846  19.576  0.00  0.00    +0.000 A 
ATOM     23  O   UNL     1      10.585  11.642  20.727  0.00  0.00    +0.000 OA
ATOM     24  C   UNL     1      10.681  13.024  20.333  0.00  0.00    +0.000 C 
ATOM     25  O   UNL     1       9.896  13.350  19.168  0.00  0.00    +0.000 OA
ENDBRANCH  16  17
ENDBRANCH  15  16
ENDBRANCH   6  15
TORSDOF 4
ENDMDL
MODEL 8
REMARK VINA RESULT:      -8.0      3.475      6.999
REMARK  Name = 
REMARK  4 active torsions:
REMARK  status: ('A' for Active; 'I' for Inactive)
REMARK    1  A    between atoms: C_5  and  C_6
REMARK    2  A    between atoms: C_11  and  C_12
REMARK    3  A    between atoms: C_12  and  O_13
REMARK    4  A    between atoms: O_13  and  C_14
REMARK                            x       y       z     vdW  Elec       q    Type
REMARK                         _______ _______ _______ _____ _____    ______ ____
ROOT
ATOM      1  C   UNL     1       3.104   5.678  18.361  0.00  0.00    +0.000 C 
ATOM      2  C   UNL     1       2.089   4.641  17.826  0.00  0.00    +0.000 C 
ATOM      3  C   UNL     1       1.258   4.011  18.944  0.00  0.00    +0.000 C 
ATOM      4  N   UNL     1       2.088   3.403  19.980  0.00  0.00    +0.000 NA
ATOM      5  C   UNL     1       3.047   4.364  20.531  0.00  0.00    +0.000 C 
ATOM      6  C   UNL     1       3.954   5.001  19.461  0.00  0.00    +0.000 C 
ATOM      7  H   UNL     1       2.584   2.593  19.612  0.00  0.00    +0.000 HD
ENDROOT
BRANCH   1  12
ATOM      8  F   UNL     1       0.297  10.411  19.723  0.00  0.00    +0.000 F 
ATOM      9  C   UNL     1       1.074   9.362  19.422  0.00  0.00    +0.000 A 
ATOM     10  C   UNL     1       1.535   9.196  18.129  0.00  0.00    +0.000 A 
ATOM     11  C   UNL     1       2.250   8.044  17.802  0.00  0.00    +0.000 A 
ATOM     12  C   UNL     1       2.518   7.043  18.760  0.00  0.00    +0.000 A 
ATOM     13  C   UNL     1       2.090   7.284  20.078  0.00  0.00    +0.000 A 
ATOM     14  C   UNL     1       1.379   8.441  20.408  0.00  0.00    +0.000 A 
ENDBRANCH   1  12
BRANCH   6  15
ATOM     15  C   UNL     1       4.970   4.001  18.885  0.00  0.00    +0.000 C 
BRANCH  15  16
ATOM     16  O   UNL     1       5.861   4.794  18.108  0.00  0.00    +0.000 OA
BRANCH  16  17
ATOM     17  C   UNL     1       5.966   4.560  16.771  0.00  0.00    +0.000 A 
ATOM     18  C   UNL     1       5.139   3.717  16.013  0.00  0.00    +0.000 A 
ATOM     19  C   UNL     1       5.368   3.566  14.637  0.00  0.00    +0.000 A 
ATOM     20  C   UNL     1       6.418   4.265  14.079  0.00  0.00    +0.000 A 
ATOM     21  C   UNL     1       7.217   5.093  14.829  0.00  0.00    +0.000 A 
ATOM     22  C   UNL     1       7.009   5.261  16.175  0.00  0.00    +0.000 A 
ATOM     23  O   UNL     1       8.197   5.687  14.093  0.00  0.00    +0.000 OA
ATOM     24  C   UNL     1       7.950   5.097  12.802  0.00  0.00    +0.000 C 
ATOM     25  O   UNL     1       6.795   4.233  12.773  0.00  0.00    +0.000 OA
ENDBRANCH  16  17
ENDBRANCH  15  16
ENDBRANCH   6  15
TORSDOF 4
ENDMDL
MODEL 9
REMARK VINA RESULT:      -8.0      3.080      4.663
REMARK  Name = 
REMARK  4 active torsions:
REMARK  status: ('A' for Active; 'I' for Inactive)
REMARK    1  A    between atoms: C_5  and  C_6
REMARK    2  A    between atoms: C_11  and  C_12
REMARK    3  A    between atoms: C_12  and  O_13
REMARK    4  A    between atoms: O_13  and  C_14
REMARK                            x       y       z     vdW  Elec       q    Type
REMARK                         _______ _______ _______ _____ _____    ______ ____
ROOT
ATOM      1  C   UNL     1       5.920   6.229  16.281  0.00  0.00    +0.000 C 
ATOM      2  C   UNL     1       7.126   6.717  17.118  0.00  0.00    +0.000 C 
ATOM      3  C   UNL     1       7.652   5.639  18.063  0.00  0.00    +0.000 C 
ATOM      4  N   UNL     1       6.614   5.117  18.947  0.00  0.00    +0.000 NA
ATOM      5  C   UNL     1       5.465   4.619  18.188  0.00  0.00    +0.000 C 
ATOM      6  C   UNL     1       4.851   5.674  17.249  0.00  0.00    +0.000 C 
ATOM      7  H   UNL     1       6.310   5.834  19.604  0.00  0.00    +0.000 HD
ENDROOT
BRANCH   1  12
ATOM      8  F   UNL     1       6.873   3.293  11.526  0.00  0.00    +0.000 F 
ATOM      9  C   UNL     1       6.703   3.883  12.716  0.00  0.00    +0.000 A 
ATOM     10  C   UNL     1       5.563   3.624  13.455  0.00  0.00    +0.000 A 
ATOM     11  C   UNL     1       5.344   4.328  14.639  0.00  0.00    +0.000 A 
ATOM     12  C   UNL     1       6.258   5.296  15.105  0.00  0.00    +0.000 A 
ATOM     13  C   UNL     1       7.436   5.478  14.358  0.00  0.00    +0.000 A 
ATOM     14  C   UNL     1       7.660   4.770  13.175  0.00  0.00    +0.000 A 
ENDBRANCH   1  12
BRANCH   6  15
ATOM     15  C   UNL     1       4.123   6.789  18.019  0.00  0.00    +0.000 C 
BRANCH  15  16
ATOM     16  O   UNL     1       2.740   6.477  17.892  0.00  0.00    +0.000 OA
BRANCH  16  17
ATOM     17  C   UNL     1       2.264   5.326  18.441  0.00  0.00    +0.000 A 
ATOM     18  C   UNL     1       1.600   4.298  17.754  0.00  0.00    +0.000 A 
ATOM     19  C   UNL     1       1.156   3.165  18.452  0.00  0.00    +0.000 A 
ATOM     20  C   UNL     1       1.395   3.110  19.810  0.00  0.00    +0.000 A 
ATOM     21  C   UNL     1       2.052   4.119  20.470  0.00  0.00    +0.000 A 
ATOM     22  C   UNL     1       2.500   5.235  19.808  0.00  0.00    +0.000 A 
ATOM     23  O   UNL     1       2.184   3.877  21.804  0.00  0.00    +0.000 OA
ATOM     24  C   UNL     1       1.489   2.620  21.911  0.00  0.00    +0.000 C 
ATOM     25  O   UNL     1       1.029   2.103  20.646  0.00  0.00    +0.000 OA
ENDBRANCH  16  17
ENDBRANCH  15  16
ENDBRANCH   6  15
TORSDOF 4
ENDMDL
