MODEL 1
REMARK VINA RESULT:      -7.3      0.000      0.000
REMARK  Name = 
REMARK  4 active torsions:
REMARK  status: ('A' for Active; 'I' for Inactive)
REMARK    1  A    between atoms: C_1  and  C_2
REMARK    2  A    between atoms: C_4  and  C_5
REMARK    3  A    between atoms: C_11  and  C_12
REMARK    4  A    between atoms: N_16  and  C_17
REMARK                            x       y       z     vdW  Elec       q    Type
REMARK                         _______ _______ _______ _____ _____    ______ ____
ROOT
ATOM      1  C   UNL     1       6.619   5.148  17.869  0.00  0.00    +0.000 C 
ATOM      2  O   UNL     1       7.332   4.144  17.823  0.00  0.00    +0.000 OA
ATOM      3  N   UNL     1       5.217   5.060  18.006  0.00  0.00    +0.000 N 
ATOM      4  C   UNL     1       4.653   3.715  18.085  0.00  0.00    +0.000 C 
ATOM      5  C   UNL     1       3.200   3.696  17.629  0.00  0.00    +0.000 C 
ATOM      6  C   UNL     1       2.354   4.696  18.412  0.00  0.00    +0.000 C 
ATOM      7  C   UNL     1       2.954   6.110  18.368  0.00  0.00    +0.000 C 
ATOM      8  C   UNL     1       4.452   6.092  18.725  0.00  0.00    +0.000 C 
ENDROOT
BRANCH   1  12
ATOM      9  C   UNL     1       9.046   9.524  18.779  0.00  0.00    +0.000 C 
ATOM     10  C   UNL     1       8.312   8.346  18.289  0.00  0.00    +0.000 A 
ATOM     11  C   UNL     1       8.031   7.104  18.798  0.00  0.00    +0.000 A 
ATOM     12  C   UNL     1       7.227   6.484  17.804  0.00  0.00    +0.000 A 
ATOM     13  N   UNL     1       7.121   7.281  16.723  0.00  0.00    +0.000 NA
ATOM     14  O   UNL     1       7.769   8.455  17.049  0.00  0.00    +0.000 OA
ENDBRANCH   1  12
BRANCH   7  15
ATOM     15  C   UNL     1       2.230   7.017  19.320  0.00  0.00    +0.000 A 
ATOM     16  N   UNL     1       1.843   6.692  20.539  0.00  0.00    +0.000 NA
ATOM     17  N   UNL     1       1.236   7.780  21.109  0.00  0.00    +0.000 NA
ATOM     18  C   UNL     1       1.264   8.753  20.231  0.00  0.00    +0.000 A 
ATOM     19  N   UNL     1       1.884   8.326  19.097  0.00  0.00    +0.000 N 
ATOM     20  C   UNL     1       2.116   9.124  17.924  0.00  0.00    +0.000 C 
ENDBRANCH   7  15
TORSDOF 2
ENDMDL
MODEL 2
REMARK VINA RESULT:      -7.1      3.918      5.912
REMARK  Name = 
REMARK  4 active torsions:
REMARK  status: ('A' for Active; 'I' for Inactive)
REMARK    1  A    between atoms: C_1  and  C_2
REMARK    2  A    between atoms: C_4  and  C_5
REMARK    3  A    between atoms: C_11  and  C_12
REMARK    4  A    between atoms: N_16  and  C_17
REMARK                            x       y       z     vdW  Elec       q    Type
REMARK                         _______ _______ _______ _____ _____    ______ ____
ROOT
ATOM      1  C   UNL     1       6.954   4.743  14.150  0.00  0.00    +0.000 C 
ATOM      2  O   UNL     1       7.870   5.493  13.807  0.00  0.00    +0.000 OA
ATOM      3  N   UNL     1       6.569   4.606  15.501  0.00  0.00    +0.000 N 
ATOM      4  C   UNL     1       7.317   5.397  16.475  0.00  0.00    +0.000 C 
ATOM      5  C   UNL     1       7.266   4.764  17.859  0.00  0.00    +0.000 C 
ATOM      6  C   UNL     1       5.828   4.538  18.319  0.00  0.00    +0.000 C 
ATOM      7  C   UNL     1       5.018   3.737  17.287  0.00  0.00    +0.000 C 
ATOM      8  C   UNL     1       5.172   4.329  15.875  0.00  0.00    +0.000 C 
ENDROOT
BRANCH   1  12
ATOM      9  C   UNL     1       3.524   2.897  10.879  0.00  0.00    +0.000 C 
ATOM     10  C   UNL     1       4.665   3.256  11.737  0.00  0.00    +0.000 A 
ATOM     11  C   UNL     1       4.934   4.286  12.603  0.00  0.00    +0.000 A 
ATOM     12  C   UNL     1       6.214   3.977  13.137  0.00  0.00    +0.000 A 
ATOM     13  N   UNL     1       6.715   2.877  12.545  0.00  0.00    +0.000 NA
ATOM     14  O   UNL     1       5.727   2.412  11.702  0.00  0.00    +0.000 OA
ENDBRANCH   1  12
BRANCH   7  15
ATOM     15  C   UNL     1       3.563   3.722  17.661  0.00  0.00    +0.000 A 
ATOM     16  N   UNL     1       2.720   4.722  17.488  0.00  0.00    +0.000 NA
ATOM     17  N   UNL     1       1.482   4.330  17.928  0.00  0.00    +0.000 NA
ATOM     18  C   UNL     1       1.589   3.097  18.359  0.00  0.00    +0.000 A 
ATOM     19  N   UNL     1       2.872   2.669  18.206  0.00  0.00    +0.000 N 
ATOM     20  C   UNL     1       3.361   1.362  18.553  0.00  0.00    +0.000 C 
ENDBRANCH   7  15
TORSDOF 2
ENDMDL
MODEL 3
REMARK VINA RESULT:      -6.9      3.968      5.700
REMARK  Name = 
REMARK  4 active torsions:
REMARK  status: ('A' for Active; 'I' for Inactive)
REMARK    1  A    between atoms: C_1  and  C_2
REMARK    2  A    between atoms: C_4  and  C_5
REMARK    3  A    between atoms: C_11  and  C_12
REMARK    4  A    between atoms: N_16  and  C_17
REMARK                            x       y       z     vdW  Elec       q    Type
REMARK                         _______ _______ _______ _____ _____    ______ ____
ROOT
ATOM      1  C   UNL     1       6.886   4.653  14.085  0.00  0.00    +0.000 C 
ATOM      2  O   UNL     1       7.818   5.391  13.759  0.00  0.00    +0.000 OA
ATOM      3  N   UNL     1       6.484   4.511  15.431  0.00  0.00    +0.000 N 
ATOM      4  C   UNL     1       7.234   5.282  16.419  0.00  0.00    +0.000 C 
ATOM      5  C   UNL     1       7.157   4.638  17.798  0.00  0.00    +0.000 C 
ATOM      6  C   UNL     1       5.710   4.433  18.240  0.00  0.00    +0.000 C 
ATOM      7  C   UNL     1       4.899   3.653  17.192  0.00  0.00    +0.000 C 
ATOM      8  C   UNL     1       5.079   4.255  15.787  0.00  0.00    +0.000 C 
ENDROOT
BRANCH   1  12
ATOM      9  C   UNL     1       3.470   2.901  10.750  0.00  0.00    +0.000 C 
ATOM     10  C   UNL     1       4.603   3.230  11.629  0.00  0.00    +0.000 A 
ATOM     11  C   UNL     1       4.883   4.251  12.501  0.00  0.00    +0.000 A 
ATOM     12  C   UNL     1       6.145   3.908  13.058  0.00  0.00    +0.000 A 
ATOM     13  N   UNL     1       6.628   2.796  12.473  0.00  0.00    +0.000 NA
ATOM     14  O   UNL     1       5.644   2.358  11.611  0.00  0.00    +0.000 OA
ENDBRANCH   1  12
BRANCH   7  15
ATOM     15  C   UNL     1       3.440   3.659  17.550  0.00  0.00    +0.000 A 
ATOM     16  N   UNL     1       2.671   2.590  17.636  0.00  0.00    +0.000 NA
ATOM     17  N   UNL     1       1.412   2.987  18.006  0.00  0.00    +0.000 NA
ATOM     18  C   UNL     1       1.433   4.291  18.142  0.00  0.00    +0.000 A 
ATOM     19  N   UNL     1       2.684   4.757  17.874  0.00  0.00    +0.000 N 
ATOM     20  C   UNL     1       3.090   6.134  17.939  0.00  0.00    +0.000 C 
ENDBRANCH   7  15
TORSDOF 2
ENDMDL
MODEL 4
REMARK VINA RESULT:      -6.7      0.860      1.479
REMARK  Name = 
REMARK  4 active torsions:
REMARK  status: ('A' for Active; 'I' for Inactive)
REMARK    1  A    between atoms: C_1  and  C_2
REMARK    2  A    between atoms: C_4  and  C_5
REMARK    3  A    between atoms: C_11  and  C_12
REMARK    4  A    between atoms: N_16  and  C_17
REMARK                            x       y       z     vdW  Elec       q    Type
REMARK                         _______ _______ _______ _____ _____    ______ ____
ROOT
ATOM      1  C   UNL     1       6.901   5.321  17.537  0.00  0.00    +0.000 C 
ATOM      2  O   UNL     1       7.668   4.373  17.354  0.00  0.00    +0.000 OA
ATOM      3  N   UNL     1       5.507   5.139  17.655  0.00  0.00    +0.000 N 
ATOM      4  C   UNL     1       5.017   3.768  17.543  0.00  0.00    +0.000 C 
ATOM      5  C   UNL     1       3.565   3.735  17.083  0.00  0.00    +0.000 C 
ATOM      6  C   UNL     1       2.669   4.568  17.996  0.00  0.00    +0.000 C 
ATOM      7  C   UNL     1       3.192   6.005  18.152  0.00  0.00    +0.000 C 
ATOM      8  C   UNL     1       4.690   6.018  18.509  0.00  0.00    +0.000 C 
ENDROOT
BRANCH   1  12
ATOM      9  C   UNL     1       9.134   9.636  19.041  0.00  0.00    +0.000 C 
ATOM     10  C   UNL     1       8.442   8.508  18.397  0.00  0.00    +0.000 A 
ATOM     11  C   UNL     1       8.247   7.188  18.715  0.00  0.00    +0.000 A 
ATOM     12  C   UNL     1       7.436   6.684  17.662  0.00  0.00    +0.000 A 
ATOM     13  N   UNL     1       7.246   7.630  16.724  0.00  0.00    +0.000 NA
ATOM     14  O   UNL     1       7.844   8.776  17.208  0.00  0.00    +0.000 OA
ENDBRANCH   1  12
BRANCH   7  15
ATOM     15  C   UNL     1       2.423   6.729  19.219  0.00  0.00    +0.000 A 
ATOM     16  N   UNL     1       2.052   7.994  19.167  0.00  0.00    +0.000 NA
ATOM     17  N   UNL     1       1.353   8.291  20.309  0.00  0.00    +0.000 NA
ATOM     18  C   UNL     1       1.307   7.202  21.038  0.00  0.00    +0.000 A 
ATOM     19  N   UNL     1       1.957   6.194  20.393  0.00  0.00    +0.000 N 
ATOM     20  C   UNL     1       2.095   4.849  20.881  0.00  0.00    +0.000 C 
ENDBRANCH   7  15
TORSDOF 2
ENDMDL
MODEL 5
REMARK VINA RESULT:      -6.6      1.222      1.298
REMARK  Name = 
REMARK  4 active torsions:
REMARK  status: ('A' for Active; 'I' for Inactive)
REMARK    1  A    between atoms: C_1  and  C_2
REMARK    2  A    between atoms: C_4  and  C_5
REMARK    3  A    between atoms: C_11  and  C_12
REMARK    4  A    between atoms: N_16  and  C_17
REMARK                            x       y       z     vdW  Elec       q    Type
REMARK                         _______ _______ _______ _____ _____    ______ ____
ROOT
ATOM      1  C   UNL     1       7.210   5.287  17.464  0.00  0.00    +0.000 C 
ATOM      2  O   UNL     1       8.011   4.416  17.117  0.00  0.00    +0.000 OA
ATOM      3  N   UNL     1       5.818   5.053  17.488  0.00  0.00    +0.000 N 
ATOM      4  C   UNL     1       5.374   3.725  17.075  0.00  0.00    +0.000 C 
ATOM      5  C   UNL     1       3.940   3.755  16.563  0.00  0.00    +0.000 C 
ATOM      6  C   UNL     1       2.990   4.359  17.594  0.00  0.00    +0.000 C 
ATOM      7  C   UNL     1       3.464   5.743  18.065  0.00  0.00    +0.000 C 
ATOM      8  C   UNL     1       4.949   5.715  18.473  0.00  0.00    +0.000 C 
ENDROOT
BRANCH   1  12
ATOM      9  C   UNL     1       8.481  10.196  17.859  0.00  0.00    +0.000 C 
ATOM     10  C   UNL     1       8.201   8.755  17.972  0.00  0.00    +0.000 A 
ATOM     11  C   UNL     1       7.535   7.838  17.200  0.00  0.00    +0.000 A 
ATOM     12  C   UNL     1       7.699   6.606  17.889  0.00  0.00    +0.000 A 
ATOM     13  N   UNL     1       8.344   6.803  19.054  0.00  0.00    +0.000 NA
ATOM     14  O   UNL     1       8.686   8.140  19.081  0.00  0.00    +0.000 OA
ENDBRANCH   1  12
BRANCH   7  15
ATOM     15  C   UNL     1       2.639   6.212  19.229  0.00  0.00    +0.000 A 
ATOM     16  N   UNL     1       2.339   5.489  20.292  0.00  0.00    +0.000 NA
ATOM     17  N   UNL     1       1.593   6.259  21.146  0.00  0.00    +0.000 NA
ATOM     18  C   UNL     1       1.452   7.439  20.593  0.00  0.00    +0.000 A 
ATOM     19  N   UNL     1       2.097   7.461  19.394  0.00  0.00    +0.000 N 
ATOM     20  C   UNL     1       2.175   8.593  18.512  0.00  0.00    +0.000 C 
ENDBRANCH   7  15
TORSDOF 2
ENDMDL
MODEL 6
REMARK VINA RESULT:      -6.5      4.037      5.934
REMARK  Name = 
REMARK  4 active torsions:
REMARK  status: ('A' for Active; 'I' for Inactive)
REMARK    1  A    between atoms: C_1  and  C_2
REMARK    2  A    between atoms: C_4  and  C_5
REMARK    3  A    between atoms: C_11  and  C_12
REMARK    4  A    between atoms: N_16  and  C_17
REMARK                            x       y       z     vdW  Elec       q    Type
REMARK                         _______ _______ _______ _____ _____    ______ ____
ROOT
ATOM      1  C   UNL     1       6.920   4.795  14.222  0.00  0.00    +0.000 C 
ATOM      2  O   UNL     1       7.765   5.618  13.863  0.00  0.00    +0.000 OA
ATOM      3  N   UNL     1       6.490   4.705  15.564  0.00  0.00    +0.000 N 
ATOM      4  C   UNL     1       7.103   5.636  16.508  0.00  0.00    +0.000 C 
ATOM      5  C   UNL     1       7.056   5.093  17.930  0.00  0.00    +0.000 C 
ATOM      6  C   UNL     1       5.631   4.741  18.348  0.00  0.00    +0.000 C 
ATOM      7  C   UNL     1       4.960   3.789  17.345  0.00  0.00    +0.000 C 
ATOM      8  C   UNL     1       5.115   4.301  15.901  0.00  0.00    +0.000 C 
ENDROOT
BRANCH   1  12
ATOM      9  C   UNL     1       5.946   1.219  10.739  0.00  0.00    +0.000 C 
ATOM     10  C   UNL     1       5.987   2.300  11.737  0.00  0.00    +0.000 A 
ATOM     11  C   UNL     1       6.946   2.797  12.583  0.00  0.00    +0.000 A 
ATOM     12  C   UNL     1       6.314   3.888  13.237  0.00  0.00    +0.000 A 
ATOM     13  N   UNL     1       5.021   3.969  12.870  0.00  0.00    +0.000 NA
ATOM     14  O   UNL     1       4.835   2.999  11.906  0.00  0.00    +0.000 OA
ENDBRANCH   1  12
BRANCH   7  15
ATOM     15  C   UNL     1       3.500   3.638  17.662  0.00  0.00    +0.000 A 
ATOM     16  N   UNL     1       2.569   4.541  17.421  0.00  0.00    +0.000 NA
ATOM     17  N   UNL     1       1.359   4.039  17.826  0.00  0.00    +0.000 NA
ATOM     18  C   UNL     1       1.571   2.837  18.305  0.00  0.00    +0.000 A 
ATOM     19  N   UNL     1       2.896   2.538  18.216  0.00  0.00    +0.000 N 
ATOM     20  C   UNL     1       3.498   1.299  18.627  0.00  0.00    +0.000 C 
ENDBRANCH   7  15
TORSDOF 2
ENDMDL
MODEL 7
REMARK VINA RESULT:      -6.4      2.408      2.985
REMARK  Name = 
REMARK  4 active torsions:
REMARK  status: ('A' for Active; 'I' for Inactive)
REMARK    1  A    between atoms: C_1  and  C_2
REMARK    2  A    between atoms: C_4  and  C_5
REMARK    3  A    between atoms: C_11  and  C_12
REMARK    4  A    between atoms: N_16  and  C_17
REMARK                            x       y       z     vdW  Elec       q    Type
REMARK                         _______ _______ _______ _____ _____    ______ ____
ROOT
ATOM      1  C   UNL     1       4.731   3.231  19.483  0.00  0.00    +0.000 C 
ATOM      2  O   UNL     1       5.121   2.170  19.975  0.00  0.00    +0.000 OA
ATOM      3  N   UNL     1       3.470   3.781  19.803  0.00  0.00    +0.000 N 
ATOM      4  C   UNL     1       2.649   3.023  20.743  0.00  0.00    +0.000 C 
ATOM      5  C   UNL     1       1.169   3.332  20.560  0.00  0.00    +0.000 C 
ATOM      6  C   UNL     1       0.892   4.830  20.666  0.00  0.00    +0.000 C 
ATOM      7  C   UNL     1       1.775   5.643  19.707  0.00  0.00    +0.000 C 
ATOM      8  C   UNL     1       3.255   5.236  19.830  0.00  0.00    +0.000 C 
ENDROOT
BRANCH   1  12
ATOM      9  C   UNL     1       7.022   5.277  15.430  0.00  0.00    +0.000 C 
ATOM     10  C   UNL     1       6.516   4.820  16.734  0.00  0.00    +0.000 A 
ATOM     11  C   UNL     1       5.448   4.063  17.143  0.00  0.00    +0.000 A 
ATOM     12  C   UNL     1       5.595   3.972  18.554  0.00  0.00    +0.000 A 
ATOM     13  N   UNL     1       6.638   4.717  18.965  0.00  0.00    +0.000 NA
ATOM     14  O   UNL     1       7.230   5.211  17.821  0.00  0.00    +0.000 OA
ENDBRANCH   1  12
BRANCH   7  15
ATOM     15  C   UNL     1       1.640   7.112  19.989  0.00  0.00    +0.000 A 
ATOM     16  N   UNL     1       1.277   7.637  21.143  0.00  0.00    +0.000 NA
ATOM     17  N   UNL     1       1.289   9.003  21.024  0.00  0.00    +0.000 NA
ATOM     18  C   UNL     1       1.663   9.289  19.801  0.00  0.00    +0.000 A 
ATOM     19  N   UNL     1       1.901   8.137  19.115  0.00  0.00    +0.000 N 
ATOM     20  C   UNL     1       2.345   8.059  17.751  0.00  0.00    +0.000 C 
ENDBRANCH   7  15
TORSDOF 2
ENDMDL
MODEL 8
REMARK VINA RESULT:      -6.4      3.162      5.997
REMARK  Name = 
REMARK  4 active torsions:
REMARK  status: ('A' for Active; 'I' for Inactive)
REMARK    1  A    between atoms: C_1  and  C_2
REMARK    2  A    between atoms: C_4  and  C_5
REMARK    3  A    between atoms: C_11  and  C_12
REMARK    4  A    between atoms: N_16  and  C_17
REMARK                            x       y       z     vdW  Elec       q    Type
REMARK                         _______ _______ _______ _____ _____    ______ ____
ROOT
ATOM      1  C   UNL     1       3.155   3.674  17.111  0.00  0.00    +0.000 C 
ATOM      2  O   UNL     1       2.297   3.223  16.349  0.00  0.00    +0.000 OA
ATOM      3  N   UNL     1       4.434   4.054  16.651  0.00  0.00    +0.000 N 
ATOM      4  C   UNL     1       4.691   3.879  15.224  0.00  0.00    +0.000 C 
ATOM      5  C   UNL     1       6.181   3.728  14.944  0.00  0.00    +0.000 C 
ATOM      6  C   UNL     1       6.979   4.899  15.509  0.00  0.00    +0.000 C 
ATOM      7  C   UNL     1       6.692   5.117  17.004  0.00  0.00    +0.000 C 
ATOM      8  C   UNL     1       5.178   5.156  17.281  0.00  0.00    +0.000 C 
ENDROOT
BRANCH   1  12
ATOM      9  C   UNL     1       2.162   3.077  22.063  0.00  0.00    +0.000 C 
ATOM     10  C   UNL     1       2.439   3.490  20.678  0.00  0.00    +0.000 A 
ATOM     11  C   UNL     1       2.806   2.834  19.531  0.00  0.00    +0.000 A 
ATOM     12  C   UNL     1       2.851   3.850  18.538  0.00  0.00    +0.000 A 
ATOM     13  N   UNL     1       2.619   5.055  19.091  0.00  0.00    +0.000 NA
ATOM     14  O   UNL     1       2.325   4.818  20.418  0.00  0.00    +0.000 OA
ENDBRANCH   1  12
BRANCH   7  15
ATOM     15  C   UNL     1       7.315   6.399  17.475  0.00  0.00    +0.000 A 
ATOM     16  N   UNL     1       7.331   7.534  16.801  0.00  0.00    +0.000 NA
ATOM     17  N   UNL     1       7.967   8.483  17.559  0.00  0.00    +0.000 NA
ATOM     18  C   UNL     1       8.325   7.914  18.685  0.00  0.00    +0.000 A 
ATOM     19  N   UNL     1       7.931   6.611  18.683  0.00  0.00    +0.000 N 
ATOM     20  C   UNL     1       8.135   5.679  19.758  0.00  0.00    +0.000 C 
ENDBRANCH   7  15
TORSDOF 2
ENDMDL
MODEL 9
REMARK VINA RESULT:      -6.3      1.693      2.322
REMARK  Name = 
REMARK  4 active torsions:
REMARK  status: ('A' for Active; 'I' for Inactive)
REMARK    1  A    between atoms: C_1  and  C_2
REMARK    2  A    between atoms: C_4  and  C_5
REMARK    3  A    between atoms: C_11  and  C_12
REMARK    4  A    between atoms: N_16  and  C_17
REMARK                            x       y       z     vdW  Elec       q    Type
REMARK                         _______ _______ _______ _____ _____    ______ ____
ROOT
ATOM      1  C   UNL     1       4.856   3.656  19.300  0.00  0.00    +0.000 C 
ATOM      2  O   UNL     1       5.292   2.564  19.670  0.00  0.00    +0.000 OA
ATOM      3  N   UNL     1       3.554   4.089  19.633  0.00  0.00    +0.000 N 
ATOM      4  C   UNL     1       2.747   3.173  20.435  0.00  0.00    +0.000 C 
ATOM      5  C   UNL     1       1.259   3.420  20.229  0.00  0.00    +0.000 C 
ATOM      6  C   UNL     1       0.889   4.874  20.512  0.00  0.00    +0.000 C 
ATOM      7  C   UNL     1       1.754   5.851  19.700  0.00  0.00    +0.000 C 
ATOM      8  C   UNL     1       3.250   5.515  19.834  0.00  0.00    +0.000 C 
ENDROOT
BRANCH   1  12
ATOM      9  C   UNL     1       7.892   7.368  17.607  0.00  0.00    +0.000 C 
ATOM     10  C   UNL     1       7.033   6.202  17.871  0.00  0.00    +0.000 A 
ATOM     11  C   UNL     1       6.451   5.666  18.991  0.00  0.00    +0.000 A 
ATOM     12  C   UNL     1       5.705   4.556  18.509  0.00  0.00    +0.000 A 
ATOM     13  N   UNL     1       5.916   4.388  17.190  0.00  0.00    +0.000 NA
ATOM     14  O   UNL     1       6.714   5.441  16.792  0.00  0.00    +0.000 OA
ENDBRANCH   1  12
BRANCH   7  15
ATOM     15  C   UNL     1       1.521   7.262  20.160  0.00  0.00    +0.000 A 
ATOM     16  N   UNL     1       1.179   7.620  21.383  0.00  0.00    +0.000 NA
ATOM     17  N   UNL     1       1.079   8.987  21.426  0.00  0.00    +0.000 NA
ATOM     18  C   UNL     1       1.365   9.441  20.230  0.00  0.00    +0.000 A 
ATOM     19  N   UNL     1       1.656   8.399  19.403  0.00  0.00    +0.000 N 
ATOM     20  C   UNL     1       2.034   8.514  18.021  0.00  0.00    +0.000 C 
ENDBRANCH   7  15
TORSDOF 2
ENDMDL
