MODEL 1
REMARK VINA RESULT:      -7.8      0.000      0.000
REMARK  Name = 
REMARK  5 active torsions:
REMARK  status: ('A' for Active; 'I' for Inactive)
REMARK    1  A    between atoms: O5*_1  and  C5*_2
REMARK    2  A    between atoms: C5*_2  and  C4*_3
REMARK    3  A    between atoms: C1*_5  and  N_6
REMARK    4  A    between atoms: C2*_21  and  O2*_22
REMARK    5  A    between atoms: C3*_23  and  O3*_24
REMARK                            x       y       z     vdW  Elec       q    Type
REMARK                         _______ _______ _______ _____ _____    ______ ____
ROOT
ATOM      1  N   UNL     1       5.610   4.838  18.918  0.00  0.00    +0.000 N 
ATOM      2  C   UNL     1       6.650   5.540  19.461  0.00  0.00    +0.000 A 
ATOM      3  N   UNL     1       7.540   5.895  18.559  0.00  0.00    +0.000 NA
ATOM      4  C   UNL     1       7.052   5.407  17.382  0.00  0.00    +0.000 A 
ATOM      5  N   UNL     1       7.614   5.543  16.154  0.00  0.00    +0.000 NA
ATOM      6  C   UNL     1       6.908   4.965  15.163  0.00  0.00    +0.000 A 
ATOM      7  C   UNL     1       7.416   5.045  13.871  0.00  0.00    +0.000 A 
ATOM      8  C   UNL     1       6.747   4.459  12.790  0.00  0.00    +0.000 A 
ATOM      9 CL   UNL     1       7.467   4.603  11.227  0.00  0.00    +0.000 Cl
ATOM     10  C   UNL     1       5.547   3.788  13.005  0.00  0.00    +0.000 A 
ATOM     11 CL   UNL     1       4.665   3.028  11.728  0.00  0.00    +0.000 Cl
ATOM     12  C   UNL     1       5.021   3.716  14.294  0.00  0.00    +0.000 A 
ATOM     13  C   UNL     1       5.670   4.282  15.384  0.00  0.00    +0.000 A 
ATOM     14  N   UNL     1       5.106   4.161  16.599  0.00  0.00    +0.000 NA
ATOM     15  C   UNL     1       5.851   4.743  17.572  0.00  0.00    +0.000 A 
ENDROOT
BRANCH   1  18
ATOM     16  C4* UNL     1       2.820   2.699  19.220  0.00  0.00    +0.000 C 
ATOM     17  O4* UNL     1       4.239   2.948  19.359  0.00  0.00    +0.000 OA
ATOM     18  C1* UNL     1       4.447   4.354  19.640  0.00  0.00    +0.000 C 
ATOM     19  C2* UNL     1       3.151   5.089  19.319  0.00  0.00    +0.000 C 
ATOM     20  C3* UNL     1       2.095   4.010  19.533  0.00  0.00    +0.000 C 
BRANCH  19  21
ATOM     21  O2* UNL     1       2.961   6.216  20.178  0.00  0.00    +0.000 OA
ATOM     22  H2* UNL     1       3.543   6.098  20.953  0.00  0.00    +0.000 HD
ENDBRANCH  19  21
BRANCH  20  23
ATOM     23  O3* UNL     1       1.659   4.036  20.907  0.00  0.00    +0.000 OA
ATOM     24  H3* UNL     1       2.346   4.452  21.458  0.00  0.00    +0.000 HD
ENDBRANCH  20  23
BRANCH  16  25
ATOM     25  C5* UNL     1       2.517   2.142  17.823  0.00  0.00    +0.000 C 
BRANCH  25  26
ATOM     26  O5* UNL     1       2.212   3.185  16.904  0.00  0.00    +0.000 OA
ATOM     27  H5* UNL     1       1.237   3.262  16.888  0.00  0.00    +0.000 HD
ENDBRANCH  25  26
ENDBRANCH  16  25
ENDBRANCH   1  18
TORSDOF 5
ENDMDL
MODEL 2
REMARK VINA RESULT:      -7.5      5.603      7.453
REMARK  Name = 
REMARK  5 active torsions:
REMARK  status: ('A' for Active; 'I' for Inactive)
REMARK    1  A    between atoms: O5*_1  and  C5*_2
REMARK    2  A    between atoms: C5*_2  and  C4*_3
REMARK    3  A    between atoms: C1*_5  and  N_6
REMARK    4  A    between atoms: C2*_21  and  O2*_22
REMARK    5  A    between atoms: C3*_23  and  O3*_24
REMARK                            x       y       z     vdW  Elec       q    Type
REMARK                         _______ _______ _______ _____ _____    ______ ____
ROOT
ATOM      1  N   UNL     1       3.063   6.055  19.141  0.00  0.00    +0.000 N 
ATOM      2  C   UNL     1       3.556   6.263  17.884  0.00  0.00    +0.000 A 
ATOM      3  N   UNL     1       3.195   7.428  17.390  0.00  0.00    +0.000 NA
ATOM      4  C   UNL     1       2.442   8.001  18.373  0.00  0.00    +0.000 A 
ATOM      5  N   UNL     1       1.863   9.228  18.338  0.00  0.00    +0.000 NA
ATOM      6  C   UNL     1       1.181   9.543  19.456  0.00  0.00    +0.000 A 
ATOM      7  C   UNL     1       0.544  10.778  19.503  0.00  0.00    +0.000 A 
ATOM      8  C   UNL     1      -0.195  11.171  20.624  0.00  0.00    +0.000 A 
ATOM      9 CL   UNL     1      -0.959  12.719  20.580  0.00  0.00    +0.000 Cl
ATOM     10  C   UNL     1      -0.293  10.317  21.719  0.00  0.00    +0.000 A 
ATOM     11 CL   UNL     1      -1.194  10.722  23.137  0.00  0.00    +0.000 Cl
ATOM     12  C   UNL     1       0.355   9.083  21.689  0.00  0.00    +0.000 A 
ATOM     13  C   UNL     1       1.087   8.666  20.584  0.00  0.00    +0.000 A 
ATOM     14  N   UNL     1       1.674   7.457  20.623  0.00  0.00    +0.000 NA
ATOM     15  C   UNL     1       2.340   7.170  19.477  0.00  0.00    +0.000 A 
ENDROOT
BRANCH   1  18
ATOM     16  C4* UNL     1       3.998   2.675  19.537  0.00  0.00    +0.000 C 
ATOM     17  O4* UNL     1       4.348   4.069  19.363  0.00  0.00    +0.000 OA
ATOM     18  C1* UNL     1       3.326   4.894  19.973  0.00  0.00    +0.000 C 
ATOM     19  C2* UNL     1       2.111   4.012  20.231  0.00  0.00    +0.000 C 
ATOM     20  C3* UNL     1       2.732   2.630  20.396  0.00  0.00    +0.000 C 
BRANCH  19  21
ATOM     21  O2* UNL     1       1.398   4.432  21.399  0.00  0.00    +0.000 OA
ATOM     22  H2* UNL     1       0.447   4.444  21.175  0.00  0.00    +0.000 HD
ENDBRANCH  19  21
BRANCH  20  23
ATOM     23  O3* UNL     1       3.063   2.418  21.782  0.00  0.00    +0.000 OA
ATOM     24  H3* UNL     1       2.246   2.298  22.298  0.00  0.00    +0.000 HD
ENDBRANCH  20  23
BRANCH  16  25
ATOM     25  C5* UNL     1       3.845   1.995  18.170  0.00  0.00    +0.000 C 
BRANCH  25  26
ATOM     26  O5* UNL     1       4.102   0.598  18.256  0.00  0.00    +0.000 OA
ATOM     27  H5* UNL     1       3.875   0.222  17.382  0.00  0.00    +0.000 HD
ENDBRANCH  25  26
ENDBRANCH  16  25
ENDBRANCH   1  18
TORSDOF 5
ENDMDL
MODEL 3
REMARK VINA RESULT:      -7.3      5.197      6.770
REMARK  Name = 
REMARK  5 active torsions:
REMARK  status: ('A' for Active; 'I' for Inactive)
REMARK    1  A    between atoms: O5*_1  and  C5*_2
REMARK    2  A    between atoms: C5*_2  and  C4*_3
REMARK    3  A    between atoms: C1*_5  and  N_6
REMARK    4  A    between atoms: C2*_21  and  O2*_22
REMARK    5  A    between atoms: C3*_23  and  O3*_24
REMARK                            x       y       z     vdW  Elec       q    Type
REMARK                         _______ _______ _______ _____ _____    ______ ____
ROOT
ATOM      1  N   UNL     1       3.406   5.779  18.904  0.00  0.00    +0.000 N 
ATOM      2  C   UNL     1       4.088   5.785  17.720  0.00  0.00    +0.000 A 
ATOM      3  N   UNL     1       3.899   6.895  17.039  0.00  0.00    +0.000 NA
ATOM      4  C   UNL     1       3.065   7.641  17.818  0.00  0.00    +0.000 A 
ATOM      5  N   UNL     1       2.602   8.887  17.547  0.00  0.00    +0.000 NA
ATOM      6  C   UNL     1       1.797   9.392  18.502  0.00  0.00    +0.000 A 
ATOM      7  C   UNL     1       1.265  10.661  18.302  0.00  0.00    +0.000 A 
ATOM      8  C   UNL     1       0.410  11.248  19.242  0.00  0.00    +0.000 A 
ATOM      9 CL   UNL     1      -0.207  12.822  18.893  0.00  0.00    +0.000 Cl
ATOM     10  C   UNL     1       0.088  10.555  20.406  0.00  0.00    +0.000 A 
ATOM     11 CL   UNL     1      -0.967  11.203  21.611  0.00  0.00    +0.000 Cl
ATOM     12  C   UNL     1       0.628   9.289  20.624  0.00  0.00    +0.000 A 
ATOM     13  C   UNL     1       1.472   8.681  19.702  0.00  0.00    +0.000 A 
ATOM     14  N   UNL     1       1.944   7.453  19.977  0.00  0.00    +0.000 NA
ATOM     15  C   UNL     1       2.738   6.973  18.988  0.00  0.00    +0.000 A 
ENDROOT
BRANCH   1  18
ATOM     16  C4* UNL     1       3.907   2.411  19.832  0.00  0.00    +0.000 C 
ATOM     17  O4* UNL     1       4.429   3.725  19.523  0.00  0.00    +0.000 OA
ATOM     18  C1* UNL     1       3.451   4.725  19.902  0.00  0.00    +0.000 C 
ATOM     19  C2* UNL     1       2.124   4.012  20.129  0.00  0.00    +0.000 C 
ATOM     20  C3* UNL     1       2.564   2.611  20.539  0.00  0.00    +0.000 C 
BRANCH  19  21
ATOM     21  O2* UNL     1       1.349   4.658  21.144  0.00  0.00    +0.000 OA
ATOM     22  H2* UNL     1       1.763   4.454  22.006  0.00  0.00    +0.000 HD
ENDBRANCH  19  21
BRANCH  20  23
ATOM     23  O3* UNL     1       2.728   2.562  21.970  0.00  0.00    +0.000 OA
ATOM     24  H3* UNL     1       3.580   2.142  22.186  0.00  0.00    +0.000 HD
ENDBRANCH  20  23
BRANCH  16  25
ATOM     25  C5* UNL     1       3.816   1.566  18.555  0.00  0.00    +0.000 C 
BRANCH  25  26
ATOM     26  O5* UNL     1       4.329   2.271  17.430  0.00  0.00    +0.000 OA
ATOM     27  H5* UNL     1       3.927   3.162  17.456  0.00  0.00    +0.000 HD
ENDBRANCH  25  26
ENDBRANCH  16  25
ENDBRANCH   1  18
TORSDOF 5
ENDMDL
MODEL 4
REMARK VINA RESULT:      -7.3      1.518      2.563
REMARK  Name = 
REMARK  5 active torsions:
REMARK  status: ('A' for Active; 'I' for Inactive)
REMARK    1  A    between atoms: O5*_1  and  C5*_2
REMARK    2  A    between atoms: C5*_2  and  C4*_3
REMARK    3  A    between atoms: C1*_5  and  N_6
REMARK    4  A    between atoms: C2*_21  and  O2*_22
REMARK    5  A    between atoms: C3*_23  and  O3*_24
REMARK                            x       y       z     vdW  Elec       q    Type
REMARK                         _______ _______ _______ _____ _____    ______ ____
ROOT
ATOM      1  N   UNL     1       3.633   4.521  18.673  0.00  0.00    +0.000 N 
ATOM      2  C   UNL     1       4.163   5.273  19.684  0.00  0.00    +0.000 A 
ATOM      3  N   UNL     1       5.292   5.854  19.337  0.00  0.00    +0.000 NA
ATOM      4  C   UNL     1       5.498   5.467  18.045  0.00  0.00    +0.000 A 
ATOM      5  N   UNL     1       6.529   5.834  17.244  0.00  0.00    +0.000 NA
ATOM      6  C   UNL     1       6.475   5.306  16.006  0.00  0.00    +0.000 A 
ATOM      7  C   UNL     1       7.500   5.620  15.120  0.00  0.00    +0.000 A 
ATOM      8  C   UNL     1       7.521   5.100  13.820  0.00  0.00    +0.000 A 
ATOM      9 CL   UNL     1       8.843   5.539  12.801  0.00  0.00    +0.000 Cl
ATOM     10  C   UNL     1       6.495   4.259  13.399  0.00  0.00    +0.000 A 
ATOM     11 CL   UNL     1       6.451   3.567  11.816  0.00  0.00    +0.000 Cl
ATOM     12  C   UNL     1       5.455   3.951  14.273  0.00  0.00    +0.000 A 
ATOM     13  C   UNL     1       5.416   4.447  15.571  0.00  0.00    +0.000 A 
ATOM     14  N   UNL     1       4.385   4.096  16.361  0.00  0.00    +0.000 NA
ATOM     15  C   UNL     1       4.482   4.635  17.602  0.00  0.00    +0.000 A 
ENDROOT
BRANCH   1  18
ATOM     16  C4* UNL     1       0.987   3.030  20.470  0.00  0.00    +0.000 C 
ATOM     17  O4* UNL     1       1.624   4.198  19.899  0.00  0.00    +0.000 OA
ATOM     18  C1* UNL     1       2.373   3.802  18.724  0.00  0.00    +0.000 C 
ATOM     19  C2* UNL     1       2.510   2.285  18.750  0.00  0.00    +0.000 C 
ATOM     20  C3* UNL     1       1.277   1.853  19.535  0.00  0.00    +0.000 C 
BRANCH  19  21
ATOM     21  O2* UNL     1       2.534   1.738  17.428  0.00  0.00    +0.000 OA
ATOM     22  H2* UNL     1       1.965   2.299  16.866  0.00  0.00    +0.000 HD
ENDBRANCH  19  21
BRANCH  20  23
ATOM     23  O3* UNL     1       0.180   1.644  18.623  0.00  0.00    +0.000 OA
ATOM     24  H3* UNL     1       0.496   1.736  17.707  0.00  0.00    +0.000 HD
ENDBRANCH  20  23
BRANCH  16  25
ATOM     25  C5* UNL     1       1.476   2.813  21.908  0.00  0.00    +0.000 C 
BRANCH  25  26
ATOM     26  O5* UNL     1       2.864   2.501  21.942  0.00  0.00    +0.000 OA
ATOM     27  H5* UNL     1       2.959   1.735  22.542  0.00  0.00    +0.000 HD
ENDBRANCH  25  26
ENDBRANCH  16  25
ENDBRANCH   1  18
TORSDOF 5
ENDMDL
MODEL 5
REMARK VINA RESULT:      -7.2      5.732      7.615
REMARK  Name = 
REMARK  5 active torsions:
REMARK  status: ('A' for Active; 'I' for Inactive)
REMARK    1  A    between atoms: O5*_1  and  C5*_2
REMARK    2  A    between atoms: C5*_2  and  C4*_3
REMARK    3  A    between atoms: C1*_5  and  N_6
REMARK    4  A    between atoms: C2*_21  and  O2*_22
REMARK    5  A    between atoms: C3*_23  and  O3*_24
REMARK                            x       y       z     vdW  Elec       q    Type
REMARK                         _______ _______ _______ _____ _____    ______ ____
ROOT
ATOM      1  N   UNL     1       1.248   9.361  19.128  0.00  0.00    +0.000 N 
ATOM      2  C   UNL     1       1.808   9.893  18.001  0.00  0.00    +0.000 A 
ATOM      3  N   UNL     1       2.621   9.050  17.400  0.00  0.00    +0.000 NA
ATOM      4  C   UNL     1       2.579   7.923  18.167  0.00  0.00    +0.000 A 
ATOM      5  N   UNL     1       3.239   6.761  17.935  0.00  0.00    +0.000 NA
ATOM      6  C   UNL     1       3.006   5.806  18.857  0.00  0.00    +0.000 A 
ATOM      7  C   UNL     1       3.652   4.584  18.705  0.00  0.00    +0.000 A 
ATOM      8  C   UNL     1       3.471   3.547  19.627  0.00  0.00    +0.000 A 
ATOM      9 CL   UNL     1       4.328   2.073  19.356  0.00  0.00    +0.000 Cl
ATOM     10  C   UNL     1       2.624   3.734  20.716  0.00  0.00    +0.000 A 
ATOM     11 CL   UNL     1       2.354   2.510  21.905  0.00  0.00    +0.000 Cl
ATOM     12  C   UNL     1       1.959   4.950  20.869  0.00  0.00    +0.000 A 
ATOM     13  C   UNL     1       2.129   5.997  19.972  0.00  0.00    +0.000 A 
ATOM     14  N   UNL     1       1.463   7.145  20.192  0.00  0.00    +0.000 NA
ATOM     15  C   UNL     1       1.733   8.085  19.253  0.00  0.00    +0.000 A 
ENDROOT
BRANCH   1  18
ATOM     16  C4* UNL     1      -1.006  11.992  19.800  0.00  0.00    +0.000 C 
ATOM     17  O4* UNL     1      -0.696  10.727  19.169  0.00  0.00    +0.000 OA
ATOM     18  C1* UNL     1       0.272  10.018  19.980  0.00  0.00    +0.000 C 
ATOM     19  C2* UNL     1       0.864  11.012  20.971  0.00  0.00    +0.000 C 
ATOM     20  C3* UNL     1      -0.261  12.028  21.136  0.00  0.00    +0.000 C 
BRANCH  19  21
ATOM     21  O2* UNL     1       1.212  10.378  22.206  0.00  0.00    +0.000 OA
ATOM     22  H2* UNL     1       1.977  10.857  22.579  0.00  0.00    +0.000 HD
ENDBRANCH  19  21
BRANCH  20  23
ATOM     23  O3* UNL     1      -1.124  11.612  22.213  0.00  0.00    +0.000 OA
ATOM     24  H3* UNL     1      -1.801  11.001  21.871  0.00  0.00    +0.000 HD
ENDBRANCH  20  23
BRANCH  16  25
ATOM     25  C5* UNL     1      -0.650  13.151  18.860  0.00  0.00    +0.000 C 
BRANCH  25  26
ATOM     26  O5* UNL     1      -1.022  12.863  17.517  0.00  0.00    +0.000 OA
ATOM     27  H5* UNL     1      -1.924  13.223  17.398  0.00  0.00    +0.000 HD
ENDBRANCH  25  26
ENDBRANCH  16  25
ENDBRANCH   1  18
TORSDOF 5
ENDMDL
MODEL 6
REMARK VINA RESULT:      -7.1      4.916      6.808
REMARK  Name = 
REMARK  5 active torsions:
REMARK  status: ('A' for Active; 'I' for Inactive)
REMARK    1  A    between atoms: O5*_1  and  C5*_2
REMARK    2  A    between atoms: C5*_2  and  C4*_3
REMARK    3  A    between atoms: C1*_5  and  N_6
REMARK    4  A    between atoms: C2*_21  and  O2*_22
REMARK    5  A    between atoms: C3*_23  and  O3*_24
REMARK                            x       y       z     vdW  Elec       q    Type
REMARK                         _______ _______ _______ _____ _____    ______ ____
ROOT
ATOM      1  N   UNL     1       3.764   5.426  17.836  0.00  0.00    +0.000 N 
ATOM      2  C   UNL     1       4.335   5.955  16.713  0.00  0.00    +0.000 A 
ATOM      3  N   UNL     1       4.034   7.226  16.549  0.00  0.00    +0.000 NA
ATOM      4  C   UNL     1       3.239   7.533  17.614  0.00  0.00    +0.000 A 
ATOM      5  N   UNL     1       2.696   8.743  17.896  0.00  0.00    +0.000 NA
ATOM      6  C   UNL     1       1.958   8.762  19.023  0.00  0.00    +0.000 A 
ATOM      7  C   UNL     1       1.351   9.960  19.384  0.00  0.00    +0.000 A 
ATOM      8  C   UNL     1       0.558  10.056  20.533  0.00  0.00    +0.000 A 
ATOM      9 CL   UNL     1      -0.161  11.585  20.887  0.00  0.00    +0.000 Cl
ATOM     10  C   UNL     1       0.375   8.936  21.338  0.00  0.00    +0.000 A 
ATOM     11 CL   UNL     1      -0.596   8.967  22.767  0.00  0.00    +0.000 Cl
ATOM     12  C   UNL     1       0.991   7.734  20.995  0.00  0.00    +0.000 A 
ATOM     13  C   UNL     1       1.776   7.611  19.854  0.00  0.00    +0.000 A 
ATOM     14  N   UNL     1       2.328   6.415  19.582  0.00  0.00    +0.000 NA
ATOM     15  C   UNL     1       3.051   6.432  18.435  0.00  0.00    +0.000 A 
ENDROOT
BRANCH   1  18
ATOM     16  C4* UNL     1       2.824   2.717  19.892  0.00  0.00    +0.000 C 
ATOM     17  O4* UNL     1       2.668   3.496  18.683  0.00  0.00    +0.000 OA
ATOM     18  C1* UNL     1       3.948   4.069  18.320  0.00  0.00    +0.000 C 
ATOM     19  C2* UNL     1       4.870   3.947  19.527  0.00  0.00    +0.000 C 
ATOM     20  C3* UNL     1       4.312   2.724  20.248  0.00  0.00    +0.000 C 
BRANCH  19  21
ATOM     21  O2* UNL     1       6.232   3.770  19.129  0.00  0.00    +0.000 OA
ATOM     22  H2* UNL     1       6.435   4.451  18.458  0.00  0.00    +0.000 HD
ENDBRANCH  19  21
BRANCH  20  23
ATOM     23  O3* UNL     1       4.962   1.539  19.749  0.00  0.00    +0.000 OA
ATOM     24  H3* UNL     1       5.925   1.617  19.877  0.00  0.00    +0.000 HD
ENDBRANCH  20  23
BRANCH  16  25
ATOM     25  C5* UNL     1       1.919   3.274  20.999  0.00  0.00    +0.000 C 
BRANCH  25  26
ATOM     26  O5* UNL     1       0.726   3.832  20.460  0.00  0.00    +0.000 OA
ATOM     27  H5* UNL     1      -0.014   3.312  20.833  0.00  0.00    +0.000 HD
ENDBRANCH  25  26
ENDBRANCH  16  25
ENDBRANCH   1  18
TORSDOF 5
ENDMDL
MODEL 7
REMARK VINA RESULT:      -6.9      6.239      8.133
REMARK  Name = 
REMARK  5 active torsions:
REMARK  status: ('A' for Active; 'I' for Inactive)
REMARK    1  A    between atoms: O5*_1  and  C5*_2
REMARK    2  A    between atoms: C5*_2  and  C4*_3
REMARK    3  A    between atoms: C1*_5  and  N_6
REMARK    4  A    between atoms: C2*_21  and  O2*_22
REMARK    5  A    between atoms: C3*_23  and  O3*_24
REMARK                            x       y       z     vdW  Elec       q    Type
REMARK                         _______ _______ _______ _____ _____    ______ ____
ROOT
ATOM      1  N   UNL     1       2.558   7.017  19.086  0.00  0.00    +0.000 N 
ATOM      2  C   UNL     1       3.024   7.292  17.831  0.00  0.00    +0.000 A 
ATOM      3  N   UNL     1       2.621   8.466  17.393  0.00  0.00    +0.000 NA
ATOM      4  C   UNL     1       1.866   8.973  18.410  0.00  0.00    +0.000 A 
ATOM      5  N   UNL     1       1.251  10.182  18.437  0.00  0.00    +0.000 NA
ATOM      6  C   UNL     1       0.577  10.428  19.577  0.00  0.00    +0.000 A 
ATOM      7  C   UNL     1      -0.096  11.640  19.687  0.00  0.00    +0.000 A 
ATOM      8  C   UNL     1      -0.829  11.963  20.834  0.00  0.00    +0.000 A 
ATOM      9 CL   UNL     1      -1.639  13.487  20.867  0.00  0.00    +0.000 Cl
ATOM     10  C   UNL     1      -0.883  11.060  21.893  0.00  0.00    +0.000 A 
ATOM     11 CL   UNL     1      -1.773  11.377  23.340  0.00  0.00    +0.000 Cl
ATOM     12  C   UNL     1      -0.199   9.849  21.800  0.00  0.00    +0.000 A 
ATOM     13  C   UNL     1       0.528   9.502  20.668  0.00  0.00    +0.000 A 
ATOM     14  N   UNL     1       1.151   8.311  20.647  0.00  0.00    +0.000 NA
ATOM     15  C   UNL     1       1.807   8.093  19.479  0.00  0.00    +0.000 A 
ENDROOT
BRANCH   1  18
ATOM     16  C4* UNL     1       4.363   4.025  19.587  0.00  0.00    +0.000 C 
ATOM     17  O4* UNL     1       4.259   5.466  19.678  0.00  0.00    +0.000 OA
ATOM     18  C1* UNL     1       2.868   5.830  19.863  0.00  0.00    +0.000 C 
ATOM     19  C2* UNL     1       2.021   4.610  19.523  0.00  0.00    +0.000 C 
ATOM     20  C3* UNL     1       2.964   3.453  19.830  0.00  0.00    +0.000 C 
BRANCH  19  21
ATOM     21  O2* UNL     1       0.828   4.565  20.312  0.00  0.00    +0.000 OA
ATOM     22  H2* UNL     1       0.744   3.659  20.669  0.00  0.00    +0.000 HD
ENDBRANCH  19  21
BRANCH  20  23
ATOM     23  O3* UNL     1       2.806   3.062  21.209  0.00  0.00    +0.000 OA
ATOM     24  H3* UNL     1       3.123   2.149  21.327  0.00  0.00    +0.000 HD
ENDBRANCH  20  23
BRANCH  16  25
ATOM     25  C5* UNL     1       4.970   3.625  18.235  0.00  0.00    +0.000 C 
BRANCH  25  26
ATOM     26  O5* UNL     1       6.356   3.940  18.177  0.00  0.00    +0.000 OA
ATOM     27  H5* UNL     1       6.697   3.855  19.090  0.00  0.00    +0.000 HD
ENDBRANCH  25  26
ENDBRANCH  16  25
ENDBRANCH   1  18
TORSDOF 5
ENDMDL
MODEL 8
REMARK VINA RESULT:      -6.7      4.554      6.923
REMARK  Name = 
REMARK  5 active torsions:
REMARK  status: ('A' for Active; 'I' for Inactive)
REMARK    1  A    between atoms: O5*_1  and  C5*_2
REMARK    2  A    between atoms: C5*_2  and  C4*_3
REMARK    3  A    between atoms: C1*_5  and  N_6
REMARK    4  A    between atoms: C2*_21  and  O2*_22
REMARK    5  A    between atoms: C3*_23  and  O3*_24
REMARK                            x       y       z     vdW  Elec       q    Type
REMARK                         _______ _______ _______ _____ _____    ______ ____
ROOT
ATOM      1  N   UNL     1       3.715   4.037  19.492  0.00  0.00    +0.000 N 
ATOM      2  C   UNL     1       3.256   3.214  20.481  0.00  0.00    +0.000 A 
ATOM      3  N   UNL     1       2.363   3.803  21.249  0.00  0.00    +0.000 NA
ATOM      4  C   UNL     1       2.235   5.058  20.729  0.00  0.00    +0.000 A 
ATOM      5  N   UNL     1       1.406   6.037  21.170  0.00  0.00    +0.000 NA
ATOM      6  C   UNL     1       1.481   7.179  20.460  0.00  0.00    +0.000 A 
ATOM      7  C   UNL     1       0.673   8.242  20.849  0.00  0.00    +0.000 A 
ATOM      8  C   UNL     1       0.704   9.465  20.170  0.00  0.00    +0.000 A 
ATOM      9 CL   UNL     1      -0.327  10.726  20.740  0.00  0.00    +0.000 Cl
ATOM     10  C   UNL     1       1.552   9.624  19.078  0.00  0.00    +0.000 A 
ATOM     11 CL   UNL     1       1.658  11.104  18.192  0.00  0.00    +0.000 Cl
ATOM     12  C   UNL     1       2.354   8.561  18.669  0.00  0.00    +0.000 A 
ATOM     13  C   UNL     1       2.348   7.339  19.332  0.00  0.00    +0.000 A 
ATOM     14  N   UNL     1       3.159   6.363  18.886  0.00  0.00    +0.000 NA
ATOM     15  C   UNL     1       3.065   5.235  19.633  0.00  0.00    +0.000 A 
ENDROOT
BRANCH   1  18
ATOM     16  C4* UNL     1       6.628   4.646  17.595  0.00  0.00    +0.000 C 
ATOM     17  O4* UNL     1       5.983   4.154  18.794  0.00  0.00    +0.000 OA
ATOM     18  C1* UNL     1       4.662   3.667  18.455  0.00  0.00    +0.000 C 
ATOM     19  C2* UNL     1       4.317   4.189  17.066  0.00  0.00    +0.000 C 
ATOM     20  C3* UNL     1       5.689   4.355  16.423  0.00  0.00    +0.000 C 
BRANCH  19  21
ATOM     21  O2* UNL     1       3.487   3.270  16.350  0.00  0.00    +0.000 OA
ATOM     22  H2* UNL     1       2.956   2.779  17.007  0.00  0.00    +0.000 HD
ENDBRANCH  19  21
BRANCH  20  23
ATOM     23  O3* UNL     1       6.059   3.127  15.766  0.00  0.00    +0.000 OA
ATOM     24  H3* UNL     1       6.922   2.825  16.101  0.00  0.00    +0.000 HD
ENDBRANCH  20  23
BRANCH  16  25
ATOM     25  C5* UNL     1       6.977   6.132  17.757  0.00  0.00    +0.000 C 
BRANCH  25  26
ATOM     26  O5* UNL     1       7.549   6.662  16.566  0.00  0.00    +0.000 OA
ATOM     27  H5* UNL     1       6.818   6.740  15.921  0.00  0.00    +0.000 HD
ENDBRANCH  25  26
ENDBRANCH  16  25
ENDBRANCH   1  18
TORSDOF 5
ENDMDL
MODEL 9
REMARK VINA RESULT:      -6.6      6.200      8.084
REMARK  Name = 
REMARK  5 active torsions:
REMARK  status: ('A' for Active; 'I' for Inactive)
REMARK    1  A    between atoms: O5*_1  and  C5*_2
REMARK    2  A    between atoms: C5*_2  and  C4*_3
REMARK    3  A    between atoms: C1*_5  and  N_6
REMARK    4  A    between atoms: C2*_21  and  O2*_22
REMARK    5  A    between atoms: C3*_23  and  O3*_24
REMARK                            x       y       z     vdW  Elec       q    Type
REMARK                         _______ _______ _______ _____ _____    ______ ____
ROOT
ATOM      1  N   UNL     1       0.360   9.850  20.036  0.00  0.00    +0.000 N 
ATOM      2  C   UNL     1      -0.121   9.658  21.301  0.00  0.00    +0.000 A 
ATOM      3  N   UNL     1       0.319   8.540  21.839  0.00  0.00    +0.000 NA
ATOM      4  C   UNL     1       1.122   7.989  20.884  0.00  0.00    +0.000 A 
ATOM      5  N   UNL     1       1.826   6.834  20.986  0.00  0.00    +0.000 NA
ATOM      6  C   UNL     1       2.546   6.533  19.887  0.00  0.00    +0.000 A 
ATOM      7  C   UNL     1       3.290   5.359  19.898  0.00  0.00    +0.000 A 
ATOM      8  C   UNL     1       4.052   4.971  18.790  0.00  0.00    +0.000 A 
ATOM      9 CL   UNL     1       4.930   3.489  18.899  0.00  0.00    +0.000 Cl
ATOM     10  C   UNL     1       4.076   5.777  17.656  0.00  0.00    +0.000 A 
ATOM     11 CL   UNL     1       4.983   5.366  16.243  0.00  0.00    +0.000 Cl
ATOM     12  C   UNL     1       3.347   6.965  17.640  0.00  0.00    +0.000 A 
ATOM     13  C   UNL     1       2.575   7.367  18.724  0.00  0.00    +0.000 A 
ATOM     14  N   UNL     1       1.890   8.520  18.630  0.00  0.00    +0.000 NA
ATOM     15  C   UNL     1       1.168   8.781  19.748  0.00  0.00    +0.000 A 
ENDROOT
BRANCH   1  18
ATOM     16  C4* UNL     1      -0.945  13.093  19.552  0.00  0.00    +0.000 C 
ATOM     17  O4* UNL     1       0.110  12.213  20.007  0.00  0.00    +0.000 OA
ATOM     18  C1* UNL     1       0.103  11.009  19.200  0.00  0.00    +0.000 C 
ATOM     19  C2* UNL     1      -1.219  10.965  18.445  0.00  0.00    +0.000 C 
ATOM     20  C3* UNL     1      -1.583  12.441  18.324  0.00  0.00    +0.000 C 
BRANCH  19  21
ATOM     21  O2* UNL     1      -1.073  10.334  17.170  0.00  0.00    +0.000 OA
ATOM     22  H2* UNL     1      -1.847   9.752  17.038  0.00  0.00    +0.000 HD
ENDBRANCH  19  21
BRANCH  20  23
ATOM     23  O3* UNL     1      -1.016  12.974  17.111  0.00  0.00    +0.000 OA
ATOM     24  H3* UNL     1      -1.157  13.936  17.080  0.00  0.00    +0.000 HD
ENDBRANCH  20  23
BRANCH  16  25
ATOM     25  C5* UNL     1      -1.934  13.364  20.694  0.00  0.00    +0.000 C 
BRANCH  25  26
ATOM     26  O5* UNL     1      -3.270  13.452  20.212  0.00  0.00    +0.000 OA
ATOM     27  H5* UNL     1      -3.852  13.281  20.980  0.00  0.00    +0.000 HD
ENDBRANCH  25  26
ENDBRANCH  16  25
ENDBRANCH   1  18
TORSDOF 5
ENDMDL
