MODEL 1
REMARK VINA RESULT:      -7.2      0.000      0.000
REMARK  Name = 
REMARK  1 active torsions:
REMARK  status: ('A' for Active; 'I' for Inactive)
REMARK    1  A    between atoms: S_5  and  C_6
REMARK                            x       y       z     vdW  Elec       q    Type
REMARK                         _______ _______ _______ _____ _____    ______ ____
ROOT
ATOM      1  O   UNL     1       8.427   4.546  18.838  0.00  0.00    +0.000 OA
ATOM      2  S   UNL     1       7.523   5.598  18.418  0.00  0.00    +0.000 S 
ATOM      3  O   UNL     1       7.946   6.968  18.238  0.00  0.00    +0.000 OA
ATOM      4  N   UNL     1       6.105   5.566  19.386  0.00  0.00    +0.000 NA
ATOM      5  S   UNL     1       4.911   4.639  18.817  0.00  0.00    +0.000 S 
ATOM      6  C   UNL     1       5.468   4.717  17.124  0.00  0.00    +0.000 A 
ATOM      7  C   UNL     1       4.753   4.278  16.023  0.00  0.00    +0.000 A 
ATOM      8  C   UNL     1       5.415   4.267  14.801  0.00  0.00    +0.000 A 
ATOM      9  N   UNL     1       6.708   4.650  14.630  0.00  0.00    +0.000 NA
ATOM     10  C   UNL     1       7.383   5.065  15.725  0.00  0.00    +0.000 A 
ATOM     11  C   UNL     1       6.780   5.094  16.952  0.00  0.00    +0.000 A 
ENDROOT
BRANCH   5  12
ATOM     12  C   UNL     1       3.693   5.977  18.766  0.00  0.00    +0.000 A 
ATOM     13  C   UNL     1       3.629   6.960  17.768  0.00  0.00    +0.000 A 
ATOM     14  C   UNL     1       2.767   8.055  17.907  0.00  0.00    +0.000 A 
ATOM     15  C   UNL     1       1.957   8.162  19.035  0.00  0.00    +0.000 A 
ATOM     16 BR   UNL     1       0.859   9.684  19.267  0.00  0.00    +0.000 Br
ATOM     17  C   UNL     1       1.973   7.169  20.010  0.00  0.00    +0.000 A 
ATOM     18  C   UNL     1       2.839   6.081  19.873  0.00  0.00    +0.000 A 
ENDBRANCH   5  12
TORSDOF 1
ENDMDL
MODEL 2
REMARK VINA RESULT:      -6.8      3.566      4.623
REMARK  Name = 
REMARK  1 active torsions:
REMARK  status: ('A' for Active; 'I' for Inactive)
REMARK    1  A    between atoms: S_5  and  C_6
REMARK                            x       y       z     vdW  Elec       q    Type
REMARK                         _______ _______ _______ _____ _____    ______ ____
ROOT
ATOM      1  O   UNL     1       4.321   2.851  17.367  0.00  0.00    +0.000 OA
ATOM      2  S   UNL     1       3.138   3.679  17.488  0.00  0.00    +0.000 S 
ATOM      3  O   UNL     1       2.018   3.582  16.580  0.00  0.00    +0.000 OA
ATOM      4  N   UNL     1       3.596   5.326  17.649  0.00  0.00    +0.000 NA
ATOM      5  S   UNL     1       3.814   5.829  19.168  0.00  0.00    +0.000 S 
ATOM      6  C   UNL     1       2.766   4.575  19.882  0.00  0.00    +0.000 A 
ATOM      7  C   UNL     1       2.333   4.544  21.197  0.00  0.00    +0.000 A 
ATOM      8  C   UNL     1       1.659   3.403  21.616  0.00  0.00    +0.000 A 
ATOM      9  N   UNL     1       1.411   2.328  20.821  0.00  0.00    +0.000 NA
ATOM     10  C   UNL     1       1.854   2.384  19.545  0.00  0.00    +0.000 A 
ATOM     11  C   UNL     1       2.524   3.482  19.082  0.00  0.00    +0.000 A 
ENDROOT
BRANCH   5  12
ATOM     12  C   UNL     1       2.602   7.169  19.058  0.00  0.00    +0.000 A 
ATOM     13  C   UNL     1       2.310   7.886  17.889  0.00  0.00    +0.000 A 
ATOM     14  C   UNL     1       1.489   9.020  17.941  0.00  0.00    +0.000 A 
ATOM     15  C   UNL     1       0.948   9.431  19.157  0.00  0.00    +0.000 A 
ATOM     16 BR   UNL     1      -0.086  11.011  19.244  0.00  0.00    +0.000 Br
ATOM     17  C   UNL     1       1.188   8.700  20.317  0.00  0.00    +0.000 A 
ATOM     18  C   UNL     1       2.013   7.574  20.265  0.00  0.00    +0.000 A 
ENDBRANCH   5  12
TORSDOF 1
ENDMDL
MODEL 3
REMARK VINA RESULT:      -6.7      2.967      3.767
REMARK  Name = 
REMARK  1 active torsions:
REMARK  status: ('A' for Active; 'I' for Inactive)
REMARK    1  A    between atoms: S_5  and  C_6
REMARK                            x       y       z     vdW  Elec       q    Type
REMARK                         _______ _______ _______ _____ _____    ______ ____
ROOT
ATOM      1  O   UNL     1       5.591   3.573  18.454  0.00  0.00    +0.000 OA
ATOM      2  S   UNL     1       4.557   4.431  17.913  0.00  0.00    +0.000 S 
ATOM      3  O   UNL     1       4.498   4.801  16.517  0.00  0.00    +0.000 OA
ATOM      4  N   UNL     1       4.406   5.842  18.879  0.00  0.00    +0.000 NA
ATOM      5  S   UNL     1       3.346   5.728  20.092  0.00  0.00    +0.000 S 
ATOM      6  C   UNL     1       2.394   4.430  19.325  0.00  0.00    +0.000 A 
ATOM      7  C   UNL     1       1.162   3.974  19.761  0.00  0.00    +0.000 A 
ATOM      8  C   UNL     1       0.647   2.844  19.136  0.00  0.00    +0.000 A 
ATOM      9  N   UNL     1       1.279   2.168  18.140  0.00  0.00    +0.000 NA
ATOM     10  C   UNL     1       2.484   2.633  17.742  0.00  0.00    +0.000 A 
ATOM     11  C   UNL     1       3.037   3.739  18.325  0.00  0.00    +0.000 A 
ENDROOT
BRANCH   5  12
ATOM     12  C   UNL     1       2.355   7.147  19.559  0.00  0.00    +0.000 A 
ATOM     13  C   UNL     1       2.370   7.689  18.266  0.00  0.00    +0.000 A 
ATOM     14  C   UNL     1       1.706   8.892  17.996  0.00  0.00    +0.000 A 
ATOM     15  C   UNL     1       1.014   9.547  19.011  0.00  0.00    +0.000 A 
ATOM     16 BR   UNL     1       0.194  11.216  18.670  0.00  0.00    +0.000 Br
ATOM     17  C   UNL     1       0.949   8.996  20.288  0.00  0.00    +0.000 A 
ATOM     18  C   UNL     1       1.618   7.799  20.558  0.00  0.00    +0.000 A 
ENDBRANCH   5  12
TORSDOF 1
ENDMDL
MODEL 4
REMARK VINA RESULT:      -6.6      3.547      4.785
REMARK  Name = 
REMARK  1 active torsions:
REMARK  status: ('A' for Active; 'I' for Inactive)
REMARK    1  A    between atoms: S_5  and  C_6
REMARK                            x       y       z     vdW  Elec       q    Type
REMARK                         _______ _______ _______ _____ _____    ______ ____
ROOT
ATOM      1  O   UNL     1       4.108   2.630  17.318  0.00  0.00    +0.000 OA
ATOM      2  S   UNL     1       3.022   3.569  17.515  0.00  0.00    +0.000 S 
ATOM      3  O   UNL     1       1.858   3.609  16.660  0.00  0.00    +0.000 OA
ATOM      4  N   UNL     1       3.652   5.156  17.691  0.00  0.00    +0.000 NA
ATOM      5  S   UNL     1       3.989   5.593  19.209  0.00  0.00    +0.000 S 
ATOM      6  C   UNL     1       2.853   4.432  19.944  0.00  0.00    +0.000 A 
ATOM      7  C   UNL     1       2.479   4.409  21.277  0.00  0.00    +0.000 A 
ATOM      8  C   UNL     1       1.712   3.330  21.702  0.00  0.00    +0.000 A 
ATOM      9  N   UNL     1       1.321   2.307  20.896  0.00  0.00    +0.000 NA
ATOM     10  C   UNL     1       1.709   2.353  19.602  0.00  0.00    +0.000 A 
ATOM     11  C   UNL     1       2.465   3.391  19.132  0.00  0.00    +0.000 A 
ENDROOT
BRANCH   5  12
ATOM     12  C   UNL     1       2.916   7.050  19.188  0.00  0.00    +0.000 A 
ATOM     13  C   UNL     1       2.112   7.465  20.260  0.00  0.00    +0.000 A 
ATOM     14  C   UNL     1       1.184   8.500  20.090  0.00  0.00    +0.000 A 
ATOM     15  C   UNL     1       1.067   9.133  18.855  0.00  0.00    +0.000 A 
ATOM     16 BR   UNL     1      -0.246  10.468  18.599  0.00  0.00    +0.000 Br
ATOM     17  C   UNL     1       1.893   8.767  17.796  0.00  0.00    +0.000 A 
ATOM     18  C   UNL     1       2.813   7.729  17.965  0.00  0.00    +0.000 A 
ENDBRANCH   5  12
TORSDOF 1
ENDMDL
MODEL 5
REMARK VINA RESULT:      -6.6      3.866      5.510
REMARK  Name = 
REMARK  1 active torsions:
REMARK  status: ('A' for Active; 'I' for Inactive)
REMARK    1  A    between atoms: S_5  and  C_6
REMARK                            x       y       z     vdW  Elec       q    Type
REMARK                         _______ _______ _______ _____ _____    ______ ____
ROOT
ATOM      1  O   UNL     1       3.763   2.366  21.369  0.00  0.00    +0.000 OA
ATOM      2  S   UNL     1       4.135   2.279  19.972  0.00  0.00    +0.000 S 
ATOM      3  O   UNL     1       4.444   1.026  19.321  0.00  0.00    +0.000 OA
ATOM      4  N   UNL     1       5.374   3.416  19.628  0.00  0.00    +0.000 NA
ATOM      5  S   UNL     1       4.853   4.870  19.153  0.00  0.00    +0.000 S 
ATOM      6  C   UNL     1       3.280   4.270  18.566  0.00  0.00    +0.000 A 
ATOM      7  C   UNL     1       2.372   4.998  17.816  0.00  0.00    +0.000 A 
ATOM      8  C   UNL     1       1.128   4.421  17.590  0.00  0.00    +0.000 A 
ATOM      9  N   UNL     1       0.755   3.203  18.065  0.00  0.00    +0.000 NA
ATOM     10  C   UNL     1       1.659   2.519  18.801  0.00  0.00    +0.000 A 
ATOM     11  C   UNL     1       2.897   3.042  19.054  0.00  0.00    +0.000 A 
ENDROOT
BRANCH   5  12
ATOM     12  C   UNL     1       5.757   4.848  17.585  0.00  0.00    +0.000 A 
ATOM     13  C   UNL     1       6.738   5.780  17.217  0.00  0.00    +0.000 A 
ATOM     14  C   UNL     1       7.255   5.788  15.915  0.00  0.00    +0.000 A 
ATOM     15  C   UNL     1       6.804   4.855  14.983  0.00  0.00    +0.000 A 
ATOM     16 BR   UNL     1       7.434   4.921  13.202  0.00  0.00    +0.000 Br
ATOM     17  C   UNL     1       5.868   3.892  15.348  0.00  0.00    +0.000 A 
ATOM     18  C   UNL     1       5.348   3.891  16.645  0.00  0.00    +0.000 A 
ENDBRANCH   5  12
TORSDOF 1
ENDMDL
MODEL 6
REMARK VINA RESULT:      -6.5      3.761      5.881
REMARK  Name = 
REMARK  1 active torsions:
REMARK  status: ('A' for Active; 'I' for Inactive)
REMARK    1  A    between atoms: S_5  and  C_6
REMARK                            x       y       z     vdW  Elec       q    Type
REMARK                         _______ _______ _______ _____ _____    ______ ____
ROOT
ATOM      1  O   UNL     1       3.397   2.370  21.586  0.00  0.00    +0.000 OA
ATOM      2  S   UNL     1       3.228   2.661  20.177  0.00  0.00    +0.000 S 
ATOM      3  O   UNL     1       2.349   1.899  19.320  0.00  0.00    +0.000 OA
ATOM      4  N   UNL     1       4.765   2.806  19.425  0.00  0.00    +0.000 NA
ATOM      5  S   UNL     1       5.382   4.299  19.416  0.00  0.00    +0.000 S 
ATOM      6  C   UNL     1       3.799   5.106  19.568  0.00  0.00    +0.000 A 
ATOM      7  C   UNL     1       3.572   6.463  19.417  0.00  0.00    +0.000 A 
ATOM      8  C   UNL     1       2.303   6.933  19.735  0.00  0.00    +0.000 A 
ATOM      9  N   UNL     1       1.290   6.148  20.187  0.00  0.00    +0.000 NA
ATOM     10  C   UNL     1       1.544   4.828  20.333  0.00  0.00    +0.000 A 
ATOM     11  C   UNL     1       2.776   4.314  20.036  0.00  0.00    +0.000 A 
ENDROOT
BRANCH   5  12
ATOM     12  C   UNL     1       5.558   4.378  17.616  0.00  0.00    +0.000 A 
ATOM     13  C   UNL     1       4.537   4.082  16.701  0.00  0.00    +0.000 A 
ATOM     14  C   UNL     1       4.817   3.999  15.331  0.00  0.00    +0.000 A 
ATOM     15  C   UNL     1       6.112   4.227  14.871  0.00  0.00    +0.000 A 
ATOM     16 BR   UNL     1       6.509   4.027  13.034  0.00  0.00    +0.000 Br
ATOM     17  C   UNL     1       7.124   4.571  15.762  0.00  0.00    +0.000 A 
ATOM     18  C   UNL     1       6.846   4.645  17.129  0.00  0.00    +0.000 A 
ENDBRANCH   5  12
TORSDOF 1
ENDMDL
MODEL 7
REMARK VINA RESULT:      -6.4      3.927      5.580
REMARK  Name = 
REMARK  1 active torsions:
REMARK  status: ('A' for Active; 'I' for Inactive)
REMARK    1  A    between atoms: S_5  and  C_6
REMARK                            x       y       z     vdW  Elec       q    Type
REMARK                         _______ _______ _______ _____ _____    ______ ____
ROOT
ATOM      1  O   UNL     1       4.153   2.154  21.413  0.00  0.00    +0.000 OA
ATOM      2  S   UNL     1       4.345   2.111  19.978  0.00  0.00    +0.000 S 
ATOM      3  O   UNL     1       4.741   0.911  19.276  0.00  0.00    +0.000 OA
ATOM      4  N   UNL     1       5.354   3.411  19.487  0.00  0.00    +0.000 NA
ATOM      5  S   UNL     1       4.573   4.772  19.103  0.00  0.00    +0.000 S 
ATOM      6  C   UNL     1       3.038   3.950  18.721  0.00  0.00    +0.000 A 
ATOM      7  C   UNL     1       1.945   4.536  18.106  0.00  0.00    +0.000 A 
ATOM      8  C   UNL     1       0.777   3.786  18.039  0.00  0.00    +0.000 A 
ATOM      9  N   UNL     1       0.647   2.530  18.543  0.00  0.00    +0.000 NA
ATOM     10  C   UNL     1       1.728   1.988  19.145  0.00  0.00    +0.000 A 
ATOM     11  C   UNL     1       2.902   2.683  19.240  0.00  0.00    +0.000 A 
ENDROOT
BRANCH   5  12
ATOM     12  C   UNL     1       5.256   4.870  17.429  0.00  0.00    +0.000 A 
ATOM     13  C   UNL     1       4.965   3.968  16.396  0.00  0.00    +0.000 A 
ATOM     14  C   UNL     1       5.676   4.020  15.190  0.00  0.00    +0.000 A 
ATOM     15  C   UNL     1       6.667   4.982  15.009  0.00  0.00    +0.000 A 
ATOM     16 BR   UNL     1       7.688   4.996  13.418  0.00  0.00    +0.000 Br
ATOM     17  C   UNL     1       6.932   5.915  16.006  0.00  0.00    +0.000 A 
ATOM     18  C   UNL     1       6.228   5.857  17.211  0.00  0.00    +0.000 A 
ENDBRANCH   5  12
TORSDOF 1
ENDMDL
MODEL 8
REMARK VINA RESULT:      -6.4      0.383      1.193
REMARK  Name = 
REMARK  1 active torsions:
REMARK  status: ('A' for Active; 'I' for Inactive)
REMARK    1  A    between atoms: S_5  and  C_6
REMARK                            x       y       z     vdW  Elec       q    Type
REMARK                         _______ _______ _______ _____ _____    ______ ____
ROOT
ATOM      1  O   UNL     1       8.387   4.309  18.568  0.00  0.00    +0.000 OA
ATOM      2  S   UNL     1       7.555   5.446  18.229  0.00  0.00    +0.000 S 
ATOM      3  O   UNL     1       8.082   6.782  18.071  0.00  0.00    +0.000 OA
ATOM      4  N   UNL     1       6.188   5.496  19.266  0.00  0.00    +0.000 NA
ATOM      5  S   UNL     1       4.894   4.691  18.730  0.00  0.00    +0.000 S 
ATOM      6  C   UNL     1       5.373   4.783  17.015  0.00  0.00    +0.000 A 
ATOM      7  C   UNL     1       4.572   4.444  15.938  0.00  0.00    +0.000 A 
ATOM      8  C   UNL     1       5.170   4.422  14.684  0.00  0.00    +0.000 A 
ATOM      9  N   UNL     1       6.481   4.703  14.459  0.00  0.00    +0.000 NA
ATOM     10  C   UNL     1       7.241   5.022  15.531  0.00  0.00    +0.000 A 
ATOM     11  C   UNL     1       6.702   5.057  16.787  0.00  0.00    +0.000 A 
ENDROOT
BRANCH   5  12
ATOM     12  C   UNL     1       3.791   6.125  18.784  0.00  0.00    +0.000 A 
ATOM     13  C   UNL     1       2.758   6.303  19.715  0.00  0.00    +0.000 A 
ATOM     14  C   UNL     1       1.847   7.356  19.569  0.00  0.00    +0.000 A 
ATOM     15  C   UNL     1       1.974   8.242  18.502  0.00  0.00    +0.000 A 
ATOM     16 BR   UNL     1       0.692   9.609  18.253  0.00  0.00    +0.000 Br
ATOM     17  C   UNL     1       3.024   8.108  17.598  0.00  0.00    +0.000 A 
ATOM     18  C   UNL     1       3.928   7.053  17.741  0.00  0.00    +0.000 A 
ENDBRANCH   5  12
TORSDOF 1
ENDMDL
MODEL 9
REMARK VINA RESULT:      -6.3      4.343      5.755
REMARK  Name = 
REMARK  1 active torsions:
REMARK  status: ('A' for Active; 'I' for Inactive)
REMARK    1  A    between atoms: S_5  and  C_6
REMARK                            x       y       z     vdW  Elec       q    Type
REMARK                         _______ _______ _______ _____ _____    ______ ____
ROOT
ATOM      1  O   UNL     1       0.176   2.387  18.712  0.00  0.00    +0.000 OA
ATOM      2  S   UNL     1       1.167   3.425  18.909  0.00  0.00    +0.000 S 
ATOM      3  O   UNL     1       0.845   4.720  19.465  0.00  0.00    +0.000 OA
ATOM      4  N   UNL     1       2.081   3.638  17.471  0.00  0.00    +0.000 NA
ATOM      5  S   UNL     1       3.407   2.723  17.363  0.00  0.00    +0.000 S 
ATOM      6  C   UNL     1       3.572   2.508  19.126  0.00  0.00    +0.000 A 
ATOM      7  C   UNL     1       4.670   1.961  19.768  0.00  0.00    +0.000 A 
ATOM      8  C   UNL     1       4.552   1.721  21.132  0.00  0.00    +0.000 A 
ATOM      9  N   UNL     1       3.433   1.982  21.858  0.00  0.00    +0.000 NA
ATOM     10  C   UNL     1       2.374   2.507  21.202  0.00  0.00    +0.000 A 
ATOM     11  C   UNL     1       2.437   2.761  19.860  0.00  0.00    +0.000 A 
ENDROOT
BRANCH   5  12
ATOM     12  C   UNL     1       4.537   4.121  17.151  0.00  0.00    +0.000 A 
ATOM     13  C   UNL     1       5.787   4.048  16.517  0.00  0.00    +0.000 A 
ATOM     14  C   UNL     1       6.666   5.137  16.558  0.00  0.00    +0.000 A 
ATOM     15  C   UNL     1       6.293   6.307  17.216  0.00  0.00    +0.000 A 
ATOM     16 BR   UNL     1       7.513   7.745  17.349  0.00  0.00    +0.000 Br
ATOM     17  C   UNL     1       5.037   6.412  17.807  0.00  0.00    +0.000 A 
ATOM     18  C   UNL     1       4.164   5.322  17.772  0.00  0.00    +0.000 A 
ENDBRANCH   5  12
TORSDOF 1
ENDMDL
