MODEL 1
REMARK VINA RESULT:      -7.8      0.000      0.000
REMARK  Name = 
REMARK  7 active torsions:
REMARK  status: ('A' for Active; 'I' for Inactive)
REMARK    1  A    between atoms: C_1  and  C_2
REMARK    2  A    between atoms: C_2  and  C_3
REMARK    3  A    between atoms: C_2  and  C_4
REMARK    4  A    between atoms: C_4  and  N_5
REMARK    5  A    between atoms: C_11  and  C_12
REMARK    6  A    between atoms: C_15  and  C_16
REMARK    7  A    between atoms: N_18  and  C_19
REMARK                            x       y       z     vdW  Elec       q    Type
REMARK                         _______ _______ _______ _____ _____    ______ ____
ROOT
ATOM      1  N   UNL     1      -1.672  12.746  22.273  0.00  0.00    +0.000 N 
ATOM      2  C   UNL     1      -0.971  11.557  22.244  0.00  0.00    +0.000 A 
ATOM      3  N   UNL     1      -0.900  10.796  23.315  0.00  0.00    +0.000 NA
ATOM      4  C   UNL     1      -0.202   9.611  23.248  0.00  0.00    +0.000 A 
ATOM      5  C   UNL     1       0.428   9.165  22.147  0.00  0.00    +0.000 A 
ATOM      6  N   UNL     1       0.384   9.943  21.001  0.00  0.00    +0.000 N 
ATOM      7  C   UNL     1       0.922   9.799  19.729  0.00  0.00    +0.000 A 
ATOM      8  C   UNL     1       0.571  10.987  19.096  0.00  0.00    +0.000 A 
ATOM      9  N   UNL     1      -0.186  11.806  19.897  0.00  0.00    +0.000 NA
ATOM     10  C   UNL     1      -0.290  11.136  21.025  0.00  0.00    +0.000 A 
ATOM     11  H   UNL     1      -1.509  13.312  21.444  0.00  0.00    +0.000 HD
ENDROOT
BRANCH   7  12
ATOM     12  C   UNL     1       1.709   8.665  19.241  0.00  0.00    +0.000 A 
ATOM     13  C   UNL     1       2.306   8.689  17.977  0.00  0.00    +0.000 A 
ATOM     14  C   UNL     1       2.990   7.574  17.484  0.00  0.00    +0.000 A 
ATOM     15  C   UNL     1       3.151   6.422  18.269  0.00  0.00    +0.000 A 
ATOM     16  C   UNL     1       2.585   6.410  19.552  0.00  0.00    +0.000 A 
ATOM     17  C   UNL     1       1.875   7.520  20.031  0.00  0.00    +0.000 A 
BRANCH  15  18
ATOM     18  C   UNL     1       3.931   5.284  17.682  0.00  0.00    +0.000 C 
ATOM     19  O   UNL     1       3.644   4.130  17.988  0.00  0.00    +0.000 OA
ATOM     20  N   UNL     1       4.954   5.596  16.799  0.00  0.00    +0.000 N 
ATOM     21  H   UNL     1       5.177   6.555  16.593  0.00  0.00    +0.000 HD
BRANCH  20  22
ATOM     22  C   UNL     1       5.749   4.593  16.162  0.00  0.00    +0.000 C 
ATOM     23  C   UNL     1       5.620   4.333  14.684  0.00  0.00    +0.000 C 
ATOM     24  C   UNL     1       6.852   4.996  15.224  0.00  0.00    +0.000 C 
ENDBRANCH  20  22
ENDBRANCH  15  18
ENDBRANCH   7  12
BRANCH   1  25
ATOM     25  C   UNL     1      -1.867  13.484  23.509  0.00  0.00    +0.000 C 
BRANCH  25  27
ATOM     26  C   UNL     1      -4.044  12.599  24.448  0.00  0.00    +0.000 C 
ATOM     27  C   UNL     1      -3.361  13.773  23.743  0.00  0.00    +0.000 C 
ATOM     28  C   UNL     1      -3.556  15.044  24.579  0.00  0.00    +0.000 C 
ENDBRANCH  25  27
ENDBRANCH   1  25
TORSDOF 5
ENDMDL
MODEL 2
REMARK VINA RESULT:      -7.7      1.810      3.588
REMARK  Name = 
REMARK  7 active torsions:
REMARK  status: ('A' for Active; 'I' for Inactive)
REMARK    1  A    between atoms: C_1  and  C_2
REMARK    2  A    between atoms: C_2  and  C_3
REMARK    3  A    between atoms: C_2  and  C_4
REMARK    4  A    between atoms: C_4  and  N_5
REMARK    5  A    between atoms: C_11  and  C_12
REMARK    6  A    between atoms: C_15  and  C_16
REMARK    7  A    between atoms: N_18  and  C_19
REMARK                            x       y       z     vdW  Elec       q    Type
REMARK                         _______ _______ _______ _____ _____    ______ ____
ROOT
ATOM      1  N   UNL     1      -0.142  10.188  21.573  0.00  0.00    +0.000 N 
ATOM      2  C   UNL     1       0.563   9.926  20.415  0.00  0.00    +0.000 A 
ATOM      3  N   UNL     1       0.618  10.817  19.448  0.00  0.00    +0.000 NA
ATOM      4  C   UNL     1       1.339  10.528  18.312  0.00  0.00    +0.000 A 
ATOM      5  C   UNL     1       2.003   9.376  18.110  0.00  0.00    +0.000 A 
ATOM      6  N   UNL     1       1.962   8.408  19.101  0.00  0.00    +0.000 N 
ATOM      7  C   UNL     1       2.502   7.135  19.214  0.00  0.00    +0.000 A 
ATOM      8  C   UNL     1       1.995   6.676  20.426  0.00  0.00    +0.000 A 
ATOM      9  N   UNL     1       1.227   7.619  21.064  0.00  0.00    +0.000 NA
ATOM     10  C   UNL     1       1.246   8.648  20.245  0.00  0.00    +0.000 A 
ATOM     11  H   UNL     1      -0.246   9.364  22.158  0.00  0.00    +0.000 HD
ENDROOT
BRANCH   7  12
ATOM     12  C   UNL     1       3.356   6.462  18.233  0.00  0.00    +0.000 A 
ATOM     13  C   UNL     1       3.236   5.091  17.988  0.00  0.00    +0.000 A 
ATOM     14  C   UNL     1       4.105   4.440  17.108  0.00  0.00    +0.000 A 
ATOM     15  C   UNL     1       5.083   5.155  16.399  0.00  0.00    +0.000 A 
ATOM     16  C   UNL     1       5.182   6.536  16.617  0.00  0.00    +0.000 A 
ATOM     17  C   UNL     1       4.326   7.181  17.522  0.00  0.00    +0.000 A 
BRANCH  15  18
ATOM     18  C   UNL     1       5.950   4.388  15.447  0.00  0.00    +0.000 C 
ATOM     19  O   UNL     1       7.073   4.034  15.798  0.00  0.00    +0.000 OA
ATOM     20  N   UNL     1       5.431   4.103  14.193  0.00  0.00    +0.000 N 
ATOM     21  H   UNL     1       4.516   4.432  13.932  0.00  0.00    +0.000 HD
BRANCH  20  22
ATOM     22  C   UNL     1       6.158   3.361  13.212  0.00  0.00    +0.000 C 
ATOM     23  C   UNL     1       5.633   3.221  11.807  0.00  0.00    +0.000 C 
ATOM     24  C   UNL     1       6.833   4.079  12.078  0.00  0.00    +0.000 C 
ENDBRANCH  20  22
ENDBRANCH  15  18
ENDBRANCH   7  12
BRANCH   1  25
ATOM     25  C   UNL     1      -1.261  11.114  21.589  0.00  0.00    +0.000 C 
BRANCH  25  27
ATOM     26  C   UNL     1      -0.392  13.379  22.309  0.00  0.00    +0.000 C 
ATOM     27  C   UNL     1      -1.128  12.113  22.752  0.00  0.00    +0.000 C 
ATOM     28  C   UNL     1      -2.503  12.500  23.311  0.00  0.00    +0.000 C 
ENDBRANCH  25  27
ENDBRANCH   1  25
TORSDOF 5
ENDMDL
MODEL 3
REMARK VINA RESULT:      -7.7      0.737      1.385
REMARK  Name = 
REMARK  7 active torsions:
REMARK  status: ('A' for Active; 'I' for Inactive)
REMARK    1  A    between atoms: C_1  and  C_2
REMARK    2  A    between atoms: C_2  and  C_3
REMARK    3  A    between atoms: C_2  and  C_4
REMARK    4  A    between atoms: C_4  and  N_5
REMARK    5  A    between atoms: C_11  and  C_12
REMARK    6  A    between atoms: C_15  and  C_16
REMARK    7  A    between atoms: N_18  and  C_19
REMARK                            x       y       z     vdW  Elec       q    Type
REMARK                         _______ _______ _______ _____ _____    ______ ____
ROOT
ATOM      1  N   UNL     1      -1.760  12.140  22.209  0.00  0.00    +0.000 N 
ATOM      2  C   UNL     1      -0.851  11.101  22.183  0.00  0.00    +0.000 A 
ATOM      3  N   UNL     1      -0.461  10.524  23.300  0.00  0.00    +0.000 NA
ATOM      4  C   UNL     1       0.438   9.485  23.238  0.00  0.00    +0.000 A 
ATOM      5  C   UNL     1       0.962   9.005  22.096  0.00  0.00    +0.000 A 
ATOM      6  N   UNL     1       0.584   9.591  20.899  0.00  0.00    +0.000 N 
ATOM      7  C   UNL     1       0.932   9.365  19.574  0.00  0.00    +0.000 A 
ATOM      8  C   UNL     1       0.257  10.371  18.889  0.00  0.00    +0.000 A 
ATOM      9  N   UNL     1      -0.511  11.149  19.720  0.00  0.00    +0.000 NA
ATOM     10  C   UNL     1      -0.300  10.638  20.914  0.00  0.00    +0.000 A 
ATOM     11  H   UNL     1      -1.845  12.602  21.307  0.00  0.00    +0.000 HD
ENDROOT
BRANCH   7  12
ATOM     12  C   UNL     1       1.841   8.331  19.078  0.00  0.00    +0.000 A 
ATOM     13  C   UNL     1       2.073   7.161  19.807  0.00  0.00    +0.000 A 
ATOM     14  C   UNL     1       3.001   6.212  19.368  0.00  0.00    +0.000 A 
ATOM     15  C   UNL     1       3.681   6.378  18.152  0.00  0.00    +0.000 A 
ATOM     16  C   UNL     1       3.423   7.534  17.401  0.00  0.00    +0.000 A 
ATOM     17  C   UNL     1       2.512   8.496  17.859  0.00  0.00    +0.000 A 
BRANCH  15  18
ATOM     18  C   UNL     1       4.631   5.297  17.733  0.00  0.00    +0.000 C 
ATOM     19  O   UNL     1       5.084   4.527  18.576  0.00  0.00    +0.000 OA
ATOM     20  N   UNL     1       4.954   5.212  16.387  0.00  0.00    +0.000 N 
ATOM     21  H   UNL     1       4.583   5.877  15.730  0.00  0.00    +0.000 HD
BRANCH  20  22
ATOM     22  C   UNL     1       5.831   4.209  15.871  0.00  0.00    +0.000 C 
ATOM     23  C   UNL     1       5.964   3.993  14.386  0.00  0.00    +0.000 C 
ATOM     24  C   UNL     1       7.092   4.612  15.159  0.00  0.00    +0.000 C 
ENDBRANCH  20  22
ENDBRANCH  15  18
ENDBRANCH   7  12
BRANCH   1  25
ATOM     25  C   UNL     1      -1.900  13.000  23.371  0.00  0.00    +0.000 C 
BRANCH  25  27
ATOM     26  C   UNL     1      -3.322  15.091  23.266  0.00  0.00    +0.000 C 
ATOM     27  C   UNL     1      -3.326  13.573  23.459  0.00  0.00    +0.000 C 
ATOM     28  C   UNL     1      -4.246  12.935  22.411  0.00  0.00    +0.000 C 
ENDBRANCH  25  27
ENDBRANCH   1  25
TORSDOF 5
ENDMDL
MODEL 4
REMARK VINA RESULT:      -7.6      2.133      4.073
REMARK  Name = 
REMARK  7 active torsions:
REMARK  status: ('A' for Active; 'I' for Inactive)
REMARK    1  A    between atoms: C_1  and  C_2
REMARK    2  A    between atoms: C_2  and  C_3
REMARK    3  A    between atoms: C_2  and  C_4
REMARK    4  A    between atoms: C_4  and  N_5
REMARK    5  A    between atoms: C_11  and  C_12
REMARK    6  A    between atoms: C_15  and  C_16
REMARK    7  A    between atoms: N_18  and  C_19
REMARK                            x       y       z     vdW  Elec       q    Type
REMARK                         _______ _______ _______ _____ _____    ______ ____
ROOT
ATOM      1  N   UNL     1       0.105   9.419  21.472  0.00  0.00    +0.000 N 
ATOM      2  C   UNL     1       0.831   9.285  20.304  0.00  0.00    +0.000 A 
ATOM      3  N   UNL     1       0.849  10.251  19.412  0.00  0.00    +0.000 NA
ATOM      4  C   UNL     1       1.590  10.088  18.264  0.00  0.00    +0.000 A 
ATOM      5  C   UNL     1       2.312   8.990  17.979  0.00  0.00    +0.000 A 
ATOM      6  N   UNL     1       2.312   7.946  18.891  0.00  0.00    +0.000 N 
ATOM      7  C   UNL     1       2.915   6.695  18.909  0.00  0.00    +0.000 A 
ATOM      8  C   UNL     1       2.422   6.118  20.075  0.00  0.00    +0.000 A 
ATOM      9  N   UNL     1       1.604   6.968  20.777  0.00  0.00    +0.000 NA
ATOM     10  C   UNL     1       1.578   8.059  20.042  0.00  0.00    +0.000 A 
ATOM     11  H   UNL     1       0.039   8.547  21.989  0.00  0.00    +0.000 HD
ENDROOT
BRANCH   7  12
ATOM     12  C   UNL     1       3.808   6.145  17.887  0.00  0.00    +0.000 A 
ATOM     13  C   UNL     1       4.816   6.924  17.311  0.00  0.00    +0.000 A 
ATOM     14  C   UNL     1       5.614   6.419  16.281  0.00  0.00    +0.000 A 
ATOM     15  C   UNL     1       5.468   5.096  15.838  0.00  0.00    +0.000 A 
ATOM     16  C   UNL     1       4.482   4.301  16.439  0.00  0.00    +0.000 A 
ATOM     17  C   UNL     1       3.664   4.821  17.453  0.00  0.00    +0.000 A 
BRANCH  15  18
ATOM     18  C   UNL     1       6.389   4.619  14.756  0.00  0.00    +0.000 C 
ATOM     19  O   UNL     1       7.530   5.067  14.689  0.00  0.00    +0.000 OA
ATOM     20  N   UNL     1       5.901   3.671  13.869  0.00  0.00    +0.000 N 
ATOM     21  H   UNL     1       4.951   3.347  13.940  0.00  0.00    +0.000 HD
BRANCH  20  22
ATOM     22  C   UNL     1       6.695   3.129  12.812  0.00  0.00    +0.000 C 
ATOM     23  C   UNL     1       6.047   2.492  11.611  0.00  0.00    +0.000 C 
ATOM     24  C   UNL     1       6.736   3.818  11.477  0.00  0.00    +0.000 C 
ENDBRANCH  20  22
ENDBRANCH  15  18
ENDBRANCH   7  12
BRANCH   1  25
ATOM     25  C   UNL     1      -1.058  10.285  21.548  0.00  0.00    +0.000 C 
BRANCH  25  27
ATOM     26  C   UNL     1      -0.317  12.676  21.924  0.00  0.00    +0.000 C 
ATOM     27  C   UNL     1      -0.842  11.401  22.587  0.00  0.00    +0.000 C 
ATOM     28  C   UNL     1      -2.142  11.721  23.335  0.00  0.00    +0.000 C 
ENDBRANCH  25  27
ENDBRANCH   1  25
TORSDOF 5
ENDMDL
MODEL 5
REMARK VINA RESULT:      -7.5      2.225      2.834
REMARK  Name = 
REMARK  7 active torsions:
REMARK  status: ('A' for Active; 'I' for Inactive)
REMARK    1  A    between atoms: C_1  and  C_2
REMARK    2  A    between atoms: C_2  and  C_3
REMARK    3  A    between atoms: C_2  and  C_4
REMARK    4  A    between atoms: C_4  and  N_5
REMARK    5  A    between atoms: C_11  and  C_12
REMARK    6  A    between atoms: C_15  and  C_16
REMARK    7  A    between atoms: N_18  and  C_19
REMARK                            x       y       z     vdW  Elec       q    Type
REMARK                         _______ _______ _______ _____ _____    ______ ____
ROOT
ATOM      1  N   UNL     1      -3.459  13.140  19.937  0.00  0.00    +0.000 N 
ATOM      2  C   UNL     1      -2.874  12.060  19.305  0.00  0.00    +0.000 A 
ATOM      3  N   UNL     1      -3.473  11.472  18.291  0.00  0.00    +0.000 NA
ATOM      4  C   UNL     1      -2.857  10.405  17.678  0.00  0.00    +0.000 A 
ATOM      5  C   UNL     1      -1.664   9.906  18.047  0.00  0.00    +0.000 A 
ATOM      6  N   UNL     1      -1.006  10.492  19.116  0.00  0.00    +0.000 N 
ATOM      7  C   UNL     1       0.198  10.229  19.756  0.00  0.00    +0.000 A 
ATOM      8  C   UNL     1       0.207  11.137  20.810  0.00  0.00    +0.000 A 
ATOM      9  N   UNL     1      -0.894  11.958  20.806  0.00  0.00    +0.000 NA
ATOM     10  C   UNL     1      -1.587  11.550  19.765  0.00  0.00    +0.000 A 
ATOM     11  H   UNL     1      -2.982  13.390  20.798  0.00  0.00    +0.000 HD
ENDROOT
BRANCH   7  12
ATOM     12  C   UNL     1       1.166   9.192  19.395  0.00  0.00    +0.000 A 
ATOM     13  C   UNL     1       1.855   9.237  18.179  0.00  0.00    +0.000 A 
ATOM     14  C   UNL     1       2.720   8.204  17.804  0.00  0.00    +0.000 A 
ATOM     15  C   UNL     1       2.968   7.124  18.665  0.00  0.00    +0.000 A 
ATOM     16  C   UNL     1       2.306   7.095  19.900  0.00  0.00    +0.000 A 
ATOM     17  C   UNL     1       1.418   8.119  20.260  0.00  0.00    +0.000 A 
BRANCH  15  18
ATOM     18  C   UNL     1       3.938   6.078  18.205  0.00  0.00    +0.000 C 
ATOM     19  O   UNL     1       4.404   5.283  19.017  0.00  0.00    +0.000 OA
ATOM     20  N   UNL     1       4.261   6.051  16.856  0.00  0.00    +0.000 N 
ATOM     21  H   UNL     1       3.879   6.736  16.226  0.00  0.00    +0.000 HD
BRANCH  20  22
ATOM     22  C   UNL     1       5.156   5.085  16.301  0.00  0.00    +0.000 C 
ATOM     23  C   UNL     1       5.800   5.314  14.959  0.00  0.00    +0.000 C 
ATOM     24  C   UNL     1       6.625   5.391  16.209  0.00  0.00    +0.000 C 
ENDBRANCH  20  22
ENDBRANCH  15  18
ENDBRANCH   7  12
BRANCH   1  25
ATOM     25  C   UNL     1      -4.899  13.332  19.937  0.00  0.00    +0.000 C 
BRANCH  25  27
ATOM     26  C   UNL     1      -4.907  12.870  22.426  0.00  0.00    +0.000 C 
ATOM     27  C   UNL     1      -5.556  12.537  21.080  0.00  0.00    +0.000 C 
ATOM     28  C   UNL     1      -7.060  12.825  21.163  0.00  0.00    +0.000 C 
ENDBRANCH  25  27
ENDBRANCH   1  25
TORSDOF 5
ENDMDL
MODEL 6
REMARK VINA RESULT:      -7.5      1.111      1.358
REMARK  Name = 
REMARK  7 active torsions:
REMARK  status: ('A' for Active; 'I' for Inactive)
REMARK    1  A    between atoms: C_1  and  C_2
REMARK    2  A    between atoms: C_2  and  C_3
REMARK    3  A    between atoms: C_2  and  C_4
REMARK    4  A    between atoms: C_4  and  N_5
REMARK    5  A    between atoms: C_11  and  C_12
REMARK    6  A    between atoms: C_15  and  C_16
REMARK    7  A    between atoms: N_18  and  C_19
REMARK                            x       y       z     vdW  Elec       q    Type
REMARK                         _______ _______ _______ _____ _____    ______ ____
ROOT
ATOM      1  N   UNL     1      -1.573  11.872  21.958  0.00  0.00    +0.000 N 
ATOM      2  C   UNL     1      -0.603  10.888  21.965  0.00  0.00    +0.000 A 
ATOM      3  N   UNL     1      -0.132  10.421  23.101  0.00  0.00    +0.000 NA
ATOM      4  C   UNL     1       0.827   9.434  23.072  0.00  0.00    +0.000 A 
ATOM      5  C   UNL     1       1.330   8.901  21.944  0.00  0.00    +0.000 A 
ATOM      6  N   UNL     1       0.866   9.373  20.727  0.00  0.00    +0.000 N 
ATOM      7  C   UNL     1       1.170   9.070  19.407  0.00  0.00    +0.000 A 
ATOM      8  C   UNL     1       0.406   9.980  18.684  0.00  0.00    +0.000 A 
ATOM      9  N   UNL     1      -0.372  10.772  19.491  0.00  0.00    +0.000 NA
ATOM     10  C   UNL     1      -0.080  10.365  20.708  0.00  0.00    +0.000 A 
ATOM     11  H   UNL     1      -1.725  12.259  21.031  0.00  0.00    +0.000 HD
ENDROOT
BRANCH   7  12
ATOM     12  C   UNL     1       2.120   8.056  18.945  0.00  0.00    +0.000 A 
ATOM     13  C   UNL     1       2.926   8.277  17.824  0.00  0.00    +0.000 A 
ATOM     14  C   UNL     1       3.774   7.276  17.340  0.00  0.00    +0.000 A 
ATOM     15  C   UNL     1       3.887   6.044  18.003  0.00  0.00    +0.000 A 
ATOM     16  C   UNL     1       3.106   5.834  19.148  0.00  0.00    +0.000 A 
ATOM     17  C   UNL     1       2.235   6.830  19.613  0.00  0.00    +0.000 A 
BRANCH  15  18
ATOM     18  C   UNL     1       4.847   5.039  17.442  0.00  0.00    +0.000 C 
ATOM     19  O   UNL     1       5.272   4.139  18.162  0.00  0.00    +0.000 OA
ATOM     20  N   UNL     1       5.208   5.170  16.110  0.00  0.00    +0.000 N 
ATOM     21  H   UNL     1       4.858   5.936  15.558  0.00  0.00    +0.000 HD
BRANCH  20  22
ATOM     22  C   UNL     1       6.098   4.258  15.463  0.00  0.00    +0.000 C 
ATOM     23  C   UNL     1       5.891   3.872  14.022  0.00  0.00    +0.000 C 
ATOM     24  C   UNL     1       7.042   4.756  14.404  0.00  0.00    +0.000 C 
ENDBRANCH  20  22
ENDBRANCH  15  18
ENDBRANCH   7  12
BRANCH   1  25
ATOM     25  C   UNL     1      -1.716  12.806  23.061  0.00  0.00    +0.000 C 
BRANCH  25  27
ATOM     26  C   UNL     1      -1.658  14.412  21.106  0.00  0.00    +0.000 C 
ATOM     27  C   UNL     1      -2.124  14.199  22.548  0.00  0.00    +0.000 C 
ATOM     28  C   UNL     1      -3.643  14.394  22.620  0.00  0.00    +0.000 C 
ENDBRANCH  25  27
ENDBRANCH   1  25
TORSDOF 5
ENDMDL
MODEL 7
REMARK VINA RESULT:      -7.3      1.155      1.956
REMARK  Name = 
REMARK  7 active torsions:
REMARK  status: ('A' for Active; 'I' for Inactive)
REMARK    1  A    between atoms: C_1  and  C_2
REMARK    2  A    between atoms: C_2  and  C_3
REMARK    3  A    between atoms: C_2  and  C_4
REMARK    4  A    between atoms: C_4  and  N_5
REMARK    5  A    between atoms: C_11  and  C_12
REMARK    6  A    between atoms: C_15  and  C_16
REMARK    7  A    between atoms: N_18  and  C_19
REMARK                            x       y       z     vdW  Elec       q    Type
REMARK                         _______ _______ _______ _____ _____    ______ ____
ROOT
ATOM      1  N   UNL     1      -1.492  12.572  22.247  0.00  0.00    +0.000 N 
ATOM      2  C   UNL     1      -1.147  11.743  21.198  0.00  0.00    +0.000 A 
ATOM      3  N   UNL     1      -1.656  11.933  19.999  0.00  0.00    +0.000 NA
ATOM      4  C   UNL     1      -1.283  11.094  18.974  0.00  0.00    +0.000 A 
ATOM      5  C   UNL     1      -0.420  10.073  19.108  0.00  0.00    +0.000 A 
ATOM      6  N   UNL     1       0.132   9.835  20.357  0.00  0.00    +0.000 N 
ATOM      7  C   UNL     1       1.018   8.883  20.843  0.00  0.00    +0.000 A 
ATOM      8  C   UNL     1       1.074   9.161  22.205  0.00  0.00    +0.000 A 
ATOM      9  N   UNL     1       0.314  10.252  22.550  0.00  0.00    +0.000 NA
ATOM     10  C   UNL     1      -0.220  10.637  21.410  0.00  0.00    +0.000 A 
ATOM     11  H   UNL     1      -1.166  12.218  23.142  0.00  0.00    +0.000 HD
ENDROOT
BRANCH   7  12
ATOM     12  C   UNL     1       1.670   7.826  20.068  0.00  0.00    +0.000 A 
ATOM     13  C   UNL     1       2.242   8.091  18.819  0.00  0.00    +0.000 A 
ATOM     14  C   UNL     1       2.793   7.063  18.049  0.00  0.00    +0.000 A 
ATOM     15  C   UNL     1       2.844   5.747  18.533  0.00  0.00    +0.000 A 
ATOM     16  C   UNL     1       2.304   5.485  19.800  0.00  0.00    +0.000 A 
ATOM     17  C   UNL     1       1.727   6.514  20.557  0.00  0.00    +0.000 A 
BRANCH  15  18
ATOM     18  C   UNL     1       3.486   4.710  17.661  0.00  0.00    +0.000 C 
ATOM     19  O   UNL     1       3.056   3.560  17.668  0.00  0.00    +0.000 OA
ATOM     20  N   UNL     1       4.550   5.109  16.866  0.00  0.00    +0.000 N 
ATOM     21  H   UNL     1       4.891   6.055  16.907  0.00  0.00    +0.000 HD
BRANCH  20  22
ATOM     22  C   UNL     1       5.224   4.213  15.980  0.00  0.00    +0.000 C 
ATOM     23  C   UNL     1       5.791   4.704  14.674  0.00  0.00    +0.000 C 
ATOM     24  C   UNL     1       6.712   4.322  15.795  0.00  0.00    +0.000 C 
ENDBRANCH  20  22
ENDBRANCH  15  18
ENDBRANCH   7  12
BRANCH   1  25
ATOM     25  C   UNL     1      -2.762  13.276  22.274  0.00  0.00    +0.000 C 
BRANCH  25  27
ATOM     26  C   UNL     1      -3.908  15.470  22.804  0.00  0.00    +0.000 C 
ATOM     27  C   UNL     1      -2.591  14.692  22.854  0.00  0.00    +0.000 C 
ATOM     28  C   UNL     1      -2.090  14.641  24.302  0.00  0.00    +0.000 C 
ENDBRANCH  25  27
ENDBRANCH   1  25
TORSDOF 5
ENDMDL
MODEL 8
REMARK VINA RESULT:      -7.3      2.108      2.933
REMARK  Name = 
REMARK  7 active torsions:
REMARK  status: ('A' for Active; 'I' for Inactive)
REMARK    1  A    between atoms: C_1  and  C_2
REMARK    2  A    between atoms: C_2  and  C_3
REMARK    3  A    between atoms: C_2  and  C_4
REMARK    4  A    between atoms: C_4  and  N_5
REMARK    5  A    between atoms: C_11  and  C_12
REMARK    6  A    between atoms: C_15  and  C_16
REMARK    7  A    between atoms: N_18  and  C_19
REMARK                            x       y       z     vdW  Elec       q    Type
REMARK                         _______ _______ _______ _____ _____    ______ ____
ROOT
ATOM      1  N   UNL     1      -3.090  12.677  19.711  0.00  0.00    +0.000 N 
ATOM      2  C   UNL     1      -2.461  11.676  18.997  0.00  0.00    +0.000 A 
ATOM      3  N   UNL     1      -2.974  11.232  17.870  0.00  0.00    +0.000 NA
ATOM      4  C   UNL     1      -2.316  10.241  17.179  0.00  0.00    +0.000 A 
ATOM      5  C   UNL     1      -1.163   9.677  17.580  0.00  0.00    +0.000 A 
ATOM      6  N   UNL     1      -0.595  10.111  18.768  0.00  0.00    +0.000 N 
ATOM      7  C   UNL     1       0.548   9.746  19.468  0.00  0.00    +0.000 A 
ATOM      8  C   UNL     1       0.472  10.513  20.627  0.00  0.00    +0.000 A 
ATOM      9  N   UNL     1      -0.618  11.347  20.635  0.00  0.00    +0.000 NA
ATOM     10  C   UNL     1      -1.222  11.088  19.495  0.00  0.00    +0.000 A 
ATOM     11  H   UNL     1      -2.687  12.806  20.634  0.00  0.00    +0.000 HD
ENDROOT
BRANCH   7  12
ATOM     12  C   UNL     1       1.536   8.746  19.059  0.00  0.00    +0.000 A 
ATOM     13  C   UNL     1       1.834   7.648  19.873  0.00  0.00    +0.000 A 
ATOM     14  C   UNL     1       2.834   6.739  19.515  0.00  0.00    +0.000 A 
ATOM     15  C   UNL     1       3.523   6.868  18.299  0.00  0.00    +0.000 A 
ATOM     16  C   UNL     1       3.201   7.947  17.465  0.00  0.00    +0.000 A 
ATOM     17  C   UNL     1       2.217   8.873  17.842  0.00  0.00    +0.000 A 
BRANCH  15  18
ATOM     18  C   UNL     1       4.554   5.830  17.972  0.00  0.00    +0.000 C 
ATOM     19  O   UNL     1       4.934   5.055  18.846  0.00  0.00    +0.000 OA
ATOM     20  N   UNL     1       5.031   5.787  16.671  0.00  0.00    +0.000 N 
ATOM     21  H   UNL     1       4.714   6.455  15.988  0.00  0.00    +0.000 HD
BRANCH  20  22
ATOM     22  C   UNL     1       5.998   4.827  16.240  0.00  0.00    +0.000 C 
ATOM     23  C   UNL     1       5.762   3.999  15.003  0.00  0.00    +0.000 C 
ATOM     24  C   UNL     1       6.802   5.080  14.995  0.00  0.00    +0.000 C 
ENDBRANCH  20  22
ENDBRANCH  15  18
ENDBRANCH   7  12
BRANCH   1  25
ATOM     25  C   UNL     1      -4.523  12.893  19.614  0.00  0.00    +0.000 C 
BRANCH  25  27
ATOM     26  C   UNL     1      -6.452  12.448  21.191  0.00  0.00    +0.000 C 
ATOM     27  C   UNL     1      -5.126  13.188  21.000  0.00  0.00    +0.000 C 
ATOM     28  C   UNL     1      -4.160  12.788  22.121  0.00  0.00    +0.000 C 
ENDBRANCH  25  27
ENDBRANCH   1  25
TORSDOF 5
ENDMDL
MODEL 9
REMARK VINA RESULT:      -7.3      2.654      3.405
REMARK  Name = 
REMARK  7 active torsions:
REMARK  status: ('A' for Active; 'I' for Inactive)
REMARK    1  A    between atoms: C_1  and  C_2
REMARK    2  A    between atoms: C_2  and  C_3
REMARK    3  A    between atoms: C_2  and  C_4
REMARK    4  A    between atoms: C_4  and  N_5
REMARK    5  A    between atoms: C_11  and  C_12
REMARK    6  A    between atoms: C_15  and  C_16
REMARK    7  A    between atoms: N_18  and  C_19
REMARK                            x       y       z     vdW  Elec       q    Type
REMARK                         _______ _______ _______ _____ _____    ______ ____
ROOT
ATOM      1  N   UNL     1      -4.289  13.244  19.611  0.00  0.00    +0.000 N 
ATOM      2  C   UNL     1      -3.650  12.162  19.038  0.00  0.00    +0.000 A 
ATOM      3  N   UNL     1      -4.218  11.491  18.059  0.00  0.00    +0.000 NA
ATOM      4  C   UNL     1      -3.549  10.424  17.504  0.00  0.00    +0.000 A 
ATOM      5  C   UNL     1      -2.333  10.006  17.896  0.00  0.00    +0.000 A 
ATOM      6  N   UNL     1      -1.705  10.682  18.930  0.00  0.00    +0.000 N 
ATOM      7  C   UNL     1      -0.490  10.514  19.581  0.00  0.00    +0.000 A 
ATOM      8  C   UNL     1      -0.528  11.478  20.584  0.00  0.00    +0.000 A 
ATOM      9  N   UNL     1      -1.668  12.241  20.538  0.00  0.00    +0.000 NA
ATOM     10  C   UNL     1      -2.339  11.743  19.522  0.00  0.00    +0.000 A 
ATOM     11  H   UNL     1      -3.825  13.564  20.457  0.00  0.00    +0.000 HD
ENDROOT
BRANCH   7  12
ATOM     12  C   UNL     1       0.529   9.509  19.274  0.00  0.00    +0.000 A 
ATOM     13  C   UNL     1       0.936   8.575  20.232  0.00  0.00    +0.000 A 
ATOM     14  C   UNL     1       1.965   7.668  19.960  0.00  0.00    +0.000 A 
ATOM     15  C   UNL     1       2.575   7.628  18.697  0.00  0.00    +0.000 A 
ATOM     16  C   UNL     1       2.143   8.540  17.723  0.00  0.00    +0.000 A 
ATOM     17  C   UNL     1       1.131   9.467  18.010  0.00  0.00    +0.000 A 
BRANCH  15  18
ATOM     18  C   UNL     1       3.643   6.601  18.473  0.00  0.00    +0.000 C 
ATOM     19  O   UNL     1       3.970   5.856  19.393  0.00  0.00    +0.000 OA
ATOM     20  N   UNL     1       4.216   6.535  17.212  0.00  0.00    +0.000 N 
ATOM     21  H   UNL     1       3.939   7.179  16.491  0.00  0.00    +0.000 HD
BRANCH  20  22
ATOM     22  C   UNL     1       5.227   5.581  16.878  0.00  0.00    +0.000 C 
ATOM     23  C   UNL     1       4.860   4.250  16.277  0.00  0.00    +0.000 C 
ATOM     24  C   UNL     1       5.536   5.292  15.436  0.00  0.00    +0.000 C 
ENDBRANCH  20  22
ENDBRANCH  15  18
ENDBRANCH   7  12
BRANCH   1  25
ATOM     25  C   UNL     1      -5.737  13.363  19.605  0.00  0.00    +0.000 C 
BRANCH  25  27
ATOM     26  C   UNL     1      -6.930  11.523  20.867  0.00  0.00    +0.000 C 
ATOM     27  C   UNL     1      -6.327  12.927  20.957  0.00  0.00    +0.000 C 
ATOM     28  C   UNL     1      -5.262  12.947  22.060  0.00  0.00    +0.000 C 
ENDBRANCH  25  27
ENDBRANCH   1  25
TORSDOF 5
ENDMDL
