MODEL 1
REMARK VINA RESULT:      -8.1      0.000      0.000
REMARK  Name = 
REMARK  15 active torsions:
REMARK  status: ('A' for Active; 'I' for Inactive)
REMARK    1  A    between atoms: N_3  and  C_4
REMARK    2  A    between atoms: C_6  and  C_7
REMARK    3  A    between atoms: C_7  and  O_8
REMARK    4  A    between atoms: C_7  and  C_9
REMARK    5  A    between atoms: C_9  and  N_10
REMARK    6  A    between atoms: N_10  and  C_11
REMARK    7  A    between atoms: C_11  and  C_12
REMARK    8  A    between atoms: C_12  and  N_13
REMARK    9  A    between atoms: N_13  and  C_14
REMARK   10  A    between atoms: N_22  and  C1*_23
REMARK   11  A    between atoms: C4*_25  and  C5*_26
REMARK   12  A    between atoms: C5*_26  and  O5*_27
REMARK   13  A    between atoms: C3*_28  and  O3*_29
REMARK   14  A    between atoms: C2*_30  and  O2*_31
REMARK   15  A    between atoms: C_34  and  O_35
REMARK                            x       y       z     vdW  Elec       q    Type
REMARK                         _______ _______ _______ _____ _____    ______ ____
ROOT
ATOM      1  N   UNL     1       7.130   8.282  17.145  0.00  0.00    +0.000 N 
ATOM      2  H   UNL     1       7.143   8.676  16.205  0.00  0.00    +0.000 HD
ENDROOT
BRANCH   1   3
ATOM      3  C   UNL     1       6.669   6.964  17.080  0.00  0.00    +0.000 A 
ATOM      4  N   UNL     1       7.484   5.962  16.661  0.00  0.00    +0.000 NA
ATOM      5  C   UNL     1       7.001   4.704  16.622  0.00  0.00    +0.000 A 
ATOM      6  N   UNL     1       5.768   4.272  16.952  0.00  0.00    +0.000 NA
ATOM      7  C   UNL     1       4.995   5.291  17.360  0.00  0.00    +0.000 A 
ATOM      8  C   UNL     1       5.350   6.628  17.444  0.00  0.00    +0.000 A 
ATOM      9  N   UNL     1       4.284   7.394  17.868  0.00  0.00    +0.000 NA
ATOM     10  C   UNL     1       3.301   6.535  18.040  0.00  0.00    +0.000 A 
ATOM     11  N   UNL     1       3.688   5.249  17.760  0.00  0.00    +0.000 N 
BRANCH  11  12
ATOM     12  C1* UNL     1       2.829   4.087  17.838  0.00  0.00    +0.000 C 
ATOM     13  O4* UNL     1       1.550   4.466  18.389  0.00  0.00    +0.000 OA
ATOM     14  C4* UNL     1       1.136   3.454  19.341  0.00  0.00    +0.000 C 
ATOM     15  C3* UNL     1       2.108   2.286  19.190  0.00  0.00    +0.000 C 
ATOM     16  C2* UNL     1       3.383   2.937  18.676  0.00  0.00    +0.000 C 
BRANCH  15  17
ATOM     17  O3* UNL     1       1.664   1.348  18.190  0.00  0.00    +0.000 OA
ATOM     18  H3* UNL     1       1.457   0.497  18.620  0.00  0.00    +0.000 HD
ENDBRANCH  15  17
BRANCH  16  19
ATOM     19  O2* UNL     1       4.155   2.027  17.888  0.00  0.00    +0.000 OA
ATOM     20  H2* UNL     1       4.132   2.373  16.970  0.00  0.00    +0.000 HD
ENDBRANCH  16  19
BRANCH  14  21
ATOM     21  C5* UNL     1       1.122   4.052  20.751  0.00  0.00    +0.000 C 
BRANCH  21  22
ATOM     22  O5* UNL     1       1.687   5.361  20.742  0.00  0.00    +0.000 OA
ATOM     23  H5* UNL     1       2.653   5.246  20.807  0.00  0.00    +0.000 HD
ENDBRANCH  21  22
ENDBRANCH  14  21
ENDBRANCH  11  12
ENDBRANCH   1   3
BRANCH   1  24
ATOM     24  C   UNL     1       8.352   8.465  17.920  0.00  0.00    +0.000 C 
BRANCH  24  25
ATOM     25  C   UNL     1       8.545   9.963  18.217  0.00  0.00    +0.000 C 
BRANCH  25  26
ATOM     26  N   UNL     1       9.313  10.217  19.443  0.00  0.00    +0.000 NA
ATOM     27  H   UNL     1       8.691  10.231  20.256  0.00  0.00    +0.000 HD
BRANCH  26  28
ATOM     28  C   UNL     1       9.991  11.523  19.346  0.00  0.00    +0.000 C 
BRANCH  28  29
ATOM     29  C   UNL     1      10.506  11.839  17.915  0.00  0.00    +0.000 C 
BRANCH  29  32
ATOM     30  C   UNL     1       9.328  15.478  17.629  0.00  0.00    +0.000 A 
ATOM     31  C   UNL     1       9.369  14.106  17.887  0.00  0.00    +0.000 A 
ATOM     32  C   UNL     1      10.510  13.333  17.624  0.00  0.00    +0.000 A 
ATOM     33  C   UNL     1      11.635  13.976  17.091  0.00  0.00    +0.000 A 
ATOM     34  C   UNL     1      11.612  15.354  16.827  0.00  0.00    +0.000 A 
ATOM     35  C   UNL     1      10.460  16.096  17.091  0.00  0.00    +0.000 A 
BRANCH  30  38
ATOM     36  O   UNL     1       6.969  17.763  19.083  0.00  0.00    +0.000 OA
ATOM     37  C   UNL     1       8.029  17.183  18.845  0.00  0.00    +0.000 C 
ATOM     38  N   UNL     1       8.163  16.221  17.889  0.00  0.00    +0.000 N 
ATOM     39  H   UNL     1       7.365  16.074  17.276  0.00  0.00    +0.000 HD
ENDBRANCH  30  38
BRANCH  35  40
ATOM     40  O   UNL     1      10.448  17.444  16.868  0.00  0.00    +0.000 OA
ATOM     41  H   UNL     1       9.866  17.623  16.103  0.00  0.00    +0.000 HD
ENDBRANCH  35  40
ENDBRANCH  29  32
BRANCH  29  42
ATOM     42  O   UNL     1      11.836  11.323  17.762  0.00  0.00    +0.000 OA
ATOM     43  H   UNL     1      12.117  10.954  18.616  0.00  0.00    +0.000 HD
ENDBRANCH  29  42
ENDBRANCH  28  29
ENDBRANCH  26  28
ENDBRANCH  25  26
ENDBRANCH  24  25
ENDBRANCH   1  24
TORSDOF 15
ENDMDL
MODEL 2
REMARK VINA RESULT:      -8.0      6.260      9.906
REMARK  Name = 
REMARK  15 active torsions:
REMARK  status: ('A' for Active; 'I' for Inactive)
REMARK    1  A    between atoms: N_3  and  C_4
REMARK    2  A    between atoms: C_6  and  C_7
REMARK    3  A    between atoms: C_7  and  O_8
REMARK    4  A    between atoms: C_7  and  C_9
REMARK    5  A    between atoms: C_9  and  N_10
REMARK    6  A    between atoms: N_10  and  C_11
REMARK    7  A    between atoms: C_11  and  C_12
REMARK    8  A    between atoms: C_12  and  N_13
REMARK    9  A    between atoms: N_13  and  C_14
REMARK   10  A    between atoms: N_22  and  C1*_23
REMARK   11  A    between atoms: C4*_25  and  C5*_26
REMARK   12  A    between atoms: C5*_26  and  O5*_27
REMARK   13  A    between atoms: C3*_28  and  O3*_29
REMARK   14  A    between atoms: C2*_30  and  O2*_31
REMARK   15  A    between atoms: C_34  and  O_35
REMARK                            x       y       z     vdW  Elec       q    Type
REMARK                         _______ _______ _______ _____ _____    ______ ____
ROOT
ATOM      1  N   UNL     1       2.590   6.146  20.479  0.00  0.00    +0.000 N 
ATOM      2  H   UNL     1       3.441   5.816  20.024  0.00  0.00    +0.000 HD
ENDROOT
BRANCH   1   3
ATOM      3  C   UNL     1       2.153   7.308  19.835  0.00  0.00    +0.000 A 
ATOM      4  N   UNL     1       2.363   7.489  18.506  0.00  0.00    +0.000 NA
ATOM      5  C   UNL     1       1.917   8.620  17.925  0.00  0.00    +0.000 A 
ATOM      6  N   UNL     1       1.261   9.650  18.495  0.00  0.00    +0.000 NA
ATOM      7  C   UNL     1       1.073   9.432  19.806  0.00  0.00    +0.000 A 
ATOM      8  C   UNL     1       1.480   8.328  20.538  0.00  0.00    +0.000 A 
ATOM      9  N   UNL     1       1.147   8.469  21.869  0.00  0.00    +0.000 NA
ATOM     10  C   UNL     1       0.545   9.638  21.942  0.00  0.00    +0.000 A 
ATOM     11  N   UNL     1       0.463  10.250  20.717  0.00  0.00    +0.000 N 
BRANCH  11  12
ATOM     12  C1* UNL     1      -0.126  11.550  20.476  0.00  0.00    +0.000 C 
ATOM     13  O4* UNL     1      -0.289  12.249  21.728  0.00  0.00    +0.000 OA
ATOM     14  C4* UNL     1      -1.585  12.897  21.734  0.00  0.00    +0.000 C 
ATOM     15  C3* UNL     1      -2.143  12.774  20.317  0.00  0.00    +0.000 C 
ATOM     16  C2* UNL     1      -1.482  11.517  19.773  0.00  0.00    +0.000 C 
BRANCH  15  17
ATOM     17  O3* UNL     1      -1.734  13.877  19.485  0.00  0.00    +0.000 OA
ATOM     18  H3* UNL     1      -0.977  13.599  18.936  0.00  0.00    +0.000 HD
ENDBRANCH  15  17
BRANCH  16  19
ATOM     19  O2* UNL     1      -1.346  11.571  18.350  0.00  0.00    +0.000 OA
ATOM     20  H2* UNL     1      -0.589  12.169  18.171  0.00  0.00    +0.000 HD
ENDBRANCH  16  19
BRANCH  14  21
ATOM     21  C5* UNL     1      -2.478  12.248  22.795  0.00  0.00    +0.000 C 
BRANCH  21  22
ATOM     22  O5* UNL     1      -3.844  12.294  22.391  0.00  0.00    +0.000 OA
ATOM     23  H5* UNL     1      -3.844  12.501  21.437  0.00  0.00    +0.000 HD
ENDBRANCH  21  22
ENDBRANCH  14  21
ENDBRANCH  11  12
ENDBRANCH   1   3
BRANCH   1  24
ATOM     24  C   UNL     1       1.557   5.138  20.688  0.00  0.00    +0.000 C 
BRANCH  24  25
ATOM     25  C   UNL     1       2.215   3.831  21.165  0.00  0.00    +0.000 C 
BRANCH  25  26
ATOM     26  N   UNL     1       3.185   3.286  20.206  0.00  0.00    +0.000 NA
ATOM     27  H   UNL     1       4.033   3.861  20.195  0.00  0.00    +0.000 HD
BRANCH  26  28
ATOM     28  C   UNL     1       2.602   3.281  18.852  0.00  0.00    +0.000 C 
BRANCH  28  29
ATOM     29  C   UNL     1       3.574   2.734  17.770  0.00  0.00    +0.000 C 
BRANCH  29  32
ATOM     30  C   UNL     1       6.195   4.635  15.715  0.00  0.00    +0.000 A 
ATOM     31  C   UNL     1       5.213   3.723  16.107  0.00  0.00    +0.000 A 
ATOM     32  C   UNL     1       4.636   3.753  17.385  0.00  0.00    +0.000 A 
ATOM     33  C   UNL     1       5.069   4.738  18.282  0.00  0.00    +0.000 A 
ATOM     34  C   UNL     1       6.055   5.663  17.905  0.00  0.00    +0.000 A 
ATOM     35  C   UNL     1       6.616   5.605  16.629  0.00  0.00    +0.000 A 
BRANCH  30  38
ATOM     36  O   UNL     1       6.810   3.809  12.275  0.00  0.00    +0.000 OA
ATOM     37  C   UNL     1       6.244   3.898  13.364  0.00  0.00    +0.000 C 
ATOM     38  N   UNL     1       6.764   4.568  14.431  0.00  0.00    +0.000 N 
ATOM     39  H   UNL     1       7.606   5.112  14.260  0.00  0.00    +0.000 HD
ENDBRANCH  30  38
BRANCH  35  40
ATOM     40  O   UNL     1       7.550   6.527  16.248  0.00  0.00    +0.000 OA
ATOM     41  H   UNL     1       8.100   6.133  15.542  0.00  0.00    +0.000 HD
ENDBRANCH  35  40
ENDBRANCH  29  32
BRANCH  29  42
ATOM     42  O   UNL     1       4.212   1.546  18.261  0.00  0.00    +0.000 OA
ATOM     43  H   UNL     1       4.771   1.792  19.015  0.00  0.00    +0.000 HD
ENDBRANCH  29  42
ENDBRANCH  28  29
ENDBRANCH  26  28
ENDBRANCH  25  26
ENDBRANCH  24  25
ENDBRANCH   1  24
TORSDOF 15
ENDMDL
MODEL 3
REMARK VINA RESULT:      -8.0      6.183      9.328
REMARK  Name = 
REMARK  15 active torsions:
REMARK  status: ('A' for Active; 'I' for Inactive)
REMARK    1  A    between atoms: N_3  and  C_4
REMARK    2  A    between atoms: C_6  and  C_7
REMARK    3  A    between atoms: C_7  and  O_8
REMARK    4  A    between atoms: C_7  and  C_9
REMARK    5  A    between atoms: C_9  and  N_10
REMARK    6  A    between atoms: N_10  and  C_11
REMARK    7  A    between atoms: C_11  and  C_12
REMARK    8  A    between atoms: C_12  and  N_13
REMARK    9  A    between atoms: N_13  and  C_14
REMARK   10  A    between atoms: N_22  and  C1*_23
REMARK   11  A    between atoms: C4*_25  and  C5*_26
REMARK   12  A    between atoms: C5*_26  and  O5*_27
REMARK   13  A    between atoms: C3*_28  and  O3*_29
REMARK   14  A    between atoms: C2*_30  and  O2*_31
REMARK   15  A    between atoms: C_34  and  O_35
REMARK                            x       y       z     vdW  Elec       q    Type
REMARK                         _______ _______ _______ _____ _____    ______ ____
ROOT
ATOM      1  N   UNL     1       0.607   7.126  21.015  0.00  0.00    +0.000 N 
ATOM      2  H   UNL     1      -0.079   7.250  20.272  0.00  0.00    +0.000 HD
ENDROOT
BRANCH   1   3
ATOM      3  C   UNL     1       1.560   6.190  20.602  0.00  0.00    +0.000 A 
ATOM      4  N   UNL     1       1.672   4.988  21.225  0.00  0.00    +0.000 NA
ATOM      5  C   UNL     1       2.599   4.113  20.787  0.00  0.00    +0.000 A 
ATOM      6  N   UNL     1       3.475   4.261  19.774  0.00  0.00    +0.000 NA
ATOM      7  C   UNL     1       3.332   5.458  19.186  0.00  0.00    +0.000 A 
ATOM      8  C   UNL     1       2.434   6.457  19.529  0.00  0.00    +0.000 A 
ATOM      9  N   UNL     1       2.602   7.566  18.727  0.00  0.00    +0.000 NA
ATOM     10  C   UNL     1       3.583   7.244  17.909  0.00  0.00    +0.000 A 
ATOM     11  N   UNL     1       4.045   5.973  18.139  0.00  0.00    +0.000 N 
BRANCH  11  12
ATOM     12  C1* UNL     1       5.128   5.340  17.417  0.00  0.00    +0.000 C 
ATOM     13  O4* UNL     1       6.004   4.668  18.347  0.00  0.00    +0.000 OA
ATOM     14  C4* UNL     1       7.377   4.923  17.960  0.00  0.00    +0.000 C 
ATOM     15  C3* UNL     1       7.328   5.596  16.589  0.00  0.00    +0.000 C 
ATOM     16  C2* UNL     1       5.975   6.290  16.572  0.00  0.00    +0.000 C 
BRANCH  15  17
ATOM     17  O3* UNL     1       7.337   4.630  15.520  0.00  0.00    +0.000 OA
ATOM     18  H3* UNL     1       7.438   5.097  14.669  0.00  0.00    +0.000 HD
ENDBRANCH  15  17
BRANCH  16  19
ATOM     19  O2* UNL     1       5.468   6.414  15.240  0.00  0.00    +0.000 OA
ATOM     20  H2* UNL     1       4.806   7.139  15.267  0.00  0.00    +0.000 HD
ENDBRANCH  16  19
BRANCH  14  21
ATOM     21  C5* UNL     1       8.061   5.777  19.030  0.00  0.00    +0.000 C 
BRANCH  21  22
ATOM     22  O5* UNL     1       7.693   5.330  20.333  0.00  0.00    +0.000 OA
ATOM     23  H5* UNL     1       7.014   4.641  20.208  0.00  0.00    +0.000 HD
ENDBRANCH  21  22
ENDBRANCH  14  21
ENDBRANCH  11  12
ENDBRANCH   1   3
BRANCH   1  24
ATOM     24  C   UNL     1       1.159   8.356  21.573  0.00  0.00    +0.000 C 
BRANCH  24  25
ATOM     25  C   UNL     1       0.211   9.526  21.257  0.00  0.00    +0.000 C 
BRANCH  25  26
ATOM     26  N   UNL     1       0.916  10.783  20.975  0.00  0.00    +0.000 NA
ATOM     27  H   UNL     1       0.679  11.488  21.679  0.00  0.00    +0.000 HD
BRANCH  26  28
ATOM     28  C   UNL     1       0.522  11.292  19.648  0.00  0.00    +0.000 C 
BRANCH  28  29
ATOM     29  C   UNL     1       0.023  10.175  18.690  0.00  0.00    +0.000 C 
BRANCH  29  32
ATOM     30  C   UNL     1      -3.499  11.658  18.369  0.00  0.00    +0.000 A 
ATOM     31  C   UNL     1      -2.207  11.375  18.818  0.00  0.00    +0.000 A 
ATOM     32  C   UNL     1      -1.375  10.457  18.160  0.00  0.00    +0.000 A 
ATOM     33  C   UNL     1      -1.871   9.818  17.016  0.00  0.00    +0.000 A 
ATOM     34  C   UNL     1      -3.167  10.091  16.550  0.00  0.00    +0.000 A 
ATOM     35  C   UNL     1      -3.975  11.003  17.229  0.00  0.00    +0.000 A 
BRANCH  30  38
ATOM     36  O   UNL     1      -5.481  13.249  20.907  0.00  0.00    +0.000 OA
ATOM     37  C   UNL     1      -4.712  12.458  20.359  0.00  0.00    +0.000 C 
ATOM     38  N   UNL     1      -4.314  12.572  19.061  0.00  0.00    +0.000 N 
ATOM     39  H   UNL     1      -4.585  13.422  18.575  0.00  0.00    +0.000 HD
ENDBRANCH  30  38
BRANCH  35  40
ATOM     40  O   UNL     1      -5.222  11.297  16.757  0.00  0.00    +0.000 OA
ATOM     41  H   UNL     1      -5.195  11.274  15.780  0.00  0.00    +0.000 HD
ENDBRANCH  35  40
ENDBRANCH  29  32
BRANCH  29  42
ATOM     42  O   UNL     1       0.933  10.053  17.587  0.00  0.00    +0.000 OA
ATOM     43  H   UNL     1       0.516   9.493  16.911  0.00  0.00    +0.000 HD
ENDBRANCH  29  42
ENDBRANCH  28  29
ENDBRANCH  26  28
ENDBRANCH  25  26
ENDBRANCH  24  25
ENDBRANCH   1  24
TORSDOF 15
ENDMDL
MODEL 4
REMARK VINA RESULT:      -7.9      5.827      9.550
REMARK  Name = 
REMARK  15 active torsions:
REMARK  status: ('A' for Active; 'I' for Inactive)
REMARK    1  A    between atoms: N_3  and  C_4
REMARK    2  A    between atoms: C_6  and  C_7
REMARK    3  A    between atoms: C_7  and  O_8
REMARK    4  A    between atoms: C_7  and  C_9
REMARK    5  A    between atoms: C_9  and  N_10
REMARK    6  A    between atoms: N_10  and  C_11
REMARK    7  A    between atoms: C_11  and  C_12
REMARK    8  A    between atoms: C_12  and  N_13
REMARK    9  A    between atoms: N_13  and  C_14
REMARK   10  A    between atoms: N_22  and  C1*_23
REMARK   11  A    between atoms: C4*_25  and  C5*_26
REMARK   12  A    between atoms: C5*_26  and  O5*_27
REMARK   13  A    between atoms: C3*_28  and  O3*_29
REMARK   14  A    between atoms: C2*_30  and  O2*_31
REMARK   15  A    between atoms: C_34  and  O_35
REMARK                            x       y       z     vdW  Elec       q    Type
REMARK                         _______ _______ _______ _____ _____    ______ ____
ROOT
ATOM      1  N   UNL     1       2.641   6.116  20.496  0.00  0.00    +0.000 N 
ATOM      2  H   UNL     1       3.546   5.808  20.144  0.00  0.00    +0.000 HD
ENDROOT
BRANCH   1   3
ATOM      3  C   UNL     1       2.228   7.239  19.772  0.00  0.00    +0.000 A 
ATOM      4  N   UNL     1       2.554   7.379  18.461  0.00  0.00    +0.000 NA
ATOM      5  C   UNL     1       2.128   8.473  17.800  0.00  0.00    +0.000 A 
ATOM      6  N   UNL     1       1.392   9.499  18.268  0.00  0.00    +0.000 NA
ATOM      7  C   UNL     1       1.091   9.323  19.564  0.00  0.00    +0.000 A 
ATOM      8  C   UNL     1       1.463   8.259  20.371  0.00  0.00    +0.000 A 
ATOM      9  N   UNL     1       1.005   8.436  21.660  0.00  0.00    +0.000 NA
ATOM     10  C   UNL     1       0.363   9.586  21.633  0.00  0.00    +0.000 A 
ATOM     11  N   UNL     1       0.375  10.151  20.384  0.00  0.00    +0.000 N 
BRANCH  11  12
ATOM     12  C1* UNL     1      -0.229  11.420  20.040  0.00  0.00    +0.000 C 
ATOM     13  O4* UNL     1      -1.593  11.210  19.618  0.00  0.00    +0.000 OA
ATOM     14  C4* UNL     1      -1.853  12.035  18.456  0.00  0.00    +0.000 C 
ATOM     15  C3* UNL     1      -0.653  12.968  18.303  0.00  0.00    +0.000 C 
ATOM     16  C2* UNL     1       0.492  12.195  18.939  0.00  0.00    +0.000 C 
BRANCH  15  17
ATOM     17  O3* UNL     1      -0.826  14.187  19.053  0.00  0.00    +0.000 OA
ATOM     18  H3* UNL     1      -0.076  14.784  18.869  0.00  0.00    +0.000 HD
ENDBRANCH  15  17
BRANCH  16  19
ATOM     19  O2* UNL     1       1.487  13.075  19.471  0.00  0.00    +0.000 OA
ATOM     20  H2* UNL     1       1.877  12.612  20.243  0.00  0.00    +0.000 HD
ENDBRANCH  16  19
BRANCH  14  21
ATOM     21  C5* UNL     1      -2.085  11.143  17.234  0.00  0.00    +0.000 C 
BRANCH  21  22
ATOM     22  O5* UNL     1      -2.214   9.779  17.631  0.00  0.00    +0.000 OA
ATOM     23  H5* UNL     1      -2.982   9.737  18.231  0.00  0.00    +0.000 HD
ENDBRANCH  21  22
ENDBRANCH  14  21
ENDBRANCH  11  12
ENDBRANCH   1   3
BRANCH   1  24
ATOM     24  C   UNL     1       1.631   5.072  20.633  0.00  0.00    +0.000 C 
BRANCH  24  25
ATOM     25  C   UNL     1       1.321   4.483  19.245  0.00  0.00    +0.000 C 
BRANCH  25  26
ATOM     26  N   UNL     1       1.888   3.143  19.044  0.00  0.00    +0.000 NA
ATOM     27  H   UNL     1       2.609   2.954  19.746  0.00  0.00    +0.000 HD
BRANCH  26  28
ATOM     28  C   UNL     1       2.499   3.054  17.705  0.00  0.00    +0.000 C 
BRANCH  28  29
ATOM     29  C   UNL     1       3.969   2.550  17.736  0.00  0.00    +0.000 C 
BRANCH  29  32
ATOM     30  C   UNL     1       6.663   5.100  16.764  0.00  0.00    +0.000 A 
ATOM     31  C   UNL     1       5.732   4.060  16.716  0.00  0.00    +0.000 A 
ATOM     32  C   UNL     1       4.966   3.696  17.833  0.00  0.00    +0.000 A 
ATOM     33  C   UNL     1       5.150   4.413  19.023  0.00  0.00    +0.000 A 
ATOM     34  C   UNL     1       6.079   5.461  19.088  0.00  0.00    +0.000 A 
ATOM     35  C   UNL     1       6.834   5.797  17.963  0.00  0.00    +0.000 A 
BRANCH  30  38
ATOM     36  O   UNL     1       7.797   5.449  13.374  0.00  0.00    +0.000 OA
ATOM     37  C   UNL     1       7.067   5.205  14.335  0.00  0.00    +0.000 C 
ATOM     38  N   UNL     1       7.427   5.430  15.630  0.00  0.00    +0.000 N 
ATOM     39  H   UNL     1       8.298   5.932  15.779  0.00  0.00    +0.000 HD
ENDBRANCH  30  38
BRANCH  35  40
ATOM     40  O   UNL     1       7.714   6.840  18.014  0.00  0.00    +0.000 OA
ATOM     41  H   UNL     1       7.882   7.054  18.954  0.00  0.00    +0.000 HD
ENDBRANCH  35  40
ENDBRANCH  29  32
BRANCH  29  42
ATOM     42  O   UNL     1       4.146   1.671  18.856  0.00  0.00    +0.000 OA
ATOM     43  H   UNL     1       4.545   2.180  19.581  0.00  0.00    +0.000 HD
ENDBRANCH  29  42
ENDBRANCH  28  29
ENDBRANCH  26  28
ENDBRANCH  25  26
ENDBRANCH  24  25
ENDBRANCH   1  24
TORSDOF 15
ENDMDL
MODEL 5
REMARK VINA RESULT:      -7.8      5.446      9.355
REMARK  Name = 
REMARK  15 active torsions:
REMARK  status: ('A' for Active; 'I' for Inactive)
REMARK    1  A    between atoms: N_3  and  C_4
REMARK    2  A    between atoms: C_6  and  C_7
REMARK    3  A    between atoms: C_7  and  O_8
REMARK    4  A    between atoms: C_7  and  C_9
REMARK    5  A    between atoms: C_9  and  N_10
REMARK    6  A    between atoms: N_10  and  C_11
REMARK    7  A    between atoms: C_11  and  C_12
REMARK    8  A    between atoms: C_12  and  N_13
REMARK    9  A    between atoms: N_13  and  C_14
REMARK   10  A    between atoms: N_22  and  C1*_23
REMARK   11  A    between atoms: C4*_25  and  C5*_26
REMARK   12  A    between atoms: C5*_26  and  O5*_27
REMARK   13  A    between atoms: C3*_28  and  O3*_29
REMARK   14  A    between atoms: C2*_30  and  O2*_31
REMARK   15  A    between atoms: C_34  and  O_35
REMARK                            x       y       z     vdW  Elec       q    Type
REMARK                         _______ _______ _______ _____ _____    ______ ____
ROOT
ATOM      1  N   UNL     1       2.753   5.680  20.371  0.00  0.00    +0.000 N 
ATOM      2  H   UNL     1       3.417   5.125  19.831  0.00  0.00    +0.000 HD
ENDROOT
BRANCH   1   3
ATOM      3  C   UNL     1       2.393   6.808  19.627  0.00  0.00    +0.000 A 
ATOM      4  N   UNL     1       2.635   6.868  18.292  0.00  0.00    +0.000 NA
ATOM      5  C   UNL     1       2.263   7.971  17.613  0.00  0.00    +0.000 A 
ATOM      6  N   UNL     1       1.658   9.078  18.084  0.00  0.00    +0.000 NA
ATOM      7  C   UNL     1       1.436   8.979  19.404  0.00  0.00    +0.000 A 
ATOM      8  C   UNL     1       1.768   7.917  20.230  0.00  0.00    +0.000 A 
ATOM      9  N   UNL     1       1.421   8.184  21.539  0.00  0.00    +0.000 NA
ATOM     10  C   UNL     1       0.885   9.387  21.505  0.00  0.00    +0.000 A 
ATOM     11  N   UNL     1       0.858   9.901  20.233  0.00  0.00    +0.000 N 
BRANCH  11  12
ATOM     12  C1* UNL     1       0.348  11.207  19.876  0.00  0.00    +0.000 C 
ATOM     13  O4* UNL     1       0.275  12.038  21.053  0.00  0.00    +0.000 OA
ATOM     14  C4* UNL     1      -0.975  12.771  21.028  0.00  0.00    +0.000 C 
ATOM     15  C3* UNL     1      -1.589  12.545  19.648  0.00  0.00    +0.000 C 
ATOM     16  C2* UNL     1      -1.030  11.197  19.218  0.00  0.00    +0.000 C 
BRANCH  15  17
ATOM     17  O3* UNL     1      -1.137  13.528  18.696  0.00  0.00    +0.000 OA
ATOM     18  H3* UNL     1      -1.057  13.108  17.818  0.00  0.00    +0.000 HD
ENDBRANCH  15  17
BRANCH  16  19
ATOM     19  O2* UNL     1      -0.941  11.098  17.794  0.00  0.00    +0.000 OA
ATOM     20  H2* UNL     1      -0.037  11.397  17.556  0.00  0.00    +0.000 HD
ENDBRANCH  16  19
BRANCH  14  21
ATOM     21  C5* UNL     1      -1.872  12.296  22.175  0.00  0.00    +0.000 C 
BRANCH  21  22
ATOM     22  O5* UNL     1      -1.082  11.779  23.243  0.00  0.00    +0.000 OA
ATOM     23  H5* UNL     1      -1.659  11.176  23.748  0.00  0.00    +0.000 HD
ENDBRANCH  21  22
ENDBRANCH  14  21
ENDBRANCH  11  12
ENDBRANCH   1   3
BRANCH   1  24
ATOM     24  C   UNL     1       1.632   4.940  20.940  0.00  0.00    +0.000 C 
BRANCH  24  25
ATOM     25  C   UNL     1       1.037   4.014  19.864  0.00  0.00    +0.000 C 
BRANCH  25  26
ATOM     26  N   UNL     1       1.996   3.660  18.809  0.00  0.00    +0.000 NA
ATOM     27  H   UNL     1       1.516   3.570  17.909  0.00  0.00    +0.000 HD
BRANCH  26  28
ATOM     28  C   UNL     1       2.641   2.374  19.130  0.00  0.00    +0.000 C 
BRANCH  28  29
ATOM     29  C   UNL     1       4.185   2.405  18.958  0.00  0.00    +0.000 C 
BRANCH  29  32
ATOM     30  C   UNL     1       5.788   5.566  17.493  0.00  0.00    +0.000 A 
ATOM     31  C   UNL     1       5.367   4.573  18.380  0.00  0.00    +0.000 A 
ATOM     32  C   UNL     1       4.629   3.458  17.954  0.00  0.00    +0.000 A 
ATOM     33  C   UNL     1       4.320   3.353  16.591  0.00  0.00    +0.000 A 
ATOM     34  C   UNL     1       4.736   4.341  15.686  0.00  0.00    +0.000 A 
ATOM     35  C   UNL     1       5.462   5.443  16.140  0.00  0.00    +0.000 A 
BRANCH  30  38
ATOM     36  O   UNL     1       8.429   7.682  18.696  0.00  0.00    +0.000 OA
ATOM     37  C   UNL     1       7.847   6.703  18.229  0.00  0.00    +0.000 C 
ATOM     38  N   UNL     1       6.512   6.679  17.956  0.00  0.00    +0.000 N 
ATOM     39  H   UNL     1       6.015   7.562  18.042  0.00  0.00    +0.000 HD
ENDBRANCH  30  38
BRANCH  35  40
ATOM     40  O   UNL     1       5.899   6.388  15.255  0.00  0.00    +0.000 OA
ATOM     41  H   UNL     1       5.158   6.614  14.657  0.00  0.00    +0.000 HD
ENDBRANCH  35  40
ENDBRANCH  29  32
BRANCH  29  42
ATOM     42  O   UNL     1       4.800   2.670  20.227  0.00  0.00    +0.000 OA
ATOM     43  H   UNL     1       5.258   1.864  20.516  0.00  0.00    +0.000 HD
ENDBRANCH  29  42
ENDBRANCH  28  29
ENDBRANCH  26  28
ENDBRANCH  25  26
ENDBRANCH  24  25
ENDBRANCH   1  24
TORSDOF 15
ENDMDL
MODEL 6
REMARK VINA RESULT:      -7.8      1.405      1.486
REMARK  Name = 
REMARK  15 active torsions:
REMARK  status: ('A' for Active; 'I' for Inactive)
REMARK    1  A    between atoms: N_3  and  C_4
REMARK    2  A    between atoms: C_6  and  C_7
REMARK    3  A    between atoms: C_7  and  O_8
REMARK    4  A    between atoms: C_7  and  C_9
REMARK    5  A    between atoms: C_9  and  N_10
REMARK    6  A    between atoms: N_10  and  C_11
REMARK    7  A    between atoms: C_11  and  C_12
REMARK    8  A    between atoms: C_12  and  N_13
REMARK    9  A    between atoms: N_13  and  C_14
REMARK   10  A    between atoms: N_22  and  C1*_23
REMARK   11  A    between atoms: C4*_25  and  C5*_26
REMARK   12  A    between atoms: C5*_26  and  O5*_27
REMARK   13  A    between atoms: C3*_28  and  O3*_29
REMARK   14  A    between atoms: C2*_30  and  O2*_31
REMARK   15  A    between atoms: C_34  and  O_35
REMARK                            x       y       z     vdW  Elec       q    Type
REMARK                         _______ _______ _______ _____ _____    ______ ____
ROOT
ATOM      1  N   UNL     1       6.636   7.479  16.666  0.00  0.00    +0.000 N 
ATOM      2  H   UNL     1       6.830   7.705  15.691  0.00  0.00    +0.000 HD
ENDROOT
BRANCH   1   3
ATOM      3  C   UNL     1       5.941   6.267  16.723  0.00  0.00    +0.000 A 
ATOM      4  N   UNL     1       6.480   5.131  16.212  0.00  0.00    +0.000 NA
ATOM      5  C   UNL     1       5.778   3.983  16.296  0.00  0.00    +0.000 A 
ATOM      6  N   UNL     1       4.560   3.787  16.838  0.00  0.00    +0.000 NA
ATOM      7  C   UNL     1       4.063   4.932  17.332  0.00  0.00    +0.000 A 
ATOM      8  C   UNL     1       4.663   6.181  17.310  0.00  0.00    +0.000 A 
ATOM      9  N   UNL     1       3.839   7.132  17.875  0.00  0.00    +0.000 NA
ATOM     10  C   UNL     1       2.759   6.469  18.236  0.00  0.00    +0.000 A 
ATOM     11  N   UNL     1       2.856   5.133  17.942  0.00  0.00    +0.000 N 
BRANCH  11  12
ATOM     12  C1* UNL     1       1.827   4.149  18.200  0.00  0.00    +0.000 C 
ATOM     13  O4* UNL     1       1.128   4.485  19.418  0.00  0.00    +0.000 OA
ATOM     14  C4* UNL     1       0.920   3.273  20.184  0.00  0.00    +0.000 C 
ATOM     15  C3* UNL     1       1.310   2.108  19.277  0.00  0.00    +0.000 C 
ATOM     16  C2* UNL     1       2.331   2.713  18.325  0.00  0.00    +0.000 C 
BRANCH  15  17
ATOM     17  O3* UNL     1       0.195   1.651  18.486  0.00  0.00    +0.000 OA
ATOM     18  H3* UNL     1       0.080   0.691  18.621  0.00  0.00    +0.000 HD
ENDBRANCH  15  17
BRANCH  16  19
ATOM     19  O2* UNL     1       2.337   2.038  17.064  0.00  0.00    +0.000 OA
ATOM     20  H2* UNL     1       1.414   2.073  16.732  0.00  0.00    +0.000 HD
ENDBRANCH  16  19
BRANCH  14  21
ATOM     21  C5* UNL     1       1.741   3.336  21.476  0.00  0.00    +0.000 C 
BRANCH  21  22
ATOM     22  O5* UNL     1       2.496   4.544  21.527  0.00  0.00    +0.000 OA
ATOM     23  H5* UNL     1       2.672   4.720  22.470  0.00  0.00    +0.000 HD
ENDBRANCH  21  22
ENDBRANCH  14  21
ENDBRANCH  11  12
ENDBRANCH   1   3
BRANCH   1  24
ATOM     24  C   UNL     1       7.777   7.572  17.570  0.00  0.00    +0.000 C 
BRANCH  24  25
ATOM     25  C   UNL     1       7.980   9.041  17.981  0.00  0.00    +0.000 C 
BRANCH  25  26
ATOM     26  N   UNL     1       9.096   9.233  18.916  0.00  0.00    +0.000 NA
ATOM     27  H   UNL     1       8.959   8.661  19.754  0.00  0.00    +0.000 HD
BRANCH  26  28
ATOM     28  C   UNL     1       9.172  10.649  19.320  0.00  0.00    +0.000 C 
BRANCH  28  29
ATOM     29  C   UNL     1      10.344  11.415  18.645  0.00  0.00    +0.000 C 
BRANCH  29  32
ATOM     30  C   UNL     1       8.440  14.640  17.818  0.00  0.00    +0.000 A 
ATOM     31  C   UNL     1       8.766  13.295  18.008  0.00  0.00    +0.000 A 
ATOM     32  C   UNL     1      10.032  12.893  18.460  0.00  0.00    +0.000 A 
ATOM     33  C   UNL     1      10.984  13.885  18.727  0.00  0.00    +0.000 A 
ATOM     34  C   UNL     1      10.673  15.241  18.542  0.00  0.00    +0.000 A 
ATOM     35  C   UNL     1       9.408  15.611  18.085  0.00  0.00    +0.000 A 
BRANCH  30  38
ATOM     36  O   UNL     1       4.894  15.147  17.559  0.00  0.00    +0.000 OA
ATOM     37  C   UNL     1       5.996  14.872  18.034  0.00  0.00    +0.000 C 
ATOM     38  N   UNL     1       7.166  15.008  17.349  0.00  0.00    +0.000 N 
ATOM     39  H   UNL     1       7.113  15.471  16.445  0.00  0.00    +0.000 HD
ENDBRANCH  30  38
BRANCH  35  40
ATOM     40  O   UNL     1       9.092  16.932  17.939  0.00  0.00    +0.000 OA
ATOM     41  H   UNL     1       9.845  17.382  17.505  0.00  0.00    +0.000 HD
ENDBRANCH  35  40
ENDBRANCH  29  32
BRANCH  29  42
ATOM     42  O   UNL     1      11.526  11.277  19.447  0.00  0.00    +0.000 OA
ATOM     43  H   UNL     1      11.939  10.424  19.233  0.00  0.00    +0.000 HD
ENDBRANCH  29  42
ENDBRANCH  28  29
ENDBRANCH  26  28
ENDBRANCH  25  26
ENDBRANCH  24  25
ENDBRANCH   1  24
TORSDOF 15
ENDMDL
MODEL 7
REMARK VINA RESULT:      -7.8      5.050      9.233
REMARK  Name = 
REMARK  15 active torsions:
REMARK  status: ('A' for Active; 'I' for Inactive)
REMARK    1  A    between atoms: N_3  and  C_4
REMARK    2  A    between atoms: C_6  and  C_7
REMARK    3  A    between atoms: C_7  and  O_8
REMARK    4  A    between atoms: C_7  and  C_9
REMARK    5  A    between atoms: C_9  and  N_10
REMARK    6  A    between atoms: N_10  and  C_11
REMARK    7  A    between atoms: C_11  and  C_12
REMARK    8  A    between atoms: C_12  and  N_13
REMARK    9  A    between atoms: N_13  and  C_14
REMARK   10  A    between atoms: N_22  and  C1*_23
REMARK   11  A    between atoms: C4*_25  and  C5*_26
REMARK   12  A    between atoms: C5*_26  and  O5*_27
REMARK   13  A    between atoms: C3*_28  and  O3*_29
REMARK   14  A    between atoms: C2*_30  and  O2*_31
REMARK   15  A    between atoms: C_34  and  O_35
REMARK                            x       y       z     vdW  Elec       q    Type
REMARK                         _______ _______ _______ _____ _____    ______ ____
ROOT
ATOM      1  N   UNL     1       2.521   6.034  20.513  0.00  0.00    +0.000 N 
ATOM      2  H   UNL     1       3.531   5.897  20.502  0.00  0.00    +0.000 HD
ENDROOT
BRANCH   1   3
ATOM      3  C   UNL     1       2.211   7.184  19.780  0.00  0.00    +0.000 A 
ATOM      4  N   UNL     1       2.630   7.325  18.496  0.00  0.00    +0.000 NA
ATOM      5  C   UNL     1       2.301   8.446  17.825  0.00  0.00    +0.000 A 
ATOM      6  N   UNL     1       1.584   9.501  18.260  0.00  0.00    +0.000 NA
ATOM      7  C   UNL     1       1.189   9.322  19.530  0.00  0.00    +0.000 A 
ATOM      8  C   UNL     1       1.457   8.233  20.343  0.00  0.00    +0.000 A 
ATOM      9  N   UNL     1       0.923   8.415  21.602  0.00  0.00    +0.000 NA
ATOM     10  C   UNL     1       0.339   9.594  21.551  0.00  0.00    +0.000 A 
ATOM     11  N   UNL     1       0.460  10.174  20.314  0.00  0.00    +0.000 N 
BRANCH  11  12
ATOM     12  C1* UNL     1      -0.060  11.475  19.951  0.00  0.00    +0.000 C 
ATOM     13  O4* UNL     1      -1.495  11.402  19.812  0.00  0.00    +0.000 OA
ATOM     14  C4* UNL     1      -1.886  12.150  18.634  0.00  0.00    +0.000 C 
ATOM     15  C3* UNL     1      -0.646  12.908  18.163  0.00  0.00    +0.000 C 
ATOM     16  C2* UNL     1       0.512  12.054  18.659  0.00  0.00    +0.000 C 
BRANCH  15  17
ATOM     17  O3* UNL     1      -0.537  14.199  18.795  0.00  0.00    +0.000 OA
ATOM     18  H3* UNL     1       0.051  14.766  18.261  0.00  0.00    +0.000 HD
ENDBRANCH  15  17
BRANCH  16  19
ATOM     19  O2* UNL     1       1.679  12.844  18.899  0.00  0.00    +0.000 OA
ATOM     20  H2* UNL     1       1.374  13.776  18.939  0.00  0.00    +0.000 HD
ENDBRANCH  16  19
BRANCH  14  21
ATOM     21  C5* UNL     1      -2.447  11.192  17.580  0.00  0.00    +0.000 C 
BRANCH  21  22
ATOM     22  O5* UNL     1      -3.745  10.741  17.958  0.00  0.00    +0.000 OA
ATOM     23  H5* UNL     1      -3.613  10.071  18.656  0.00  0.00    +0.000 HD
ENDBRANCH  21  22
ENDBRANCH  14  21
ENDBRANCH  11  12
ENDBRANCH   1   3
BRANCH   1  24
ATOM     24  C   UNL     1       1.724   4.860  20.174  0.00  0.00    +0.000 C 
BRANCH  24  25
ATOM     25  C   UNL     1       2.517   3.590  20.528  0.00  0.00    +0.000 C 
BRANCH  25  26
ATOM     26  N   UNL     1       3.900   3.614  20.036  0.00  0.00    +0.000 NA
ATOM     27  H   UNL     1       4.240   4.579  19.981  0.00  0.00    +0.000 HD
BRANCH  26  28
ATOM     28  C   UNL     1       3.963   3.015  18.689  0.00  0.00    +0.000 C 
BRANCH  28  29
ATOM     29  C   UNL     1       3.544   4.000  17.563  0.00  0.00    +0.000 C 
BRANCH  29  32
ATOM     30  C   UNL     1       6.688   5.767  16.259  0.00  0.00    +0.000 A 
ATOM     31  C   UNL     1       5.605   5.386  17.055  0.00  0.00    +0.000 A 
ATOM     32  C   UNL     1       4.713   4.376  16.665  0.00  0.00    +0.000 A 
ATOM     33  C   UNL     1       4.935   3.737  15.438  0.00  0.00    +0.000 A 
ATOM     34  C   UNL     1       6.017   4.107  14.625  0.00  0.00    +0.000 A 
ATOM     35  C   UNL     1       6.884   5.121  15.036  0.00  0.00    +0.000 A 
BRANCH  30  38
ATOM     36  O   UNL     1       8.352   8.266  18.229  0.00  0.00    +0.000 OA
ATOM     37  C   UNL     1       7.624   7.320  17.927  0.00  0.00    +0.000 C 
ATOM     38  N   UNL     1       7.554   6.795  16.672  0.00  0.00    +0.000 N 
ATOM     39  H   UNL     1       8.230   7.141  15.996  0.00  0.00    +0.000 HD
ENDBRANCH  30  38
BRANCH  35  40
ATOM     40  O   UNL     1       7.959   5.457  14.263  0.00  0.00    +0.000 OA
ATOM     41  H   UNL     1       8.445   6.178  14.710  0.00  0.00    +0.000 HD
ENDBRANCH  35  40
ENDBRANCH  29  32
BRANCH  29  42
ATOM     42  O   UNL     1       2.510   3.401  16.768  0.00  0.00    +0.000 OA
ATOM     43  H   UNL     1       1.702   3.929  16.874  0.00  0.00    +0.000 HD
ENDBRANCH  29  42
ENDBRANCH  28  29
ENDBRANCH  26  28
ENDBRANCH  25  26
ENDBRANCH  24  25
ENDBRANCH   1  24
TORSDOF 15
ENDMDL
MODEL 8
REMARK VINA RESULT:      -7.8      1.458      1.749
REMARK  Name = 
REMARK  15 active torsions:
REMARK  status: ('A' for Active; 'I' for Inactive)
REMARK    1  A    between atoms: N_3  and  C_4
REMARK    2  A    between atoms: C_6  and  C_7
REMARK    3  A    between atoms: C_7  and  O_8
REMARK    4  A    between atoms: C_7  and  C_9
REMARK    5  A    between atoms: C_9  and  N_10
REMARK    6  A    between atoms: N_10  and  C_11
REMARK    7  A    between atoms: C_11  and  C_12
REMARK    8  A    between atoms: C_12  and  N_13
REMARK    9  A    between atoms: N_13  and  C_14
REMARK   10  A    between atoms: N_22  and  C1*_23
REMARK   11  A    between atoms: C4*_25  and  C5*_26
REMARK   12  A    between atoms: C5*_26  and  O5*_27
REMARK   13  A    between atoms: C3*_28  and  O3*_29
REMARK   14  A    between atoms: C2*_30  and  O2*_31
REMARK   15  A    between atoms: C_34  and  O_35
REMARK                            x       y       z     vdW  Elec       q    Type
REMARK                         _______ _______ _______ _____ _____    ______ ____
ROOT
ATOM      1  N   UNL     1       8.184   6.744  17.942  0.00  0.00    +0.000 N 
ATOM      2  H   UNL     1       8.611   5.952  18.421  0.00  0.00    +0.000 HD
ENDROOT
BRANCH   1   3
ATOM      3  C   UNL     1       6.922   6.366  17.473  0.00  0.00    +0.000 A 
ATOM      4  N   UNL     1       6.416   6.900  16.331  0.00  0.00    +0.000 NA
ATOM      5  C   UNL     1       5.199   6.501  15.912  0.00  0.00    +0.000 A 
ATOM      6  N   UNL     1       4.369   5.607  16.484  0.00  0.00    +0.000 NA
ATOM      7  C   UNL     1       4.906   5.103  17.607  0.00  0.00    +0.000 A 
ATOM      8  C   UNL     1       6.135   5.422  18.162  0.00  0.00    +0.000 A 
ATOM      9  N   UNL     1       6.336   4.735  19.340  0.00  0.00    +0.000 NA
ATOM     10  C   UNL     1       5.248   4.008  19.495  0.00  0.00    +0.000 A 
ATOM     11  N   UNL     1       4.362   4.186  18.463  0.00  0.00    +0.000 N 
BRANCH  11  12
ATOM     12  C1* UNL     1       3.071   3.541  18.356  0.00  0.00    +0.000 C 
ATOM     13  O4* UNL     1       2.066   4.358  18.993  0.00  0.00    +0.000 OA
ATOM     14  C4* UNL     1       1.188   3.500  19.764  0.00  0.00    +0.000 C 
ATOM     15  C3* UNL     1       1.542   2.062  19.390  0.00  0.00    +0.000 C 
ATOM     16  C2* UNL     1       3.002   2.144  18.969  0.00  0.00    +0.000 C 
BRANCH  15  17
ATOM     17  O3* UNL     1       0.785   1.605  18.252  0.00  0.00    +0.000 OA
ATOM     18  H3* UNL     1       0.631   2.357  17.649  0.00  0.00    +0.000 HD
ENDBRANCH  15  17
BRANCH  16  19
ATOM     19  O2* UNL     1       3.330   1.128  18.017  0.00  0.00    +0.000 OA
ATOM     20  H2* UNL     1       4.290   1.221  17.838  0.00  0.00    +0.000 HD
ENDBRANCH  16  19
BRANCH  14  21
ATOM     21  C5* UNL     1       1.361   3.798  21.256  0.00  0.00    +0.000 C 
BRANCH  21  22
ATOM     22  O5* UNL     1       2.340   4.815  21.451  0.00  0.00    +0.000 OA
ATOM     23  H5* UNL     1       2.157   5.506  20.786  0.00  0.00    +0.000 HD
ENDBRANCH  21  22
ENDBRANCH  14  21
ENDBRANCH  11  12
ENDBRANCH   1   3
BRANCH   1  24
ATOM     24  C   UNL     1       8.213   8.008  18.669  0.00  0.00    +0.000 C 
BRANCH  24  25
ATOM     25  C   UNL     1       8.167   9.173  17.664  0.00  0.00    +0.000 C 
BRANCH  25  26
ATOM     26  N   UNL     1       8.528  10.467  18.259  0.00  0.00    +0.000 NA
ATOM     27  H   UNL     1       9.004  11.054  17.568  0.00  0.00    +0.000 HD
BRANCH  26  28
ATOM     28  C   UNL     1       9.436  10.256  19.402  0.00  0.00    +0.000 C 
BRANCH  28  29
ATOM     29  C   UNL     1       9.953  11.583  20.025  0.00  0.00    +0.000 C 
BRANCH  29  32
ATOM     30  C   UNL     1       9.754  14.693  17.789  0.00  0.00    +0.000 A 
ATOM     31  C   UNL     1       9.472  13.726  18.757  0.00  0.00    +0.000 A 
ATOM     32  C   UNL     1      10.304  12.615  18.963  0.00  0.00    +0.000 A 
ATOM     33  C   UNL     1      11.451  12.492  18.168  0.00  0.00    +0.000 A 
ATOM     34  C   UNL     1      11.750  13.454  17.191  0.00  0.00    +0.000 A 
ATOM     35  C   UNL     1      10.900  14.545  17.003  0.00  0.00    +0.000 A 
BRANCH  30  38
ATOM     36  O   UNL     1       8.042  17.824  18.192  0.00  0.00    +0.000 OA
ATOM     37  C   UNL     1       8.860  16.918  18.355  0.00  0.00    +0.000 C 
ATOM     38  N   UNL     1       8.891  15.786  17.597  0.00  0.00    +0.000 N 
ATOM     39  H   UNL     1       8.274  15.763  16.789  0.00  0.00    +0.000 HD
ENDBRANCH  30  38
BRANCH  35  40
ATOM     40  O   UNL     1      11.208  15.501  16.078  0.00  0.00    +0.000 OA
ATOM     41  H   UNL     1      12.092  15.300  15.711  0.00  0.00    +0.000 HD
ENDBRANCH  35  40
ENDBRANCH  29  32
BRANCH  29  42
ATOM     42  O   UNL     1       8.949  12.122  20.897  0.00  0.00    +0.000 OA
ATOM     43  H   UNL     1       9.347  12.847  21.405  0.00  0.00    +0.000 HD
ENDBRANCH  29  42
ENDBRANCH  28  29
ENDBRANCH  26  28
ENDBRANCH  25  26
ENDBRANCH  24  25
ENDBRANCH   1  24
TORSDOF 15
ENDMDL
MODEL 9
REMARK VINA RESULT:      -7.7      5.531      9.797
REMARK  Name = 
REMARK  15 active torsions:
REMARK  status: ('A' for Active; 'I' for Inactive)
REMARK    1  A    between atoms: N_3  and  C_4
REMARK    2  A    between atoms: C_6  and  C_7
REMARK    3  A    between atoms: C_7  and  O_8
REMARK    4  A    between atoms: C_7  and  C_9
REMARK    5  A    between atoms: C_9  and  N_10
REMARK    6  A    between atoms: N_10  and  C_11
REMARK    7  A    between atoms: C_11  and  C_12
REMARK    8  A    between atoms: C_12  and  N_13
REMARK    9  A    between atoms: N_13  and  C_14
REMARK   10  A    between atoms: N_22  and  C1*_23
REMARK   11  A    between atoms: C4*_25  and  C5*_26
REMARK   12  A    between atoms: C5*_26  and  O5*_27
REMARK   13  A    between atoms: C3*_28  and  O3*_29
REMARK   14  A    between atoms: C2*_30  and  O2*_31
REMARK   15  A    between atoms: C_34  and  O_35
REMARK                            x       y       z     vdW  Elec       q    Type
REMARK                         _______ _______ _______ _____ _____    ______ ____
ROOT
ATOM      1  N   UNL     1       1.972   7.085  20.322  0.00  0.00    +0.000 N 
ATOM      2  H   UNL     1       2.218   7.148  21.309  0.00  0.00    +0.000 HD
ENDROOT
BRANCH   1   3
ATOM      3  C   UNL     1       1.609   8.355  19.862  0.00  0.00    +0.000 A 
ATOM      4  N   UNL     1       2.027   8.802  18.650  0.00  0.00    +0.000 NA
ATOM      5  C   UNL     1       1.647  10.029  18.243  0.00  0.00    +0.000 A 
ATOM      6  N   UNL     1       0.876  10.923  18.892  0.00  0.00    +0.000 NA
ATOM      7  C   UNL     1       0.484  10.444  20.083  0.00  0.00    +0.000 A 
ATOM      8  C   UNL     1       0.801   9.213  20.634  0.00  0.00    +0.000 A 
ATOM      9  N   UNL     1       0.252   9.081  21.893  0.00  0.00    +0.000 NA
ATOM     10  C   UNL     1      -0.390  10.213  22.099  0.00  0.00    +0.000 A 
ATOM     11  N   UNL     1      -0.290  11.062  21.026  0.00  0.00    +0.000 N 
BRANCH  11  12
ATOM     12  C1* UNL     1      -0.872  12.385  20.957  0.00  0.00    +0.000 C 
ATOM     13  O4* UNL     1      -1.400  12.751  22.250  0.00  0.00    +0.000 OA
ATOM     14  C4* UNL     1      -2.688  13.387  22.063  0.00  0.00    +0.000 C 
ATOM     15  C3* UNL     1      -2.846  13.626  20.562  0.00  0.00    +0.000 C 
ATOM     16  C2* UNL     1      -1.990  12.539  19.929  0.00  0.00    +0.000 C 
BRANCH  15  17
ATOM     17  O3* UNL     1      -2.299  14.899  20.165  0.00  0.00    +0.000 OA
ATOM     18  H3* UNL     1      -2.842  15.613  20.548  0.00  0.00    +0.000 HD
ENDBRANCH  15  17
BRANCH  16  19
ATOM     19  O2* UNL     1      -1.488  12.946  18.653  0.00  0.00    +0.000 OA
ATOM     20  H2* UNL     1      -0.877  13.694  18.825  0.00  0.00    +0.000 HD
ENDBRANCH  16  19
BRANCH  14  21
ATOM     21  C5* UNL     1      -3.789  12.502  22.654  0.00  0.00    +0.000 C 
BRANCH  21  22
ATOM     22  O5* UNL     1      -3.337  11.883  23.857  0.00  0.00    +0.000 OA
ATOM     23  H5* UNL     1      -2.385  11.709  23.737  0.00  0.00    +0.000 HD
ENDBRANCH  21  22
ENDBRANCH  14  21
ENDBRANCH  11  12
ENDBRANCH   1   3
BRANCH   1  24
ATOM     24  C   UNL     1       2.931   6.381  19.478  0.00  0.00    +0.000 C 
BRANCH  24  25
ATOM     25  C   UNL     1       2.170   5.515  18.459  0.00  0.00    +0.000 C 
BRANCH  25  26
ATOM     26  N   UNL     1       2.345   4.073  18.678  0.00  0.00    +0.000 NA
ATOM     27  H   UNL     1       3.007   3.907  19.441  0.00  0.00    +0.000 HD
BRANCH  26  28
ATOM     28  C   UNL     1       2.870   3.441  17.453  0.00  0.00    +0.000 C 
BRANCH  28  29
ATOM     29  C   UNL     1       4.338   2.954  17.599  0.00  0.00    +0.000 C 
BRANCH  29  32
ATOM     30  C   UNL     1       6.935   5.402  16.194  0.00  0.00    +0.000 A 
ATOM     31  C   UNL     1       6.068   4.727  17.057  0.00  0.00    +0.000 A 
ATOM     32  C   UNL     1       5.274   3.654  16.625  0.00  0.00    +0.000 A 
ATOM     33  C   UNL     1       5.372   3.257  15.285  0.00  0.00    +0.000 A 
ATOM     34  C   UNL     1       6.239   3.923  14.404  0.00  0.00    +0.000 A 
ATOM     35  C   UNL     1       7.010   4.993  14.860  0.00  0.00    +0.000 A 
BRANCH  30  38
ATOM     36  O   UNL     1       7.942   8.483  17.740  0.00  0.00    +0.000 OA
ATOM     37  C   UNL     1       7.247   7.520  17.414  0.00  0.00    +0.000 C 
ATOM     38  N   UNL     1       7.705   6.485  16.655  0.00  0.00    +0.000 N 
ATOM     39  H   UNL     1       8.702   6.470  16.459  0.00  0.00    +0.000 HD
ENDBRANCH  30  38
BRANCH  35  40
ATOM     40  O   UNL     1       7.881   5.619  14.014  0.00  0.00    +0.000 OA
ATOM     41  H   UNL     1       8.620   5.007  13.824  0.00  0.00    +0.000 HD
ENDBRANCH  35  40
ENDBRANCH  29  32
BRANCH  29  42
ATOM     42  O   UNL     1       4.787   3.191  18.941  0.00  0.00    +0.000 OA
ATOM     43  H   UNL     1       4.729   2.354  19.432  0.00  0.00    +0.000 HD
ENDBRANCH  29  42
ENDBRANCH  28  29
ENDBRANCH  26  28
ENDBRANCH  25  26
ENDBRANCH  24  25
ENDBRANCH   1  24
TORSDOF 15
ENDMDL
