MODEL 1
REMARK VINA RESULT:      -7.8      0.000      0.000
REMARK  Name = 
REMARK  5 active torsions:
REMARK  status: ('A' for Active; 'I' for Inactive)
REMARK    1  A    between atoms: C_2  and  C_3
REMARK    2  A    between atoms: C_8  and  C_10
REMARK    3  A    between atoms: C_13  and  C_14
REMARK    4  A    between atoms: C_17  and  C_18
REMARK    5  A    between atoms: C_18  and  O_20
REMARK                            x       y       z     vdW  Elec       q    Type
REMARK                         _______ _______ _______ _____ _____    ______ ____
ROOT
ATOM      1  C   UNL     1       1.009   9.161  19.915  0.00  0.00    +0.000 A 
ATOM      2  C   UNL     1       1.568   8.040  20.537  0.00  0.00    +0.000 A 
ATOM      3  C   UNL     1       2.407   7.173  19.816  0.00  0.00    +0.000 A 
ATOM      4  C   UNL     1       2.717   7.404  18.461  0.00  0.00    +0.000 A 
ATOM      5  C   UNL     1       2.066   8.478  17.840  0.00  0.00    +0.000 A 
ATOM      6  C   UNL     1       1.210   9.324  18.547  0.00  0.00    +0.000 A 
ENDROOT
BRANCH   1  12
ATOM      7  C   UNL     1      -1.480  13.118  20.133  0.00  0.00    +0.000 C 
ATOM      8  C   UNL     1      -0.466  13.892  19.264  0.00  0.00    +0.000 C 
ATOM      9  C   UNL     1       0.643  12.974  18.746  0.00  0.00    +0.000 C 
ATOM     10  C   UNL     1       1.298  12.223  19.908  0.00  0.00    +0.000 C 
ATOM     11  N   UNL     1       0.269  11.462  20.621  0.00  0.00    +0.000 N 
ATOM     12  C   UNL     1       0.126  10.072  20.697  0.00  0.00    +0.000 C 
ATOM     13  O   UNL     1      -0.735   9.546  21.401  0.00  0.00    +0.000 OA
ATOM     14  C   UNL     1      -0.766  12.306  21.222  0.00  0.00    +0.000 C 
BRANCH   7  16
ATOM     15  N   UNL     1      -3.194  14.797  21.206  0.00  0.00    +0.000 NA
ATOM     16  C   UNL     1      -2.441  14.046  20.742  0.00  0.00    +0.000 C 
ENDBRANCH   7  16
ENDBRANCH   1  12
BRANCH   4  17
ATOM     17  C   UNL     1       3.610   6.500  17.699  0.00  0.00    +0.000 A 
ATOM     18  N   UNL     1       4.724   7.115  17.209  0.00  0.00    +0.000 NA
ATOM     19  C   UNL     1       5.652   6.359  16.572  0.00  0.00    +0.000 A 
ATOM     20  C   UNL     1       5.552   4.987  16.420  0.00  0.00    +0.000 A 
ATOM     21  C   UNL     1       4.396   4.360  16.880  0.00  0.00    +0.000 A 
ATOM     22  C   UNL     1       3.407   5.122  17.510  0.00  0.00    +0.000 A 
ATOM     23 CL   UNL     1       1.963   4.277  17.954  0.00  0.00    +0.000 Cl
BRANCH  20  24
ATOM     24  C   UNL     1       6.636   4.270  15.728  0.00  0.00    +0.000 C 
ATOM     25  O   UNL     1       7.805   4.383  16.057  0.00  0.00    +0.000 OA
BRANCH  24  26
ATOM     26  O   UNL     1       6.224   3.466  14.727  0.00  0.00    +0.000 OA
ATOM     27  H   UNL     1       5.512   2.837  14.931  0.00  0.00    +0.000 HD
ENDBRANCH  24  26
ENDBRANCH  20  24
ENDBRANCH   4  17
TORSDOF 5
ENDMDL
MODEL 2
REMARK VINA RESULT:      -7.6      2.523      3.176
REMARK  Name = 
REMARK  5 active torsions:
REMARK  status: ('A' for Active; 'I' for Inactive)
REMARK    1  A    between atoms: C_2  and  C_3
REMARK    2  A    between atoms: C_8  and  C_10
REMARK    3  A    between atoms: C_13  and  C_14
REMARK    4  A    between atoms: C_17  and  C_18
REMARK    5  A    between atoms: C_18  and  O_20
REMARK                            x       y       z     vdW  Elec       q    Type
REMARK                         _______ _______ _______ _____ _____    ______ ____
ROOT
ATOM      1  C   UNL     1       0.588  10.085  19.765  0.00  0.00    +0.000 A 
ATOM      2  C   UNL     1       1.125   9.684  18.538  0.00  0.00    +0.000 A 
ATOM      3  C   UNL     1       1.800   8.456  18.425  0.00  0.00    +0.000 A 
ATOM      4  C   UNL     1       1.950   7.594  19.530  0.00  0.00    +0.000 A 
ATOM      5  C   UNL     1       1.487   8.066  20.766  0.00  0.00    +0.000 A 
ATOM      6  C   UNL     1       0.842   9.297  20.885  0.00  0.00    +0.000 A 
ENDROOT
BRANCH   1  12
ATOM      7  C   UNL     1       0.404  14.648  18.741  0.00  0.00    +0.000 C 
ATOM      8  C   UNL     1       1.933  14.815  18.866  0.00  0.00    +0.000 C 
ATOM      9  C   UNL     1       2.624  13.471  19.113  0.00  0.00    +0.000 C 
ATOM     10  C   UNL     1       1.996  12.764  20.316  0.00  0.00    +0.000 C 
ATOM     11  N   UNL     1       0.564  12.586  20.067  0.00  0.00    +0.000 N 
ATOM     12  C   UNL     1      -0.130  11.388  19.863  0.00  0.00    +0.000 C 
ATOM     13  O   UNL     1      -1.355  11.359  19.747  0.00  0.00    +0.000 OA
ATOM     14  C   UNL     1      -0.162  13.849  19.922  0.00  0.00    +0.000 C 
BRANCH   7  16
ATOM     15  N   UNL     1      -0.739  17.009  18.585  0.00  0.00    +0.000 NA
ATOM     16  C   UNL     1      -0.246  15.962  18.661  0.00  0.00    +0.000 C 
ENDBRANCH   7  16
ENDBRANCH   1  12
BRANCH   4  17
ATOM     17  C   UNL     1       2.651   6.293  19.415  0.00  0.00    +0.000 A 
ATOM     18  N   UNL     1       2.253   5.373  20.339  0.00  0.00    +0.000 NA
ATOM     19  C   UNL     1       2.767   4.120  20.267  0.00  0.00    +0.000 A 
ATOM     20  C   UNL     1       3.650   3.708  19.283  0.00  0.00    +0.000 A 
ATOM     21  C   UNL     1       4.093   4.655  18.363  0.00  0.00    +0.000 A 
ATOM     22  C   UNL     1       3.605   5.965  18.437  0.00  0.00    +0.000 A 
ATOM     23 CL   UNL     1       4.289   7.096  17.320  0.00  0.00    +0.000 Cl
BRANCH  20  24
ATOM     24  C   UNL     1       4.123   2.314  19.295  0.00  0.00    +0.000 C 
ATOM     25  O   UNL     1       3.586   1.439  18.636  0.00  0.00    +0.000 OA
BRANCH  24  26
ATOM     26  O   UNL     1       5.206   2.098  20.068  0.00  0.00    +0.000 OA
ATOM     27  H   UNL     1       6.054   2.450  19.749  0.00  0.00    +0.000 HD
ENDBRANCH  24  26
ENDBRANCH  20  24
ENDBRANCH   4  17
TORSDOF 5
ENDMDL
MODEL 3
REMARK VINA RESULT:      -7.6      0.955      1.389
REMARK  Name = 
REMARK  5 active torsions:
REMARK  status: ('A' for Active; 'I' for Inactive)
REMARK    1  A    between atoms: C_2  and  C_3
REMARK    2  A    between atoms: C_8  and  C_10
REMARK    3  A    between atoms: C_13  and  C_14
REMARK    4  A    between atoms: C_17  and  C_18
REMARK    5  A    between atoms: C_18  and  O_20
REMARK                            x       y       z     vdW  Elec       q    Type
REMARK                         _______ _______ _______ _____ _____    ______ ____
ROOT
ATOM      1  C   UNL     1       1.072   8.396  20.407  0.00  0.00    +0.000 A 
ATOM      2  C   UNL     1       1.339   8.933  19.144  0.00  0.00    +0.000 A 
ATOM      3  C   UNL     1       2.181   8.255  18.247  0.00  0.00    +0.000 A 
ATOM      4  C   UNL     1       2.774   7.021  18.583  0.00  0.00    +0.000 A 
ATOM      5  C   UNL     1       2.566   6.556  19.888  0.00  0.00    +0.000 A 
ATOM      6  C   UNL     1       1.752   7.242  20.789  0.00  0.00    +0.000 A 
ENDROOT
BRANCH   1  12
ATOM      7  C   UNL     1      -1.667  12.092  21.266  0.00  0.00    +0.000 C 
ATOM      8  C   UNL     1      -0.754  13.049  20.471  0.00  0.00    +0.000 C 
ATOM      9  C   UNL     1       0.388  12.292  19.787  0.00  0.00    +0.000 C 
ATOM     10  C   UNL     1       1.150  11.444  20.808  0.00  0.00    +0.000 C 
ATOM     11  N   UNL     1       0.213  10.521  21.451  0.00  0.00    +0.000 N 
ATOM     12  C   UNL     1       0.170   9.126  21.342  0.00  0.00    +0.000 C 
ATOM     13  O   UNL     1      -0.617   8.448  22.002  0.00  0.00    +0.000 OA
ATOM     14  C   UNL     1      -0.845  11.198  22.204  0.00  0.00    +0.000 C 
BRANCH   7  16
ATOM     15  N   UNL     1      -3.456  13.440  22.640  0.00  0.00    +0.000 NA
ATOM     16  C   UNL     1      -2.657  12.856  22.035  0.00  0.00    +0.000 C 
ENDBRANCH   7  16
ENDBRANCH   1  12
BRANCH   4  17
ATOM     17  C   UNL     1       3.655   6.295  17.637  0.00  0.00    +0.000 A 
ATOM     18  N   UNL     1       4.641   7.069  17.102  0.00  0.00    +0.000 NA
ATOM     19  C   UNL     1       5.557   6.481  16.293  0.00  0.00    +0.000 A 
ATOM     20  C   UNL     1       5.569   5.127  16.004  0.00  0.00    +0.000 A 
ATOM     21  C   UNL     1       4.539   4.340  16.512  0.00  0.00    +0.000 A 
ATOM     22  C   UNL     1       3.561   4.928  17.322  0.00  0.00    +0.000 A 
ATOM     23 CL   UNL     1       2.265   3.895  17.822  0.00  0.00    +0.000 Cl
BRANCH  20  24
ATOM     24  C   UNL     1       6.629   4.599  15.128  0.00  0.00    +0.000 C 
ATOM     25  O   UNL     1       7.653   5.221  14.899  0.00  0.00    +0.000 OA
BRANCH  24  26
ATOM     26  O   UNL     1       6.381   3.372  14.629  0.00  0.00    +0.000 OA
ATOM     27  H   UNL     1       5.620   3.283  14.031  0.00  0.00    +0.000 HD
ENDBRANCH  24  26
ENDBRANCH  20  24
ENDBRANCH   4  17
TORSDOF 5
ENDMDL
MODEL 4
REMARK VINA RESULT:      -7.5      0.754      1.218
REMARK  Name = 
REMARK  5 active torsions:
REMARK  status: ('A' for Active; 'I' for Inactive)
REMARK    1  A    between atoms: C_2  and  C_3
REMARK    2  A    between atoms: C_8  and  C_10
REMARK    3  A    between atoms: C_13  and  C_14
REMARK    4  A    between atoms: C_17  and  C_18
REMARK    5  A    between atoms: C_18  and  O_20
REMARK                            x       y       z     vdW  Elec       q    Type
REMARK                         _______ _______ _______ _____ _____    ______ ____
ROOT
ATOM      1  C   UNL     1       0.873   9.546  19.607  0.00  0.00    +0.000 A 
ATOM      2  C   UNL     1       1.312   9.734  18.293  0.00  0.00    +0.000 A 
ATOM      3  C   UNL     1       2.179   8.804  17.693  0.00  0.00    +0.000 A 
ATOM      4  C   UNL     1       2.624   7.660  18.385  0.00  0.00    +0.000 A 
ATOM      5  C   UNL     1       2.247   7.549  19.730  0.00  0.00    +0.000 A 
ATOM      6  C   UNL     1       1.409   8.487  20.335  0.00  0.00    +0.000 A 
ENDROOT
BRANCH   1  12
ATOM      7  C   UNL     1      -0.630  13.967  19.918  0.00  0.00    +0.000 C 
ATOM      8  C   UNL     1       0.786  14.543  19.704  0.00  0.00    +0.000 C 
ATOM      9  C   UNL     1       1.800  13.437  19.404  0.00  0.00    +0.000 C 
ATOM     10  C   UNL     1       1.748  12.360  20.490  0.00  0.00    +0.000 C 
ATOM     11  N   UNL     1       0.387  11.825  20.563  0.00  0.00    +0.000 N 
ATOM     12  C   UNL     1      -0.051  10.540  20.223  0.00  0.00    +0.000 C 
ATOM     13  O   UNL     1      -1.213  10.180  20.409  0.00  0.00    +0.000 OA
ATOM     14  C   UNL     1      -0.612  12.827  20.944  0.00  0.00    +0.000 C 
BRANCH   7  16
ATOM     15  N   UNL     1      -2.255  15.873  20.713  0.00  0.00    +0.000 NA
ATOM     16  C   UNL     1      -1.549  15.026  20.355  0.00  0.00    +0.000 C 
ENDBRANCH   7  16
ENDBRANCH   1  12
BRANCH   4  17
ATOM     17  C   UNL     1       3.529   6.669  17.755  0.00  0.00    +0.000 A 
ATOM     18  N   UNL     1       4.723   7.193  17.357  0.00  0.00    +0.000 NA
ATOM     19  C   UNL     1       5.660   6.354  16.848  0.00  0.00    +0.000 A 
ATOM     20  C   UNL     1       5.487   4.985  16.743  0.00  0.00    +0.000 A 
ATOM     21  C   UNL     1       4.254   4.450  17.107  0.00  0.00    +0.000 A 
ATOM     22  C   UNL     1       3.257   5.299  17.602  0.00  0.00    +0.000 A 
ATOM     23 CL   UNL     1       1.726   4.563  17.932  0.00  0.00    +0.000 Cl
BRANCH  20  24
ATOM     24  C   UNL     1       6.586   4.173  16.194  0.00  0.00    +0.000 C 
ATOM     25  O   UNL     1       7.758   4.464  16.365  0.00  0.00    +0.000 OA
BRANCH  24  26
ATOM     26  O   UNL     1       6.187   3.078  15.517  0.00  0.00    +0.000 OA
ATOM     27  H   UNL     1       5.237   2.873  15.529  0.00  0.00    +0.000 HD
ENDBRANCH  24  26
ENDBRANCH  20  24
ENDBRANCH   4  17
TORSDOF 5
ENDMDL
MODEL 5
REMARK VINA RESULT:      -7.4      1.505      1.679
REMARK  Name = 
REMARK  5 active torsions:
REMARK  status: ('A' for Active; 'I' for Inactive)
REMARK    1  A    between atoms: C_2  and  C_3
REMARK    2  A    between atoms: C_8  and  C_10
REMARK    3  A    between atoms: C_13  and  C_14
REMARK    4  A    between atoms: C_17  and  C_18
REMARK    5  A    between atoms: C_18  and  O_20
REMARK                            x       y       z     vdW  Elec       q    Type
REMARK                         _______ _______ _______ _____ _____    ______ ____
ROOT
ATOM      1  C   UNL     1       0.734   9.700  19.585  0.00  0.00    +0.000 A 
ATOM      2  C   UNL     1       1.191   8.623  20.351  0.00  0.00    +0.000 A 
ATOM      3  C   UNL     1       2.049   7.663  19.787  0.00  0.00    +0.000 A 
ATOM      4  C   UNL     1       2.479   7.756  18.449  0.00  0.00    +0.000 A 
ATOM      5  C   UNL     1       1.928   8.789  17.679  0.00  0.00    +0.000 A 
ATOM      6  C   UNL     1       1.055   9.727  18.230  0.00  0.00    +0.000 A 
ENDROOT
BRANCH   1  12
ATOM      7  C   UNL     1      -3.445  11.803  19.697  0.00  0.00    +0.000 C 
ATOM      8  C   UNL     1      -3.601  11.742  18.163  0.00  0.00    +0.000 C 
ATOM      9  C   UNL     1      -2.449  10.972  17.514  0.00  0.00    +0.000 C 
ATOM     10  C   UNL     1      -1.104  11.553  17.958  0.00  0.00    +0.000 C 
ATOM     11  N   UNL     1      -1.023  11.497  19.419  0.00  0.00    +0.000 N 
ATOM     12  C   UNL     1      -0.170  10.712  20.203  0.00  0.00    +0.000 C 
ATOM     13  O   UNL     1      -0.136  10.814  21.429  0.00  0.00    +0.000 OA
ATOM     14  C   UNL     1      -2.047  12.300  20.090  0.00  0.00    +0.000 C 
BRANCH   7  16
ATOM     15  N   UNL     1      -5.281  13.381  20.720  0.00  0.00    +0.000 NA
ATOM     16  C   UNL     1      -4.474  12.675  20.279  0.00  0.00    +0.000 C 
ENDBRANCH   7  16
ENDBRANCH   1  12
BRANCH   4  17
ATOM     17  C   UNL     1       3.393   6.753  17.851  0.00  0.00    +0.000 A 
ATOM     18  N   UNL     1       4.577   7.276  17.423  0.00  0.00    +0.000 NA
ATOM     19  C   UNL     1       5.520   6.430  16.941  0.00  0.00    +0.000 A 
ATOM     20  C   UNL     1       5.365   5.056  16.891  0.00  0.00    +0.000 A 
ATOM     21  C   UNL     1       4.142   4.520  17.286  0.00  0.00    +0.000 A 
ATOM     22  C   UNL     1       3.138   5.374  17.754  0.00  0.00    +0.000 A 
ATOM     23 CL   UNL     1       1.618   4.631  18.123  0.00  0.00    +0.000 Cl
BRANCH  20  24
ATOM     24  C   UNL     1       6.471   4.237  16.366  0.00  0.00    +0.000 C 
ATOM     25  O   UNL     1       7.641   4.533  16.545  0.00  0.00    +0.000 OA
BRANCH  24  26
ATOM     26  O   UNL     1       6.081   3.131  15.702  0.00  0.00    +0.000 OA
ATOM     27  H   UNL     1       5.237   3.178  15.223  0.00  0.00    +0.000 HD
ENDBRANCH  24  26
ENDBRANCH  20  24
ENDBRANCH   4  17
TORSDOF 5
ENDMDL
MODEL 6
REMARK VINA RESULT:      -7.3      2.395      2.788
REMARK  Name = 
REMARK  5 active torsions:
REMARK  status: ('A' for Active; 'I' for Inactive)
REMARK    1  A    between atoms: C_2  and  C_3
REMARK    2  A    between atoms: C_8  and  C_10
REMARK    3  A    between atoms: C_13  and  C_14
REMARK    4  A    between atoms: C_17  and  C_18
REMARK    5  A    between atoms: C_18  and  O_20
REMARK                            x       y       z     vdW  Elec       q    Type
REMARK                         _______ _______ _______ _____ _____    ______ ____
ROOT
ATOM      1  C   UNL     1       0.189  10.015  19.372  0.00  0.00    +0.000 A 
ATOM      2  C   UNL     1       0.781   9.919  18.108  0.00  0.00    +0.000 A 
ATOM      3  C   UNL     1       1.744   8.929  17.848  0.00  0.00    +0.000 A 
ATOM      4  C   UNL     1       2.138   8.006  18.838  0.00  0.00    +0.000 A 
ATOM      5  C   UNL     1       1.601   8.188  20.119  0.00  0.00    +0.000 A 
ATOM      6  C   UNL     1       0.665   9.187  20.386  0.00  0.00    +0.000 A 
ENDROOT
BRANCH   1  12
ATOM      7  C   UNL     1      -4.249  11.455  19.016  0.00  0.00    +0.000 C 
ATOM      8  C   UNL     1      -4.438  10.778  17.642  0.00  0.00    +0.000 C 
ATOM      9  C   UNL     1      -3.204   9.965  17.245  0.00  0.00    +0.000 C 
ATOM     10  C   UNL     1      -1.948  10.837  17.317  0.00  0.00    +0.000 C 
ATOM     11  N   UNL     1      -1.817  11.369  18.676  0.00  0.00    +0.000 N 
ATOM     12  C   UNL     1      -0.836  11.066  19.627  0.00  0.00    +0.000 C 
ATOM     13  O   UNL     1      -0.783  11.645  20.711  0.00  0.00    +0.000 OA
ATOM     14  C   UNL     1      -2.930  12.236  19.069  0.00  0.00    +0.000 C 
BRANCH   7  16
ATOM     15  N   UNL     1      -6.271  13.062  19.502  0.00  0.00    +0.000 NA
ATOM     16  C   UNL     1      -5.378  12.350  19.302  0.00  0.00    +0.000 C 
ENDBRANCH   7  16
ENDBRANCH   1  12
BRANCH   4  17
ATOM     17  C   UNL     1       3.145   6.953  18.567  0.00  0.00    +0.000 A 
ATOM     18  N   UNL     1       3.970   7.240  17.520  0.00  0.00    +0.000 NA
ATOM     19  C   UNL     1       4.984   6.383  17.242  0.00  0.00    +0.000 A 
ATOM     20  C   UNL     1       5.255   5.248  17.987  0.00  0.00    +0.000 A 
ATOM     21  C   UNL     1       4.390   4.928  19.031  0.00  0.00    +0.000 A 
ATOM     22  C   UNL     1       3.315   5.775  19.315  0.00  0.00    +0.000 A 
ATOM     23 CL   UNL     1       2.236   5.244  20.560  0.00  0.00    +0.000 Cl
BRANCH  20  24
ATOM     24  C   UNL     1       6.400   4.406  17.602  0.00  0.00    +0.000 C 
ATOM     25  O   UNL     1       7.455   4.424  18.213  0.00  0.00    +0.000 OA
BRANCH  24  26
ATOM     26  O   UNL     1       6.172   3.603  16.543  0.00  0.00    +0.000 OA
ATOM     27  H   UNL     1       6.415   3.947  15.668  0.00  0.00    +0.000 HD
ENDBRANCH  24  26
ENDBRANCH  20  24
ENDBRANCH   4  17
TORSDOF 5
ENDMDL
MODEL 7
REMARK VINA RESULT:      -7.1      3.243      9.537
REMARK  Name = 
REMARK  5 active torsions:
REMARK  status: ('A' for Active; 'I' for Inactive)
REMARK    1  A    between atoms: C_2  and  C_3
REMARK    2  A    between atoms: C_8  and  C_10
REMARK    3  A    between atoms: C_13  and  C_14
REMARK    4  A    between atoms: C_17  and  C_18
REMARK    5  A    between atoms: C_18  and  O_20
REMARK                            x       y       z     vdW  Elec       q    Type
REMARK                         _______ _______ _______ _____ _____    ______ ____
ROOT
ATOM      1  C   UNL     1       2.219   7.648  19.202  0.00  0.00    +0.000 A 
ATOM      2  C   UNL     1       1.717   7.895  20.484  0.00  0.00    +0.000 A 
ATOM      3  C   UNL     1       0.876   8.997  20.718  0.00  0.00    +0.000 A 
ATOM      4  C   UNL     1       0.510   9.877  19.680  0.00  0.00    +0.000 A 
ATOM      5  C   UNL     1       1.105   9.661  18.430  0.00  0.00    +0.000 A 
ATOM      6  C   UNL     1       1.961   8.583  18.203  0.00  0.00    +0.000 A 
ENDROOT
BRANCH   1  12
ATOM      7  C   UNL     1       2.694   3.009  18.816  0.00  0.00    +0.000 C 
ATOM      8  C   UNL     1       1.626   2.733  19.894  0.00  0.00    +0.000 C 
ATOM      9  C   UNL     1       0.962   4.029  20.367  0.00  0.00    +0.000 C 
ATOM     10  C   UNL     1       2.023   5.037  20.816  0.00  0.00    +0.000 C 
ATOM     11  N   UNL     1       2.940   5.287  19.702  0.00  0.00    +0.000 N 
ATOM     12  C   UNL     1       3.103   6.470  18.972  0.00  0.00    +0.000 C 
ATOM     13  O   UNL     1       3.971   6.586  18.108  0.00  0.00    +0.000 OA
ATOM     14  C   UNL     1       3.676   4.095  19.275  0.00  0.00    +0.000 C 
BRANCH   7  16
ATOM     15  N   UNL     1       3.994   0.793  18.263  0.00  0.00    +0.000 NA
ATOM     16  C   UNL     1       3.422   1.774  18.493  0.00  0.00    +0.000 C 
ENDBRANCH   7  16
ENDBRANCH   1  12
BRANCH   4  17
ATOM     17  C   UNL     1      -0.385  11.035  19.918  0.00  0.00    +0.000 A 
ATOM     18  N   UNL     1       0.085  11.908  20.853  0.00  0.00    +0.000 NA
ATOM     19  C   UNL     1      -0.614  13.047  21.083  0.00  0.00    +0.000 A 
ATOM     20  C   UNL     1      -1.763  13.395  20.394  0.00  0.00    +0.000 A 
ATOM     21  C   UNL     1      -2.271  12.487  19.468  0.00  0.00    +0.000 A 
ATOM     22  C   UNL     1      -1.589  11.287  19.237  0.00  0.00    +0.000 A 
ATOM     23 CL   UNL     1      -2.348  10.177  18.148  0.00  0.00    +0.000 Cl
BRANCH  20  24
ATOM     24  C   UNL     1      -2.423  14.671  20.716  0.00  0.00    +0.000 C 
ATOM     25  O   UNL     1      -3.224  14.776  21.630  0.00  0.00    +0.000 OA
BRANCH  24  26
ATOM     26  O   UNL     1      -2.049  15.706  19.938  0.00  0.00    +0.000 OA
ATOM     27  H   UNL     1      -2.464  15.772  19.061  0.00  0.00    +0.000 HD
ENDBRANCH  24  26
ENDBRANCH  20  24
ENDBRANCH   4  17
TORSDOF 5
ENDMDL
MODEL 8
REMARK VINA RESULT:      -7.1      2.495      3.196
REMARK  Name = 
REMARK  5 active torsions:
REMARK  status: ('A' for Active; 'I' for Inactive)
REMARK    1  A    between atoms: C_2  and  C_3
REMARK    2  A    between atoms: C_8  and  C_10
REMARK    3  A    between atoms: C_13  and  C_14
REMARK    4  A    between atoms: C_17  and  C_18
REMARK    5  A    between atoms: C_18  and  O_20
REMARK                            x       y       z     vdW  Elec       q    Type
REMARK                         _______ _______ _______ _____ _____    ______ ____
ROOT
ATOM      1  C   UNL     1       0.614  10.046  20.339  0.00  0.00    +0.000 A 
ATOM      2  C   UNL     1       1.222   9.799  19.104  0.00  0.00    +0.000 A 
ATOM      3  C   UNL     1       1.863   8.572  18.861  0.00  0.00    +0.000 A 
ATOM      4  C   UNL     1       1.911   7.559  19.839  0.00  0.00    +0.000 A 
ATOM      5  C   UNL     1       1.380   7.872  21.098  0.00  0.00    +0.000 A 
ATOM      6  C   UNL     1       0.767   9.100  21.349  0.00  0.00    +0.000 A 
ENDROOT
BRANCH   1  12
ATOM      7  C   UNL     1      -3.289  12.621  20.144  0.00  0.00    +0.000 C 
ATOM      8  C   UNL     1      -3.759  11.946  18.838  0.00  0.00    +0.000 C 
ATOM      9  C   UNL     1      -2.823  10.807  18.429  0.00  0.00    +0.000 C 
ATOM     10  C   UNL     1      -1.377  11.305  18.361  0.00  0.00    +0.000 C 
ATOM     11  N   UNL     1      -1.003  11.856  19.665  0.00  0.00    +0.000 N 
ATOM     12  C   UNL     1      -0.068  11.350  20.575  0.00  0.00    +0.000 C 
ATOM     13  O   UNL     1       0.223  11.952  21.609  0.00  0.00    +0.000 OA
ATOM     14  C   UNL     1      -1.808  13.014  20.059  0.00  0.00    +0.000 C 
BRANCH   7  16
ATOM     15  N   UNL     1      -4.751  14.749  20.632  0.00  0.00    +0.000 NA
ATOM     16  C   UNL     1      -4.110  13.805  20.429  0.00  0.00    +0.000 C 
ENDBRANCH   7  16
ENDBRANCH   1  12
BRANCH   4  17
ATOM     17  C   UNL     1       2.577   6.260  19.585  0.00  0.00    +0.000 A 
ATOM     18  N   UNL     1       2.228   5.283  20.470  0.00  0.00    +0.000 NA
ATOM     19  C   UNL     1       2.712   4.031  20.275  0.00  0.00    +0.000 A 
ATOM     20  C   UNL     1       3.515   3.677  19.205  0.00  0.00    +0.000 A 
ATOM     21  C   UNL     1       3.910   4.680  18.323  0.00  0.00    +0.000 A 
ATOM     22  C   UNL     1       3.454   5.987  18.521  0.00  0.00    +0.000 A 
ATOM     23 CL   UNL     1       4.078   7.184  17.437  0.00  0.00    +0.000 Cl
BRANCH  20  24
ATOM     24  C   UNL     1       3.962   2.279  19.087  0.00  0.00    +0.000 C 
ATOM     25  O   UNL     1       3.338   1.448  18.447  0.00  0.00    +0.000 OA
BRANCH  24  26
ATOM     26  O   UNL     1       5.122   2.008  19.718  0.00  0.00    +0.000 OA
ATOM     27  H   UNL     1       5.062   1.685  20.633  0.00  0.00    +0.000 HD
ENDBRANCH  24  26
ENDBRANCH  20  24
ENDBRANCH   4  17
TORSDOF 5
ENDMDL
MODEL 9
REMARK VINA RESULT:      -7.0      1.699      2.097
REMARK  Name = 
REMARK  5 active torsions:
REMARK  status: ('A' for Active; 'I' for Inactive)
REMARK    1  A    between atoms: C_2  and  C_3
REMARK    2  A    between atoms: C_8  and  C_10
REMARK    3  A    between atoms: C_13  and  C_14
REMARK    4  A    between atoms: C_17  and  C_18
REMARK    5  A    between atoms: C_18  and  O_20
REMARK                            x       y       z     vdW  Elec       q    Type
REMARK                         _______ _______ _______ _____ _____    ______ ____
ROOT
ATOM      1  C   UNL     1       0.319  10.603  19.722  0.00  0.00    +0.000 A 
ATOM      2  C   UNL     1       0.701   9.673  20.694  0.00  0.00    +0.000 A 
ATOM      3  C   UNL     1       1.478   8.557  20.342  0.00  0.00    +0.000 A 
ATOM      4  C   UNL     1       1.901   8.342  19.015  0.00  0.00    +0.000 A 
ATOM      5  C   UNL     1       1.422   9.236  18.048  0.00  0.00    +0.000 A 
ATOM      6  C   UNL     1       0.627  10.330  18.392  0.00  0.00    +0.000 A 
ENDROOT
BRANCH   1  12
ATOM      7  C   UNL     1      -0.458  15.210  19.452  0.00  0.00    +0.000 C 
ATOM      8  C   UNL     1       1.049  15.538  19.399  0.00  0.00    +0.000 C 
ATOM      9  C   UNL     1       1.896  14.265  19.339  0.00  0.00    +0.000 C 
ATOM     10  C   UNL     1       1.527  13.326  20.491  0.00  0.00    +0.000 C 
ATOM     11  N   UNL     1       0.097  13.016  20.409  0.00  0.00    +0.000 N 
ATOM     12  C   UNL     1      -0.500  11.785  20.116  0.00  0.00    +0.000 C 
ATOM     13  O   UNL     1      -1.719  11.628  20.161  0.00  0.00    +0.000 OA
ATOM     14  C   UNL     1      -0.762  14.193  20.560  0.00  0.00    +0.000 C 
BRANCH   7  16
ATOM     15  N   UNL     1      -1.856  17.398  19.858  0.00  0.00    +0.000 NA
ATOM     16  C   UNL     1      -1.238  16.436  19.665  0.00  0.00    +0.000 C 
ENDBRANCH   7  16
ENDBRANCH   1  12
BRANCH   4  17
ATOM     17  C   UNL     1       2.730   7.172  18.639  0.00  0.00    +0.000 A 
ATOM     18  N   UNL     1       3.566   7.407  17.588  0.00  0.00    +0.000 NA
ATOM     19  C   UNL     1       4.432   6.431  17.220  0.00  0.00    +0.000 A 
ATOM     20  C   UNL     1       4.543   5.217  17.874  0.00  0.00    +0.000 A 
ATOM     21  C   UNL     1       3.662   4.954  18.921  0.00  0.00    +0.000 A 
ATOM     22  C   UNL     1       2.734   5.930  19.298  0.00  0.00    +0.000 A 
ATOM     23 CL   UNL     1       1.614   5.477  20.538  0.00  0.00    +0.000 Cl
BRANCH  20  24
ATOM     24  C   UNL     1       5.538   4.242  17.395  0.00  0.00    +0.000 C 
ATOM     25  O   UNL     1       5.477   3.743  16.284  0.00  0.00    +0.000 OA
BRANCH  24  26
ATOM     26  O   UNL     1       6.524   3.974  18.273  0.00  0.00    +0.000 OA
ATOM     27  H   UNL     1       6.438   4.352  19.164  0.00  0.00    +0.000 HD
ENDBRANCH  24  26
ENDBRANCH  20  24
ENDBRANCH   4  17
TORSDOF 5
ENDMDL
