MODEL 1
REMARK VINA RESULT:      -8.3      0.000      0.000
REMARK  Name = 
REMARK  11 active torsions:
REMARK  status: ('A' for Active; 'I' for Inactive)
REMARK    1  A    between atoms: C_1  and  C_2
REMARK    2  A    between atoms: C_2  and  O_3
REMARK    3  A    between atoms: O_3  and  C_4
REMARK    4  A    between atoms: C_7  and  N_8
REMARK    5  A    between atoms: N_8  and  C_9
REMARK    6  A    between atoms: C_9  and  C_10
REMARK    7  A    between atoms: N_12  and  C_13
REMARK    8  A    between atoms: C_18  and  C_20
REMARK    9  A    between atoms: C_20  and  C_21
REMARK   10  A    between atoms: C_21  and  C_22
REMARK   11  A    between atoms: C_27  and  C_28
REMARK                            x       y       z     vdW  Elec       q    Type
REMARK                         _______ _______ _______ _____ _____    ______ ____
ROOT
ATOM      1  N   UNL     1       5.595   5.895  17.455  0.00  0.00    +0.000 N 
ATOM      2  C   UNL     1       6.548   6.106  18.454  0.00  0.00    +0.000 C 
ATOM      3  O   UNL     1       6.379   5.760  19.630  0.00  0.00    +0.000 OA
ENDROOT
BRANCH   1   7
ATOM      4  C   UNL     1       2.321   3.440  18.603  0.00  0.00    +0.000 A 
ATOM      5  C   UNL     1       2.175   4.822  18.460  0.00  0.00    +0.000 A 
ATOM      6  C   UNL     1       3.229   5.621  18.003  0.00  0.00    +0.000 A 
ATOM      7  C   UNL     1       4.475   5.049  17.745  0.00  0.00    +0.000 A 
ATOM      8  C   UNL     1       4.614   3.655  17.861  0.00  0.00    +0.000 A 
ATOM      9  C   UNL     1       3.539   2.851  18.272  0.00  0.00    +0.000 A 
BRANCH   4  10
ATOM     10  O   UNL     1       1.234   2.806  19.134  0.00  0.00    +0.000 OA
BRANCH  10  12
ATOM     11  C   UNL     1       1.691   2.765  21.470  0.00  0.00    +0.000 C 
ATOM     12  C   UNL     1       0.745   3.273  20.391  0.00  0.00    +0.000 C 
ENDBRANCH  10  12
ENDBRANCH   4  10
ENDBRANCH   1   7
BRANCH   1  13
ATOM     13  C   UNL     1       5.850   6.184  16.027  0.00  0.00    +0.000 C 
BRANCH  13  14
ATOM     14  C   UNL     1       6.481   5.046  15.210  0.00  0.00    +0.000 C 
ATOM     15  O   UNL     1       7.542   4.526  15.549  0.00  0.00    +0.000 OA
ATOM     16  N   UNL     1       5.743   4.607  14.135  0.00  0.00    +0.000 N 
ATOM     17  H   UNL     1       4.789   4.938  14.054  0.00  0.00    +0.000 HD
BRANCH  16  18
ATOM     18  C   UNL     1       6.175   3.505  13.295  0.00  0.00    +0.000 C 
ATOM     19  C   UNL     1       5.047   2.922  12.452  0.00  0.00    +0.000 C 
ATOM     20  C   UNL     1       5.761   2.216  11.306  0.00  0.00    +0.000 C 
ATOM     21  C   UNL     1       7.074   2.967  11.100  0.00  0.00    +0.000 C 
ATOM     22  C   UNL     1       7.200   3.952  12.259  0.00  0.00    +0.000 C 
ENDBRANCH  16  18
ENDBRANCH  13  14
ENDBRANCH   1  13
BRANCH   2  23
ATOM     23  C   UNL     1       7.803   6.892  18.101  0.00  0.00    +0.000 C 
BRANCH  23  24
ATOM     24  C   UNL     1       7.467   8.309  17.638  0.00  0.00    +0.000 C 
BRANCH  24  25
ATOM     25  C   UNL     1       8.437   9.306  18.245  0.00  0.00    +0.000 C 
ATOM     26  O   UNL     1       9.116   8.975  19.212  0.00  0.00    +0.000 OA
ATOM     27  N   UNL     1       8.372  10.551  17.662  0.00  0.00    +0.000 N 
ATOM     28  C   UNL     1       9.086  11.656  18.045  0.00  0.00    +0.000 A 
ATOM     29  N   UNL     1       8.721  12.871  17.704  0.00  0.00    +0.000 NA
ATOM     30  C   UNL     1       9.604  13.796  18.244  0.00  0.00    +0.000 A 
ATOM     31  C   UNL     1       9.349  15.245  18.049  0.00  0.00    +0.000 C 
ATOM     32  C   UNL     1      10.661  13.242  18.941  0.00  0.00    +0.000 A 
ATOM     33  S   UNL     1      10.533  11.538  18.936  0.00  0.00    +0.000 S 
ATOM     34  H   UNL     1       7.576  10.768  17.060  0.00  0.00    +0.000 HD
ENDBRANCH  24  25
ENDBRANCH  23  24
ENDBRANCH   2  23
TORSDOF 9
ENDMDL
MODEL 2
REMARK VINA RESULT:      -8.0      1.411      1.727
REMARK  Name = 
REMARK  11 active torsions:
REMARK  status: ('A' for Active; 'I' for Inactive)
REMARK    1  A    between atoms: C_1  and  C_2
REMARK    2  A    between atoms: C_2  and  O_3
REMARK    3  A    between atoms: O_3  and  C_4
REMARK    4  A    between atoms: C_7  and  N_8
REMARK    5  A    between atoms: N_8  and  C_9
REMARK    6  A    between atoms: C_9  and  C_10
REMARK    7  A    between atoms: N_12  and  C_13
REMARK    8  A    between atoms: C_18  and  C_20
REMARK    9  A    between atoms: C_20  and  C_21
REMARK   10  A    between atoms: C_21  and  C_22
REMARK   11  A    between atoms: C_27  and  C_28
REMARK                            x       y       z     vdW  Elec       q    Type
REMARK                         _______ _______ _______ _____ _____    ______ ____
ROOT
ATOM      1  N   UNL     1       6.098   4.926  17.152  0.00  0.00    +0.000 N 
ATOM      2  C   UNL     1       6.371   6.123  17.820  0.00  0.00    +0.000 C 
ATOM      3  O   UNL     1       5.632   6.590  18.695  0.00  0.00    +0.000 OA
ENDROOT
BRANCH   1   7
ATOM      4  C   UNL     1       2.851   2.691  18.743  0.00  0.00    +0.000 A 
ATOM      5  C   UNL     1       2.743   3.355  17.518  0.00  0.00    +0.000 A 
ATOM      6  C   UNL     1       3.836   4.021  16.953  0.00  0.00    +0.000 A 
ATOM      7  C   UNL     1       5.045   4.091  17.648  0.00  0.00    +0.000 A 
ATOM      8  C   UNL     1       5.162   3.401  18.867  0.00  0.00    +0.000 A 
ATOM      9  C   UNL     1       4.077   2.690  19.406  0.00  0.00    +0.000 A 
BRANCH   4  10
ATOM     10  O   UNL     1       1.683   2.156  19.205  0.00  0.00    +0.000 OA
BRANCH  10  12
ATOM     11  C   UNL     1       0.894   4.051  20.409  0.00  0.00    +0.000 C 
ATOM     12  C   UNL     1       1.230   2.569  20.493  0.00  0.00    +0.000 C 
ENDBRANCH  10  12
ENDBRANCH   4  10
ENDBRANCH   1   7
BRANCH   1  13
ATOM     13  C   UNL     1       7.046   4.299  16.206  0.00  0.00    +0.000 C 
BRANCH  13  14
ATOM     14  C   UNL     1       6.735   4.488  14.713  0.00  0.00    +0.000 C 
ATOM     15  O   UNL     1       6.938   5.560  14.147  0.00  0.00    +0.000 OA
ATOM     16  N   UNL     1       6.296   3.365  14.052  0.00  0.00    +0.000 N 
ATOM     17  H   UNL     1       6.362   2.478  14.536  0.00  0.00    +0.000 HD
BRANCH  16  18
ATOM     18  C   UNL     1       6.010   3.364  12.628  0.00  0.00    +0.000 C 
ATOM     19  C   UNL     1       6.185   1.992  11.987  0.00  0.00    +0.000 C 
ATOM     20  C   UNL     1       5.350   2.064  10.715  0.00  0.00    +0.000 C 
ATOM     21  C   UNL     1       4.228   3.059  11.001  0.00  0.00    +0.000 C 
ATOM     22  C   UNL     1       4.552   3.707  12.344  0.00  0.00    +0.000 C 
ENDBRANCH  16  18
ENDBRANCH  13  14
ENDBRANCH   1  13
BRANCH   2  23
ATOM     23  C   UNL     1       7.577   6.939  17.375  0.00  0.00    +0.000 C 
BRANCH  23  24
ATOM     24  C   UNL     1       8.205   7.696  18.544  0.00  0.00    +0.000 C 
BRANCH  24  25
ATOM     25  C   UNL     1       8.396   9.158  18.184  0.00  0.00    +0.000 C 
ATOM     26  O   UNL     1       7.790   9.628  17.226  0.00  0.00    +0.000 OA
ATOM     27  N   UNL     1       9.340   9.790  18.960  0.00  0.00    +0.000 N 
ATOM     28  C   UNL     1       9.760  11.086  18.820  0.00  0.00    +0.000 A 
ATOM     29  N   UNL     1      10.893  11.510  19.332  0.00  0.00    +0.000 NA
ATOM     30  C   UNL     1      11.080  12.848  19.020  0.00  0.00    +0.000 A 
ATOM     31  C   UNL     1      12.333  13.525  19.436  0.00  0.00    +0.000 C 
ATOM     32  C   UNL     1      10.039  13.425  18.318  0.00  0.00    +0.000 A 
ATOM     33  S   UNL     1       8.818  12.265  18.027  0.00  0.00    +0.000 S 
ATOM     34  H   UNL     1       9.966   9.219  19.532  0.00  0.00    +0.000 HD
ENDBRANCH  24  25
ENDBRANCH  23  24
ENDBRANCH   2  23
TORSDOF 9
ENDMDL
MODEL 3
REMARK VINA RESULT:      -7.8      0.988      1.438
REMARK  Name = 
REMARK  11 active torsions:
REMARK  status: ('A' for Active; 'I' for Inactive)
REMARK    1  A    between atoms: C_1  and  C_2
REMARK    2  A    between atoms: C_2  and  O_3
REMARK    3  A    between atoms: O_3  and  C_4
REMARK    4  A    between atoms: C_7  and  N_8
REMARK    5  A    between atoms: N_8  and  C_9
REMARK    6  A    between atoms: C_9  and  C_10
REMARK    7  A    between atoms: N_12  and  C_13
REMARK    8  A    between atoms: C_18  and  C_20
REMARK    9  A    between atoms: C_20  and  C_21
REMARK   10  A    between atoms: C_21  and  C_22
REMARK   11  A    between atoms: C_27  and  C_28
REMARK                            x       y       z     vdW  Elec       q    Type
REMARK                         _______ _______ _______ _____ _____    ______ ____
ROOT
ATOM      1  N   UNL     1       5.699   5.996  17.614  0.00  0.00    +0.000 N 
ATOM      2  C   UNL     1       6.754   6.176  18.512  0.00  0.00    +0.000 C 
ATOM      3  O   UNL     1       6.688   5.846  19.703  0.00  0.00    +0.000 OA
ENDROOT
BRANCH   1   7
ATOM      4  C   UNL     1       2.363   3.533  18.545  0.00  0.00    +0.000 A 
ATOM      5  C   UNL     1       3.663   3.020  18.539  0.00  0.00    +0.000 A 
ATOM      6  C   UNL     1       4.769   3.847  18.315  0.00  0.00    +0.000 A 
ATOM      7  C   UNL     1       4.581   5.199  18.023  0.00  0.00    +0.000 A 
ATOM      8  C   UNL     1       3.276   5.720  18.056  0.00  0.00    +0.000 A 
ATOM      9  C   UNL     1       2.173   4.896  18.332  0.00  0.00    +0.000 A 
BRANCH   4  10
ATOM     10  O   UNL     1       1.383   2.594  18.698  0.00  0.00    +0.000 OA
BRANCH  10  12
ATOM     11  C   UNL     1       1.257   2.784  21.066  0.00  0.00    +0.000 C 
ATOM     12  C   UNL     1       0.459   2.771  19.771  0.00  0.00    +0.000 C 
ENDBRANCH  10  12
ENDBRANCH   4  10
ENDBRANCH   1   7
BRANCH   1  13
ATOM     13  C   UNL     1       5.823   6.265  16.166  0.00  0.00    +0.000 C 
BRANCH  13  14
ATOM     14  C   UNL     1       6.391   5.119  15.313  0.00  0.00    +0.000 C 
ATOM     15  O   UNL     1       7.444   4.560  15.611  0.00  0.00    +0.000 OA
ATOM     16  N   UNL     1       5.606   4.720  14.256  0.00  0.00    +0.000 N 
ATOM     17  H   UNL     1       4.661   5.083  14.209  0.00  0.00    +0.000 HD
BRANCH  16  18
ATOM     18  C   UNL     1       5.975   3.617  13.388  0.00  0.00    +0.000 C 
ATOM     19  C   UNL     1       4.845   3.188  12.458  0.00  0.00    +0.000 C 
ATOM     20  C   UNL     1       5.552   2.464  11.319  0.00  0.00    +0.000 C 
ATOM     21  C   UNL     1       6.942   3.087  11.220  0.00  0.00    +0.000 C 
ATOM     22  C   UNL     1       7.097   4.003  12.430  0.00  0.00    +0.000 C 
ENDBRANCH  16  18
ENDBRANCH  13  14
ENDBRANCH   1  13
BRANCH   2  23
ATOM     23  C   UNL     1       7.998   6.908  18.029  0.00  0.00    +0.000 C 
BRANCH  23  24
ATOM     24  C   UNL     1       8.516   7.890  19.079  0.00  0.00    +0.000 C 
BRANCH  24  25
ATOM     25  C   UNL     1       8.600   9.289  18.495  0.00  0.00    +0.000 C 
ATOM     26  O   UNL     1       7.948   9.566  17.493  0.00  0.00    +0.000 OA
ATOM     27  N   UNL     1       9.511  10.093  19.141  0.00  0.00    +0.000 N 
ATOM     28  C   UNL     1       9.838  11.377  18.795  0.00  0.00    +0.000 A 
ATOM     29  N   UNL     1      10.947  11.947  19.207  0.00  0.00    +0.000 NA
ATOM     30  C   UNL     1      11.036  13.232  18.689  0.00  0.00    +0.000 A 
ATOM     31  C   UNL     1      12.247  14.045  18.964  0.00  0.00    +0.000 C 
ATOM     32  C   UNL     1       9.947  13.624  17.935  0.00  0.00    +0.000 A 
ATOM     33  S   UNL     1       8.805  12.355  17.857  0.00  0.00    +0.000 S 
ATOM     34  H   UNL     1      10.183   9.658  19.777  0.00  0.00    +0.000 HD
ENDBRANCH  24  25
ENDBRANCH  23  24
ENDBRANCH   2  23
TORSDOF 9
ENDMDL
MODEL 4
REMARK VINA RESULT:      -7.5      4.408      7.788
REMARK  Name = 
REMARK  11 active torsions:
REMARK  status: ('A' for Active; 'I' for Inactive)
REMARK    1  A    between atoms: C_1  and  C_2
REMARK    2  A    between atoms: C_2  and  O_3
REMARK    3  A    between atoms: O_3  and  C_4
REMARK    4  A    between atoms: C_7  and  N_8
REMARK    5  A    between atoms: N_8  and  C_9
REMARK    6  A    between atoms: C_9  and  C_10
REMARK    7  A    between atoms: N_12  and  C_13
REMARK    8  A    between atoms: C_18  and  C_20
REMARK    9  A    between atoms: C_20  and  C_21
REMARK   10  A    between atoms: C_21  and  C_22
REMARK   11  A    between atoms: C_27  and  C_28
REMARK                            x       y       z     vdW  Elec       q    Type
REMARK                         _______ _______ _______ _____ _____    ______ ____
ROOT
ATOM      1  N   UNL     1       5.674   5.567  16.315  0.00  0.00    +0.000 N 
ATOM      2  C   UNL     1       4.928   6.745  16.225  0.00  0.00    +0.000 C 
ATOM      3  O   UNL     1       4.690   7.312  15.151  0.00  0.00    +0.000 OA
ENDROOT
BRANCH   1   7
ATOM      4  C   UNL     1       6.555   3.728  12.585  0.00  0.00    +0.000 A 
ATOM      5  C   UNL     1       7.524   4.457  13.281  0.00  0.00    +0.000 A 
ATOM      6  C   UNL     1       7.261   4.992  14.547  0.00  0.00    +0.000 A 
ATOM      7  C   UNL     1       5.989   4.862  15.108  0.00  0.00    +0.000 A 
ATOM      8  C   UNL     1       5.024   4.106  14.421  0.00  0.00    +0.000 A 
ATOM      9  C   UNL     1       5.308   3.528  13.173  0.00  0.00    +0.000 A 
BRANCH   4  10
ATOM     10  O   UNL     1       6.929   3.338  11.331  0.00  0.00    +0.000 OA
BRANCH  10  12
ATOM     11  C   UNL     1       6.291   1.085  10.911  0.00  0.00    +0.000 C 
ATOM     12  C   UNL     1       7.459   2.022  11.179  0.00  0.00    +0.000 C 
ENDBRANCH  10  12
ENDBRANCH   4  10
ENDBRANCH   1   7
BRANCH   1  13
ATOM     13  C   UNL     1       5.843   4.817  17.578  0.00  0.00    +0.000 C 
BRANCH  13  14
ATOM     14  C   UNL     1       4.708   3.847  17.944  0.00  0.00    +0.000 C 
ATOM     15  O   UNL     1       4.547   2.791  17.337  0.00  0.00    +0.000 OA
ATOM     16  N   UNL     1       3.952   4.204  19.036  0.00  0.00    +0.000 N 
ATOM     17  H   UNL     1       4.284   4.972  19.608  0.00  0.00    +0.000 HD
BRANCH  16  18
ATOM     18  C   UNL     1       2.878   3.369  19.543  0.00  0.00    +0.000 C 
ATOM     19  C   UNL     1       3.163   2.812  20.933  0.00  0.00    +0.000 C 
ATOM     20  C   UNL     1       1.787   2.463  21.487  0.00  0.00    +0.000 C 
ATOM     21  C   UNL     1       0.806   3.423  20.817  0.00  0.00    +0.000 C 
ATOM     22  C   UNL     1       1.588   4.160  19.734  0.00  0.00    +0.000 C 
ENDBRANCH  16  18
ENDBRANCH  13  14
ENDBRANCH   1  13
BRANCH   2  23
ATOM     23  C   UNL     1       4.478   7.416  17.515  0.00  0.00    +0.000 C 
BRANCH  23  24
ATOM     24  C   UNL     1       3.013   7.113  17.824  0.00  0.00    +0.000 C 
BRANCH  24  25
ATOM     25  C   UNL     1       2.252   8.401  18.083  0.00  0.00    +0.000 C 
ATOM     26  O   UNL     1       2.372   9.340  17.302  0.00  0.00    +0.000 OA
ATOM     27  N   UNL     1       1.551   8.391  19.267  0.00  0.00    +0.000 N 
ATOM     28  C   UNL     1       0.827   9.433  19.782  0.00  0.00    +0.000 A 
ATOM     29  N   UNL     1       0.497   9.489  21.052  0.00  0.00    +0.000 NA
ATOM     30  C   UNL     1      -0.208  10.657  21.304  0.00  0.00    +0.000 A 
ATOM     31  C   UNL     1      -0.624  10.971  22.694  0.00  0.00    +0.000 C 
ATOM     32  C   UNL     1      -0.445  11.437  20.189  0.00  0.00    +0.000 A 
ATOM     33  S   UNL     1       0.246  10.704  18.807  0.00  0.00    +0.000 S 
ATOM     34  H   UNL     1       1.757   7.660  19.950  0.00  0.00    +0.000 HD
ENDBRANCH  24  25
ENDBRANCH  23  24
ENDBRANCH   2  23
TORSDOF 9
ENDMDL
MODEL 5
REMARK VINA RESULT:      -7.4      8.700     11.713
REMARK  Name = 
REMARK  11 active torsions:
REMARK  status: ('A' for Active; 'I' for Inactive)
REMARK    1  A    between atoms: C_1  and  C_2
REMARK    2  A    between atoms: C_2  and  O_3
REMARK    3  A    between atoms: O_3  and  C_4
REMARK    4  A    between atoms: C_7  and  N_8
REMARK    5  A    between atoms: N_8  and  C_9
REMARK    6  A    between atoms: C_9  and  C_10
REMARK    7  A    between atoms: N_12  and  C_13
REMARK    8  A    between atoms: C_18  and  C_20
REMARK    9  A    between atoms: C_20  and  C_21
REMARK   10  A    between atoms: C_21  and  C_22
REMARK   11  A    between atoms: C_27  and  C_28
REMARK                            x       y       z     vdW  Elec       q    Type
REMARK                         _______ _______ _______ _____ _____    ______ ____
ROOT
ATOM      1  N   UNL     1      -1.199  11.494  21.877  0.00  0.00    +0.000 N 
ATOM      2  C   UNL     1      -0.558  10.352  22.361  0.00  0.00    +0.000 C 
ATOM      3  O   UNL     1      -0.200  10.228  23.539  0.00  0.00    +0.000 OA
ENDROOT
BRANCH   1   7
ATOM      4  C   UNL     1      -2.727  14.516  24.447  0.00  0.00    +0.000 A 
ATOM      5  C   UNL     1      -3.467  13.365  24.160  0.00  0.00    +0.000 A 
ATOM      6  C   UNL     1      -2.933  12.333  23.382  0.00  0.00    +0.000 A 
ATOM      7  C   UNL     1      -1.664  12.470  22.818  0.00  0.00    +0.000 A 
ATOM      8  C   UNL     1      -0.909  13.613  23.129  0.00  0.00    +0.000 A 
ATOM      9  C   UNL     1      -1.430  14.625  23.952  0.00  0.00    +0.000 A 
BRANCH   4  10
ATOM     10  O   UNL     1      -3.408  15.469  25.149  0.00  0.00    +0.000 OA
BRANCH  10  12
ATOM     11  C   UNL     1      -4.778  17.415  25.114  0.00  0.00    +0.000 C 
ATOM     12  C   UNL     1      -4.586  16.012  24.554  0.00  0.00    +0.000 C 
ENDBRANCH  10  12
ENDBRANCH   4  10
ENDBRANCH   1   7
BRANCH   1  13
ATOM     13  C   UNL     1      -1.748  11.588  20.507  0.00  0.00    +0.000 C 
BRANCH  13  14
ATOM     14  C   UNL     1      -0.749  11.975  19.405  0.00  0.00    +0.000 C 
ATOM     15  O   UNL     1      -0.718  11.380  18.330  0.00  0.00    +0.000 OA
ATOM     16  N   UNL     1       0.038  13.071  19.675  0.00  0.00    +0.000 N 
ATOM     17  H   UNL     1      -0.198  13.631  20.485  0.00  0.00    +0.000 HD
BRANCH  16  18
ATOM     18  C   UNL     1       0.994  13.596  18.717  0.00  0.00    +0.000 C 
ATOM     19  C   UNL     1       1.281  15.080  18.915  0.00  0.00    +0.000 C 
ATOM     20  C   UNL     1       2.629  15.294  18.238  0.00  0.00    +0.000 C 
ATOM     21  C   UNL     1       3.368  13.962  18.336  0.00  0.00    +0.000 C 
ATOM     22  C   UNL     1       2.364  12.945  18.869  0.00  0.00    +0.000 C 
ENDBRANCH  16  18
ENDBRANCH  13  14
ENDBRANCH   1  13
BRANCH   2  23
ATOM     23  C   UNL     1      -0.189   9.256  21.371  0.00  0.00    +0.000 C 
BRANCH  23  24
ATOM     24  C   UNL     1       1.230   8.741  21.607  0.00  0.00    +0.000 C 
BRANCH  24  25
ATOM     25  C   UNL     1       1.700   7.927  20.415  0.00  0.00    +0.000 C 
ATOM     26  O   UNL     1       1.810   8.469  19.319  0.00  0.00    +0.000 OA
ATOM     27  N   UNL     1       1.873   6.592  20.703  0.00  0.00    +0.000 N 
ATOM     28  C   UNL     1       2.231   5.617  19.810  0.00  0.00    +0.000 A 
ATOM     29  N   UNL     1       2.025   4.343  20.053  0.00  0.00    +0.000 NA
ATOM     30  C   UNL     1       2.457   3.583  18.976  0.00  0.00    +0.000 A 
ATOM     31  C   UNL     1       2.259   2.112  18.996  0.00  0.00    +0.000 C 
ATOM     32  C   UNL     1       3.041   4.310  17.957  0.00  0.00    +0.000 A 
ATOM     33  S   UNL     1       3.027   5.974  18.346  0.00  0.00    +0.000 S 
ATOM     34  H   UNL     1       1.484   6.225  21.573  0.00  0.00    +0.000 HD
ENDBRANCH  24  25
ENDBRANCH  23  24
ENDBRANCH   2  23
TORSDOF 9
ENDMDL
MODEL 6
REMARK VINA RESULT:      -7.4      1.518      1.896
REMARK  Name = 
REMARK  11 active torsions:
REMARK  status: ('A' for Active; 'I' for Inactive)
REMARK    1  A    between atoms: C_1  and  C_2
REMARK    2  A    between atoms: C_2  and  O_3
REMARK    3  A    between atoms: O_3  and  C_4
REMARK    4  A    between atoms: C_7  and  N_8
REMARK    5  A    between atoms: N_8  and  C_9
REMARK    6  A    between atoms: C_9  and  C_10
REMARK    7  A    between atoms: N_12  and  C_13
REMARK    8  A    between atoms: C_18  and  C_20
REMARK    9  A    between atoms: C_20  and  C_21
REMARK   10  A    between atoms: C_21  and  C_22
REMARK   11  A    between atoms: C_27  and  C_28
REMARK                            x       y       z     vdW  Elec       q    Type
REMARK                         _______ _______ _______ _____ _____    ______ ____
ROOT
ATOM      1  N   UNL     1       5.532   5.887  18.456  0.00  0.00    +0.000 N 
ATOM      2  C   UNL     1       6.820   6.040  18.976  0.00  0.00    +0.000 C 
ATOM      3  O   UNL     1       7.136   5.670  20.114  0.00  0.00    +0.000 OA
ENDROOT
BRANCH   1   7
ATOM      4  C   UNL     1       2.627   3.411  20.326  0.00  0.00    +0.000 A 
ATOM      5  C   UNL     1       3.791   2.871  19.772  0.00  0.00    +0.000 A 
ATOM      6  C   UNL     1       4.787   3.692  19.231  0.00  0.00    +0.000 A 
ATOM      7  C   UNL     1       4.596   5.073  19.174  0.00  0.00    +0.000 A 
ATOM      8  C   UNL     1       3.439   5.619  19.756  0.00  0.00    +0.000 A 
ATOM      9  C   UNL     1       2.465   4.794  20.343  0.00  0.00    +0.000 A 
BRANCH   4  10
ATOM     10  O   UNL     1       1.713   2.485  20.741  0.00  0.00    +0.000 OA
BRANCH  10  12
ATOM     11  C   UNL     1       0.514   2.605  18.689  0.00  0.00    +0.000 C 
ATOM     12  C   UNL     1       1.094   1.674  19.744  0.00  0.00    +0.000 C 
ENDBRANCH  10  12
ENDBRANCH   4  10
ENDBRANCH   1   7
BRANCH   1  13
ATOM     13  C   UNL     1       5.189   6.204  17.053  0.00  0.00    +0.000 C 
BRANCH  13  14
ATOM     14  C   UNL     1       5.426   5.082  16.030  0.00  0.00    +0.000 C 
ATOM     15  O   UNL     1       4.725   4.072  16.012  0.00  0.00    +0.000 OA
ATOM     16  N   UNL     1       6.411   5.324  15.101  0.00  0.00    +0.000 N 
ATOM     17  H   UNL     1       6.790   6.262  15.051  0.00  0.00    +0.000 HD
BRANCH  16  18
ATOM     18  C   UNL     1       6.721   4.388  14.036  0.00  0.00    +0.000 C 
ATOM     19  C   UNL     1       5.482   3.901  13.293  0.00  0.00    +0.000 C 
ATOM     20  C   UNL     1       6.016   3.415  11.951  0.00  0.00    +0.000 C 
ATOM     21  C   UNL     1       7.268   4.242  11.670  0.00  0.00    +0.000 C 
ATOM     22  C   UNL     1       7.561   5.035  12.940  0.00  0.00    +0.000 C 
ENDBRANCH  16  18
ENDBRANCH  13  14
ENDBRANCH   1  13
BRANCH   2  23
ATOM     23  C   UNL     1       7.851   6.790  18.144  0.00  0.00    +0.000 C 
BRANCH  23  24
ATOM     24  C   UNL     1       8.655   7.770  18.997  0.00  0.00    +0.000 C 
BRANCH  24  25
ATOM     25  C   UNL     1       8.573   9.168  18.412  0.00  0.00    +0.000 C 
ATOM     26  O   UNL     1       7.861   9.373  17.434  0.00  0.00    +0.000 OA
ATOM     27  N   UNL     1       9.416  10.065  19.028  0.00  0.00    +0.000 N 
ATOM     28  C   UNL     1       9.595  11.376  18.672  0.00  0.00    +0.000 A 
ATOM     29  N   UNL     1      10.652  12.059  19.045  0.00  0.00    +0.000 NA
ATOM     30  C   UNL     1      10.589  13.345  18.526  0.00  0.00    +0.000 A 
ATOM     31  C   UNL     1      11.717  14.281  18.760  0.00  0.00    +0.000 C 
ATOM     32  C   UNL     1       9.440  13.620  17.811  0.00  0.00    +0.000 A 
ATOM     33  S   UNL     1       8.433  12.238  17.771  0.00  0.00    +0.000 S 
ATOM     34  H   UNL     1      10.152   9.705  19.639  0.00  0.00    +0.000 HD
ENDBRANCH  24  25
ENDBRANCH  23  24
ENDBRANCH   2  23
TORSDOF 9
ENDMDL
MODEL 7
REMARK VINA RESULT:      -7.4      1.038      1.432
REMARK  Name = 
REMARK  11 active torsions:
REMARK  status: ('A' for Active; 'I' for Inactive)
REMARK    1  A    between atoms: C_1  and  C_2
REMARK    2  A    between atoms: C_2  and  O_3
REMARK    3  A    between atoms: O_3  and  C_4
REMARK    4  A    between atoms: C_7  and  N_8
REMARK    5  A    between atoms: N_8  and  C_9
REMARK    6  A    between atoms: C_9  and  C_10
REMARK    7  A    between atoms: N_12  and  C_13
REMARK    8  A    between atoms: C_18  and  C_20
REMARK    9  A    between atoms: C_20  and  C_21
REMARK   10  A    between atoms: C_21  and  C_22
REMARK   11  A    between atoms: C_27  and  C_28
REMARK                            x       y       z     vdW  Elec       q    Type
REMARK                         _______ _______ _______ _____ _____    ______ ____
ROOT
ATOM      1  N   UNL     1       5.986   6.314  18.196  0.00  0.00    +0.000 N 
ATOM      2  C   UNL     1       7.200   6.284  18.885  0.00  0.00    +0.000 C 
ATOM      3  O   UNL     1       7.360   5.659  19.941  0.00  0.00    +0.000 OA
ENDROOT
BRANCH   1   7
ATOM      4  C   UNL     1       2.848   3.593  19.100  0.00  0.00    +0.000 A 
ATOM      5  C   UNL     1       4.139   3.142  18.813  0.00  0.00    +0.000 A 
ATOM      6  C   UNL     1       5.191   4.038  18.597  0.00  0.00    +0.000 A 
ATOM      7  C   UNL     1       4.948   5.412  18.598  0.00  0.00    +0.000 A 
ATOM      8  C   UNL     1       3.656   5.867  18.914  0.00  0.00    +0.000 A 
ATOM      9  C   UNL     1       2.614   4.964  19.180  0.00  0.00    +0.000 A 
BRANCH   4  10
ATOM     10  O   UNL     1       1.911   2.606  19.207  0.00  0.00    +0.000 OA
BRANCH  10  12
ATOM     11  C   UNL     1       1.627   2.543  21.569  0.00  0.00    +0.000 C 
ATOM     12  C   UNL     1       0.927   2.736  20.232  0.00  0.00    +0.000 C 
ENDBRANCH  10  12
ENDBRANCH   4  10
ENDBRANCH   1   7
BRANCH   1  13
ATOM     13  C   UNL     1       5.831   6.947  16.868  0.00  0.00    +0.000 C 
BRANCH  13  14
ATOM     14  C   UNL     1       5.860   5.998  15.660  0.00  0.00    +0.000 C 
ATOM     15  O   UNL     1       4.880   5.857  14.932  0.00  0.00    +0.000 OA
ATOM     16  N   UNL     1       7.069   5.390  15.412  0.00  0.00    +0.000 N 
ATOM     17  H   UNL     1       7.877   5.724  15.924  0.00  0.00    +0.000 HD
BRANCH  16  18
ATOM     18  C   UNL     1       7.276   4.507  14.278  0.00  0.00    +0.000 C 
ATOM     19  C   UNL     1       6.004   3.786  13.847  0.00  0.00    +0.000 C 
ATOM     20  C   UNL     1       6.274   3.382  12.403  0.00  0.00    +0.000 C 
ATOM     21  C   UNL     1       7.245   4.421  11.848  0.00  0.00    +0.000 C 
ATOM     22  C   UNL     1       7.689   5.278  13.029  0.00  0.00    +0.000 C 
ENDBRANCH  16  18
ENDBRANCH  13  14
ENDBRANCH   1  13
BRANCH   2  23
ATOM     23  C   UNL     1       8.345   7.145  18.370  0.00  0.00    +0.000 C 
BRANCH  23  24
ATOM     24  C   UNL     1       7.843   8.486  17.837  0.00  0.00    +0.000 C 
BRANCH  24  25
ATOM     25  C   UNL     1       8.659   9.624  18.423  0.00  0.00    +0.000 C 
ATOM     26  O   UNL     1       9.335   9.428  19.428  0.00  0.00    +0.000 OA
ATOM     27  N   UNL     1       8.465  10.822  17.774  0.00  0.00    +0.000 N 
ATOM     28  C   UNL     1       9.022  12.024  18.121  0.00  0.00    +0.000 A 
ATOM     29  N   UNL     1       8.525  13.167  17.706  0.00  0.00    +0.000 NA
ATOM     30  C   UNL     1       9.265  14.219  18.225  0.00  0.00    +0.000 A 
ATOM     31  C   UNL     1       8.843  15.614  17.946  0.00  0.00    +0.000 C 
ATOM     32  C   UNL     1      10.354  13.836  18.985  0.00  0.00    +0.000 A 
ATOM     33  S   UNL     1      10.437  12.130  19.066  0.00  0.00    +0.000 S 
ATOM     34  H   UNL     1       7.673  10.910  17.135  0.00  0.00    +0.000 HD
ENDBRANCH  24  25
ENDBRANCH  23  24
ENDBRANCH   2  23
TORSDOF 9
ENDMDL
MODEL 8
REMARK VINA RESULT:      -7.4      8.752     11.014
REMARK  Name = 
REMARK  11 active torsions:
REMARK  status: ('A' for Active; 'I' for Inactive)
REMARK    1  A    between atoms: C_1  and  C_2
REMARK    2  A    between atoms: C_2  and  O_3
REMARK    3  A    between atoms: O_3  and  C_4
REMARK    4  A    between atoms: C_7  and  N_8
REMARK    5  A    between atoms: N_8  and  C_9
REMARK    6  A    between atoms: C_9  and  C_10
REMARK    7  A    between atoms: N_12  and  C_13
REMARK    8  A    between atoms: C_18  and  C_20
REMARK    9  A    between atoms: C_20  and  C_21
REMARK   10  A    between atoms: C_21  and  C_22
REMARK   11  A    between atoms: C_27  and  C_28
REMARK                            x       y       z     vdW  Elec       q    Type
REMARK                         _______ _______ _______ _____ _____    ______ ____
ROOT
ATOM      1  N   UNL     1       0.822   9.786  20.096  0.00  0.00    +0.000 N 
ATOM      2  C   UNL     1       0.205   9.876  21.346  0.00  0.00    +0.000 C 
ATOM      3  O   UNL     1       0.057   8.902  22.095  0.00  0.00    +0.000 OA
ENDROOT
BRANCH   1   7
ATOM      4  C   UNL     1       2.623   6.115  18.936  0.00  0.00    +0.000 A 
ATOM      5  C   UNL     1       2.666   7.238  18.105  0.00  0.00    +0.000 A 
ATOM      6  C   UNL     1       2.147   8.469  18.519  0.00  0.00    +0.000 A 
ATOM      7  C   UNL     1       1.510   8.576  19.757  0.00  0.00    +0.000 A 
ATOM      8  C   UNL     1       1.491   7.455  20.604  0.00  0.00    +0.000 A 
ATOM      9  C   UNL     1       2.059   6.234  20.203  0.00  0.00    +0.000 A 
BRANCH   4  10
ATOM     10  O   UNL     1       3.095   4.968  18.365  0.00  0.00    +0.000 OA
BRANCH  10  12
ATOM     11  C   UNL     1       5.327   4.874  19.184  0.00  0.00    +0.000 C 
ATOM     12  C   UNL     1       3.983   4.162  19.138  0.00  0.00    +0.000 C 
ENDBRANCH  10  12
ENDBRANCH   4  10
ENDBRANCH   1   7
BRANCH   1  13
ATOM     13  C   UNL     1       1.121  10.970  19.261  0.00  0.00    +0.000 C 
BRANCH  13  14
ATOM     14  C   UNL     1      -0.086  11.647  18.593  0.00  0.00    +0.000 C 
ATOM     15  O   UNL     1      -0.224  12.868  18.606  0.00  0.00    +0.000 OA
ATOM     16  N   UNL     1      -0.943  10.805  17.921  0.00  0.00    +0.000 N 
ATOM     17  H   UNL     1      -0.644   9.849  17.776  0.00  0.00    +0.000 HD
BRANCH  16  18
ATOM     18  C   UNL     1      -2.100  11.294  17.194  0.00  0.00    +0.000 C 
ATOM     19  C   UNL     1      -2.506  10.383  16.041  0.00  0.00    +0.000 C 
ATOM     20  C   UNL     1      -3.966  10.734  15.781  0.00  0.00    +0.000 C 
ATOM     21  C   UNL     1      -4.530  11.210  17.118  0.00  0.00    +0.000 C 
ATOM     22  C   UNL     1      -3.345  11.333  18.072  0.00  0.00    +0.000 C 
ENDBRANCH  16  18
ENDBRANCH  13  14
ENDBRANCH   1  13
BRANCH   2  23
ATOM     23  C   UNL     1      -0.406  11.208  21.756  0.00  0.00    +0.000 C 
BRANCH  23  24
ATOM     24  C   UNL     1      -1.216  11.081  23.046  0.00  0.00    +0.000 C 
BRANCH  24  25
ATOM     25  C   UNL     1      -2.053  12.327  23.268  0.00  0.00    +0.000 C 
ATOM     26  O   UNL     1      -1.504  13.370  23.609  0.00  0.00    +0.000 OA
ATOM     27  N   UNL     1      -3.405  12.105  23.137  0.00  0.00    +0.000 N 
ATOM     28  C   UNL     1      -4.395  13.029  23.339  0.00  0.00    +0.000 A 
ATOM     29  N   UNL     1      -5.641  12.676  23.556  0.00  0.00    +0.000 NA
ATOM     30  C   UNL     1      -6.423  13.805  23.752  0.00  0.00    +0.000 A 
ATOM     31  C   UNL     1      -7.861  13.646  24.086  0.00  0.00    +0.000 C 
ATOM     32  C   UNL     1      -5.747  15.002  23.619  0.00  0.00    +0.000 A 
ATOM     33  S   UNL     1      -4.101  14.706  23.264  0.00  0.00    +0.000 S 
ATOM     34  H   UNL     1      -3.743  11.140  23.125  0.00  0.00    +0.000 HD
ENDBRANCH  24  25
ENDBRANCH  23  24
ENDBRANCH   2  23
TORSDOF 9
ENDMDL
MODEL 9
REMARK VINA RESULT:      -7.3      4.400      7.656
REMARK  Name = 
REMARK  11 active torsions:
REMARK  status: ('A' for Active; 'I' for Inactive)
REMARK    1  A    between atoms: C_1  and  C_2
REMARK    2  A    between atoms: C_2  and  O_3
REMARK    3  A    between atoms: O_3  and  C_4
REMARK    4  A    between atoms: C_7  and  N_8
REMARK    5  A    between atoms: N_8  and  C_9
REMARK    6  A    between atoms: C_9  and  C_10
REMARK    7  A    between atoms: N_12  and  C_13
REMARK    8  A    between atoms: C_18  and  C_20
REMARK    9  A    between atoms: C_20  and  C_21
REMARK   10  A    between atoms: C_21  and  C_22
REMARK   11  A    between atoms: C_27  and  C_28
REMARK                            x       y       z     vdW  Elec       q    Type
REMARK                         _______ _______ _______ _____ _____    ______ ____
ROOT
ATOM      1  N   UNL     1       5.407   6.132  17.074  0.00  0.00    +0.000 N 
ATOM      2  C   UNL     1       4.401   7.081  16.877  0.00  0.00    +0.000 C 
ATOM      3  O   UNL     1       3.968   7.382  15.757  0.00  0.00    +0.000 OA
ENDROOT
BRANCH   1   7
ATOM      4  C   UNL     1       6.433   3.888  13.613  0.00  0.00    +0.000 A 
ATOM      5  C   UNL     1       7.207   4.976  14.028  0.00  0.00    +0.000 A 
ATOM      6  C   UNL     1       6.919   5.664  15.211  0.00  0.00    +0.000 A 
ATOM      7  C   UNL     1       5.800   5.311  15.967  0.00  0.00    +0.000 A 
ATOM      8  C   UNL     1       5.038   4.201  15.566  0.00  0.00    +0.000 A 
ATOM      9  C   UNL     1       5.361   3.481  14.403  0.00  0.00    +0.000 A 
BRANCH   4  10
ATOM     10  O   UNL     1       6.786   3.370  12.400  0.00  0.00    +0.000 OA
BRANCH  10  12
ATOM     11  C   UNL     1       6.343   1.357  11.210  0.00  0.00    +0.000 C 
ATOM     12  C   UNL     1       5.775   2.699  11.648  0.00  0.00    +0.000 C 
ENDBRANCH  10  12
ENDBRANCH   4  10
ENDBRANCH   1   7
BRANCH   1  13
ATOM     13  C   UNL     1       5.828   5.675  18.416  0.00  0.00    +0.000 C 
BRANCH  13  14
ATOM     14  C   UNL     1       5.122   4.422  18.955  0.00  0.00    +0.000 C 
ATOM     15  O   UNL     1       5.691   3.333  18.995  0.00  0.00    +0.000 OA
ATOM     16  N   UNL     1       3.857   4.623  19.457  0.00  0.00    +0.000 N 
ATOM     17  H   UNL     1       3.549   5.579  19.585  0.00  0.00    +0.000 HD
BRANCH  16  18
ATOM     18  C   UNL     1       3.078   3.551  20.051  0.00  0.00    +0.000 C 
ATOM     19  C   UNL     1       2.204   4.022  21.208  0.00  0.00    +0.000 C 
ATOM     20  C   UNL     1       1.120   2.958  21.316  0.00  0.00    +0.000 C 
ATOM     21  C   UNL     1       0.948   2.385  19.911  0.00  0.00    +0.000 C 
ATOM     22  C   UNL     1       2.075   2.966  19.063  0.00  0.00    +0.000 C 
ENDBRANCH  16  18
ENDBRANCH  13  14
ENDBRANCH   1  13
BRANCH   2  23
ATOM     23  C   UNL     1       3.891   7.856  18.084  0.00  0.00    +0.000 C 
BRANCH  23  24
ATOM     24  C   UNL     1       2.376   7.727  18.235  0.00  0.00    +0.000 C 
BRANCH  24  25
ATOM     25  C   UNL     1       1.743   9.098  18.387  0.00  0.00    +0.000 C 
ATOM     26  O   UNL     1       1.985   9.971  17.559  0.00  0.00    +0.000 OA
ATOM     27  N   UNL     1       1.006   9.231  19.542  0.00  0.00    +0.000 N 
ATOM     28  C   UNL     1       0.376  10.371  19.967  0.00  0.00    +0.000 A 
ATOM     29  N   UNL     1       0.012  10.538  21.218  0.00  0.00    +0.000 NA
ATOM     30  C   UNL     1      -0.577  11.785  21.374  0.00  0.00    +0.000 A 
ATOM     31  C   UNL     1      -1.005  12.224  22.726  0.00  0.00    +0.000 C 
ATOM     32  C   UNL     1      -0.696  12.514  20.207  0.00  0.00    +0.000 A 
ATOM     33  S   UNL     1      -0.039  11.631  18.898  0.00  0.00    +0.000 S 
ATOM     34  H   UNL     1       1.114   8.527  20.275  0.00  0.00    +0.000 HD
ENDBRANCH  24  25
ENDBRANCH  23  24
ENDBRANCH   2  23
TORSDOF 9
ENDMDL
