MODEL 1
REMARK VINA RESULT:      -6.0      0.000      0.000
REMARK  Name = 
REMARK  7 active torsions:
REMARK  status: ('A' for Active; 'I' for Inactive)
REMARK    1  A    between atoms: C_1  and  C_2
REMARK    2  A    between atoms: C_2  and  C_3
REMARK    3  A    between atoms: C_8  and  C_9
REMARK    4  A    between atoms: C_13  and  N_14
REMARK    5  A    between atoms: N_16  and  C_17
REMARK    6  A    between atoms: N_19  and  C_20
REMARK    7  A    between atoms: C_26  and  O_27
REMARK                            x       y       z     vdW  Elec       q    Type
REMARK                         _______ _______ _______ _____ _____    ______ ____
ROOT
ATOM      1  C   UNL     1      -3.364  10.646  15.359  0.00  0.00    +0.000 C 
ATOM      2  C   UNL     1      -3.295  10.804  16.887  0.00  0.00    +0.000 C 
ATOM      3  C   UNL     1      -3.442   9.391  17.496  0.00  0.00    +0.000 C 
ATOM      4  N   UNL     1      -1.975  11.352  17.233  0.00  0.00    +0.000 N 
ATOM      5  C   UNL     1      -1.785  11.822  18.537  0.00  0.00    +0.000 A 
ATOM      6  C   UNL     1      -0.479  11.997  19.015  0.00  0.00    +0.000 A 
ATOM      7  C   UNL     1      -0.243  12.464  20.312  0.00  0.00    +0.000 A 
ATOM      8  C   UNL     1      -1.313  12.810  21.135  0.00  0.00    +0.000 A 
ATOM      9  C   UNL     1      -2.618  12.693  20.653  0.00  0.00    +0.000 A 
ATOM     10  C   UNL     1      -2.867  12.203  19.357  0.00  0.00    +0.000 A 
ATOM     11  C   UNL     1      -4.297  11.928  18.918  0.00  0.00    +0.000 C 
ATOM     12  C   UNL     1      -4.388  11.798  17.377  0.00  0.00    +0.000 C 
ATOM     13  H   UNL     1      -1.180  10.864  16.832  0.00  0.00    +0.000 HD
ENDROOT
BRANCH  11  14
ATOM     14  N   UNL     1      -5.244  12.948  19.370  0.00  0.00    +0.000 NA
ATOM     15  C   UNL     1      -6.254  12.735  20.136  0.00  0.00    +0.000 C 
ATOM     16  N   UNL     1      -6.727  11.582  20.729  0.00  0.00    +0.000 N 
ATOM     17  N   UNL     1      -7.049  13.793  20.559  0.00  0.00    +0.000 N 
ATOM     18  H   UNL     1      -7.628  11.737  21.157  0.00  0.00    +0.000 HD
ATOM     19  H   UNL     1      -7.151  13.863  21.564  0.00  0.00    +0.000 HD
BRANCH  17  20
ATOM     20  C   UNL     1      -7.016  15.069  19.945  0.00  0.00    +0.000 A 
ATOM     21  C   UNL     1      -7.736  15.328  18.770  0.00  0.00    +0.000 A 
ATOM     22  C   UNL     1      -7.631  16.558  18.122  0.00  0.00    +0.000 A 
ATOM     23  C   UNL     1      -6.809  17.551  18.648  0.00  0.00    +0.000 A 
ATOM     24  C   UNL     1      -6.116  17.322  19.835  0.00  0.00    +0.000 A 
ATOM     25  C   UNL     1      -6.225  16.090  20.486  0.00  0.00    +0.000 A 
ENDBRANCH  17  20
BRANCH  16  26
ATOM     26  C   UNL     1      -6.769  10.381  19.924  0.00  0.00    +0.000 C 
ATOM     27  N   UNL     1      -6.814   9.439  19.252  0.00  0.00    +0.000 NA
ENDBRANCH  16  26
ENDBRANCH  11  14
BRANCH   8  28
ATOM     28  C   UNL     1      -1.086  13.248  22.481  0.00  0.00    +0.000 C 
ATOM     29  N   UNL     1      -0.909  13.575  23.579  0.00  0.00    +0.000 NA
ENDBRANCH   8  28
BRANCH  12  30
ATOM     30  O   UNL     1      -5.700  11.406  16.942  0.00  0.00    +0.000 OA
ATOM     31  H   UNL     1      -6.127  12.171  16.520  0.00  0.00    +0.000 HD
ENDBRANCH  12  30
TORSDOF 5
ENDMDL
MODEL 2
REMARK VINA RESULT:      -6.0      3.254      4.974
REMARK  Name = 
REMARK  7 active torsions:
REMARK  status: ('A' for Active; 'I' for Inactive)
REMARK    1  A    between atoms: C_1  and  C_2
REMARK    2  A    between atoms: C_2  and  C_3
REMARK    3  A    between atoms: C_8  and  C_9
REMARK    4  A    between atoms: C_13  and  N_14
REMARK    5  A    between atoms: N_16  and  C_17
REMARK    6  A    between atoms: N_19  and  C_20
REMARK    7  A    between atoms: C_26  and  O_27
REMARK                            x       y       z     vdW  Elec       q    Type
REMARK                         _______ _______ _______ _____ _____    ______ ____
ROOT
ATOM      1  C   UNL     1      -6.716  13.999  19.068  0.00  0.00    +0.000 C 
ATOM      2  C   UNL     1      -5.726  13.165  19.899  0.00  0.00    +0.000 C 
ATOM      3  C   UNL     1      -6.406  11.807  20.186  0.00  0.00    +0.000 C 
ATOM      4  N   UNL     1      -4.517  12.948  19.091  0.00  0.00    +0.000 N 
ATOM      5  C   UNL     1      -3.384  12.442  19.737  0.00  0.00    +0.000 A 
ATOM      6  C   UNL     1      -2.357  11.875  18.969  0.00  0.00    +0.000 A 
ATOM      7  C   UNL     1      -1.207  11.357  19.572  0.00  0.00    +0.000 A 
ATOM      8  C   UNL     1      -1.045  11.443  20.954  0.00  0.00    +0.000 A 
ATOM      9  C   UNL     1      -2.034  12.054  21.726  0.00  0.00    +0.000 A 
ATOM     10  C   UNL     1      -3.205  12.559  21.131  0.00  0.00    +0.000 A 
ATOM     11  C   UNL     1      -4.338  13.067  22.010  0.00  0.00    +0.000 C 
ATOM     12  C   UNL     1      -5.327  13.935  21.192  0.00  0.00    +0.000 C 
ATOM     13  H   UNL     1      -4.676  12.588  18.156  0.00  0.00    +0.000 HD
ENDROOT
BRANCH  11  14
ATOM     14  N   UNL     1      -3.870  13.833  23.165  0.00  0.00    +0.000 NA
ATOM     15  C   UNL     1      -4.134  13.559  24.393  0.00  0.00    +0.000 C 
ATOM     16  N   UNL     1      -4.875  12.545  24.966  0.00  0.00    +0.000 N 
ATOM     17  N   UNL     1      -3.579  14.317  25.416  0.00  0.00    +0.000 N 
ATOM     18  H   UNL     1      -5.000  12.701  25.956  0.00  0.00    +0.000 HD
ATOM     19  H   UNL     1      -3.068  13.778  26.105  0.00  0.00    +0.000 HD
BRANCH  17  20
ATOM     20  C   UNL     1      -2.985  15.583  25.196  0.00  0.00    +0.000 A 
ATOM     21  C   UNL     1      -3.768  16.721  24.955  0.00  0.00    +0.000 A 
ATOM     22  C   UNL     1      -3.177  17.947  24.651  0.00  0.00    +0.000 A 
ATOM     23  C   UNL     1      -1.790  18.053  24.594  0.00  0.00    +0.000 A 
ATOM     24  C   UNL     1      -0.997  16.939  24.867  0.00  0.00    +0.000 A 
ATOM     25  C   UNL     1      -1.590  15.712  25.175  0.00  0.00    +0.000 A 
ENDBRANCH  17  20
BRANCH  16  26
ATOM     26  C   UNL     1      -6.145  12.215  24.360  0.00  0.00    +0.000 C 
ATOM     27  N   UNL     1      -7.155  11.917  23.878  0.00  0.00    +0.000 NA
ENDBRANCH  16  26
ENDBRANCH  11  14
BRANCH   8  28
ATOM     28  C   UNL     1       0.109  10.877  21.589  0.00  0.00    +0.000 C 
ATOM     29  N   UNL     1       1.052  10.447  22.109  0.00  0.00    +0.000 NA
ENDBRANCH   8  28
BRANCH  12  30
ATOM     30  O   UNL     1      -6.478  14.318  21.963  0.00  0.00    +0.000 OA
ATOM     31  H   UNL     1      -6.227  15.056  22.544  0.00  0.00    +0.000 HD
ENDBRANCH  12  30
TORSDOF 5
ENDMDL
MODEL 3
REMARK VINA RESULT:      -5.8      1.006      1.197
REMARK  Name = 
REMARK  7 active torsions:
REMARK  status: ('A' for Active; 'I' for Inactive)
REMARK    1  A    between atoms: C_1  and  C_2
REMARK    2  A    between atoms: C_2  and  C_3
REMARK    3  A    between atoms: C_8  and  C_9
REMARK    4  A    between atoms: C_13  and  N_14
REMARK    5  A    between atoms: N_16  and  C_17
REMARK    6  A    between atoms: N_19  and  C_20
REMARK    7  A    between atoms: C_26  and  O_27
REMARK                            x       y       z     vdW  Elec       q    Type
REMARK                         _______ _______ _______ _____ _____    ______ ____
ROOT
ATOM      1  C   UNL     1      -2.595  10.388  15.767  0.00  0.00    +0.000 C 
ATOM      2  C   UNL     1      -3.005  10.683  17.220  0.00  0.00    +0.000 C 
ATOM      3  C   UNL     1      -3.349   9.328  17.878  0.00  0.00    +0.000 C 
ATOM      4  N   UNL     1      -1.853  11.285  17.909  0.00  0.00    +0.000 N 
ATOM      5  C   UNL     1      -2.075  11.872  19.159  0.00  0.00    +0.000 A 
ATOM      6  C   UNL     1      -0.982  12.114  20.003  0.00  0.00    +0.000 A 
ATOM      7  C   UNL     1      -1.157  12.699  21.261  0.00  0.00    +0.000 A 
ATOM      8  C   UNL     1      -2.428  13.097  21.673  0.00  0.00    +0.000 A 
ATOM      9  C   UNL     1      -3.518  12.913  20.822  0.00  0.00    +0.000 A 
ATOM     10  C   UNL     1      -3.355  12.305  19.563  0.00  0.00    +0.000 A 
ATOM     11  C   UNL     1      -4.579  11.965  18.726  0.00  0.00    +0.000 C 
ATOM     12  C   UNL     1      -4.186  11.696  17.252  0.00  0.00    +0.000 C 
ATOM     13  H   UNL     1      -0.978  10.777  17.821  0.00  0.00    +0.000 HD
ENDROOT
BRANCH  11  14
ATOM     14  N   UNL     1      -5.609  13.003  18.766  0.00  0.00    +0.000 NA
ATOM     15  C   UNL     1      -6.713  12.929  19.421  0.00  0.00    +0.000 C 
ATOM     16  N   UNL     1      -7.234  11.937  20.227  0.00  0.00    +0.000 N 
ATOM     17  N   UNL     1      -7.590  14.006  19.443  0.00  0.00    +0.000 N 
ATOM     18  H   UNL     1      -8.191  12.138  20.477  0.00  0.00    +0.000 HD
ATOM     19  H   UNL     1      -7.838  14.324  20.372  0.00  0.00    +0.000 HD
BRANCH  17  20
ATOM     20  C   UNL     1      -7.505  15.082  18.527  0.00  0.00    +0.000 A 
ATOM     21  C   UNL     1      -7.914  14.935  17.193  0.00  0.00    +0.000 A 
ATOM     22  C   UNL     1      -7.746  15.969  16.274  0.00  0.00    +0.000 A 
ATOM     23  C   UNL     1      -7.173  17.172  16.679  0.00  0.00    +0.000 A 
ATOM     24  C   UNL     1      -6.795  17.346  18.009  0.00  0.00    +0.000 A 
ATOM     25  C   UNL     1      -6.967  16.311  18.931  0.00  0.00    +0.000 A 
ENDBRANCH  17  20
BRANCH  16  26
ATOM     26  C   UNL     1      -7.127  10.571  19.767  0.00  0.00    +0.000 C 
ATOM     27  N   UNL     1      -7.018   9.487  19.373  0.00  0.00    +0.000 NA
ENDBRANCH  16  26
ENDBRANCH  11  14
BRANCH   8  28
ATOM     28  C   UNL     1      -2.628  13.658  22.978  0.00  0.00    +0.000 C 
ATOM     29  N   UNL     1      -2.760  14.106  24.039  0.00  0.00    +0.000 NA
ENDBRANCH   8  28
BRANCH  12  30
ATOM     30  O   UNL     1      -5.301  11.242  16.467  0.00  0.00    +0.000 OA
ATOM     31  H   UNL     1      -5.690  10.467  16.906  0.00  0.00    +0.000 HD
ENDBRANCH  12  30
TORSDOF 5
ENDMDL
MODEL 4
REMARK VINA RESULT:      -5.7      2.104      3.555
REMARK  Name = 
REMARK  7 active torsions:
REMARK  status: ('A' for Active; 'I' for Inactive)
REMARK    1  A    between atoms: C_1  and  C_2
REMARK    2  A    between atoms: C_2  and  C_3
REMARK    3  A    between atoms: C_8  and  C_9
REMARK    4  A    between atoms: C_13  and  N_14
REMARK    5  A    between atoms: N_16  and  C_17
REMARK    6  A    between atoms: N_19  and  C_20
REMARK    7  A    between atoms: C_26  and  O_27
REMARK                            x       y       z     vdW  Elec       q    Type
REMARK                         _______ _______ _______ _____ _____    ______ ____
ROOT
ATOM      1  C   UNL     1       1.116  13.457  18.231  0.00  0.00    +0.000 C 
ATOM      2  C   UNL     1       0.088  12.767  19.145  0.00  0.00    +0.000 C 
ATOM      3  C   UNL     1       0.541  11.299  19.308  0.00  0.00    +0.000 C 
ATOM      4  N   UNL     1       0.114  13.437  20.454  0.00  0.00    +0.000 N 
ATOM      5  C   UNL     1      -0.916  13.150  21.355  0.00  0.00    +0.000 A 
ATOM      6  C   UNL     1      -0.742  13.456  22.711  0.00  0.00    +0.000 A 
ATOM      7  C   UNL     1      -1.746  13.185  23.646  0.00  0.00    +0.000 A 
ATOM      8  C   UNL     1      -2.962  12.648  23.228  0.00  0.00    +0.000 A 
ATOM      9  C   UNL     1      -3.171  12.389  21.873  0.00  0.00    +0.000 A 
ATOM     10  C   UNL     1      -2.159  12.638  20.926  0.00  0.00    +0.000 A 
ATOM     11  C   UNL     1      -2.350  12.192  19.484  0.00  0.00    +0.000 C 
ATOM     12  C   UNL     1      -1.342  12.904  18.547  0.00  0.00    +0.000 C 
ATOM     13  H   UNL     1       1.034  13.543  20.871  0.00  0.00    +0.000 HD
ENDROOT
BRANCH  11  14
ATOM     14  N   UNL     1      -3.707  12.417  18.988  0.00  0.00    +0.000 NA
ATOM     15  C   UNL     1      -4.442  11.535  18.410  0.00  0.00    +0.000 C 
ATOM     16  N   UNL     1      -4.209  10.210  18.100  0.00  0.00    +0.000 N 
ATOM     17  N   UNL     1      -5.746  11.841  18.040  0.00  0.00    +0.000 N 
ATOM     18  H   UNL     1      -4.945   9.839  17.517  0.00  0.00    +0.000 HD
ATOM     19  H   UNL     1      -6.444  11.207  18.409  0.00  0.00    +0.000 HD
BRANCH  17  20
ATOM     20  C   UNL     1      -6.230  13.169  17.967  0.00  0.00    +0.000 A 
ATOM     21  C   UNL     1      -6.562  13.755  16.737  0.00  0.00    +0.000 A 
ATOM     22  C   UNL     1      -6.955  15.091  16.662  0.00  0.00    +0.000 A 
ATOM     23  C   UNL     1      -7.029  15.858  17.821  0.00  0.00    +0.000 A 
ATOM     24  C   UNL     1      -6.737  15.280  19.056  0.00  0.00    +0.000 A 
ATOM     25  C   UNL     1      -6.348  13.940  19.131  0.00  0.00    +0.000 A 
ENDBRANCH  17  20
BRANCH  16  26
ATOM     26  C   UNL     1      -2.922   9.867  17.540  0.00  0.00    +0.000 C 
ATOM     27  N   UNL     1      -1.897   9.559  17.097  0.00  0.00    +0.000 NA
ENDBRANCH  16  26
ENDBRANCH  11  14
BRANCH   8  28
ATOM     28  C   UNL     1      -3.983  12.326  24.182  0.00  0.00    +0.000 C 
ATOM     29  N   UNL     1      -4.827  12.058  24.930  0.00  0.00    +0.000 NA
ENDBRANCH   8  28
BRANCH  12  30
ATOM     30  O   UNL     1      -1.409  12.405  17.201  0.00  0.00    +0.000 OA
ATOM     31  H   UNL     1      -2.330  12.465  16.895  0.00  0.00    +0.000 HD
ENDBRANCH  12  30
TORSDOF 5
ENDMDL
MODEL 5
REMARK VINA RESULT:      -5.7      3.298      7.313
REMARK  Name = 
REMARK  7 active torsions:
REMARK  status: ('A' for Active; 'I' for Inactive)
REMARK    1  A    between atoms: C_1  and  C_2
REMARK    2  A    between atoms: C_2  and  C_3
REMARK    3  A    between atoms: C_8  and  C_9
REMARK    4  A    between atoms: C_13  and  N_14
REMARK    5  A    between atoms: N_16  and  C_17
REMARK    6  A    between atoms: N_19  and  C_20
REMARK    7  A    between atoms: C_26  and  O_27
REMARK                            x       y       z     vdW  Elec       q    Type
REMARK                         _______ _______ _______ _____ _____    ______ ____
ROOT
ATOM      1  C   UNL     1      -3.453  14.653  24.206  0.00  0.00    +0.000 C 
ATOM      2  C   UNL     1      -3.186  13.568  23.149  0.00  0.00    +0.000 C 
ATOM      3  C   UNL     1      -3.416  12.202  23.833  0.00  0.00    +0.000 C 
ATOM      4  N   UNL     1      -4.158  13.741  22.058  0.00  0.00    +0.000 N 
ATOM      5  C   UNL     1      -3.939  13.034  20.871  0.00  0.00    +0.000 A 
ATOM      6  C   UNL     1      -4.999  12.870  19.969  0.00  0.00    +0.000 A 
ATOM      7  C   UNL     1      -4.824  12.171  18.771  0.00  0.00    +0.000 A 
ATOM      8  C   UNL     1      -3.569  11.667  18.434  0.00  0.00    +0.000 A 
ATOM      9  C   UNL     1      -2.491  11.870  19.296  0.00  0.00    +0.000 A 
ATOM     10  C   UNL     1      -2.661  12.554  20.515  0.00  0.00    +0.000 A 
ATOM     11  C   UNL     1      -1.513  12.616  21.511  0.00  0.00    +0.000 C 
ATOM     12  C   UNL     1      -1.752  13.727  22.564  0.00  0.00    +0.000 C 
ATOM     13  H   UNL     1      -5.129  13.808  22.346  0.00  0.00    +0.000 HD
ENDROOT
BRANCH  11  14
ATOM     14  N   UNL     1      -0.212  12.830  20.875  0.00  0.00    +0.000 NA
ATOM     15  C   UNL     1       0.695  11.933  20.721  0.00  0.00    +0.000 C 
ATOM     16  N   UNL     1       0.732  10.598  21.072  0.00  0.00    +0.000 N 
ATOM     17  N   UNL     1       1.869  12.231  20.040  0.00  0.00    +0.000 N 
ATOM     18  H   UNL     1       1.654  10.211  20.933  0.00  0.00    +0.000 HD
ATOM     19  H   UNL     1       2.071  11.611  19.265  0.00  0.00    +0.000 HD
BRANCH  17  20
ATOM     20  C   UNL     1       2.282  13.558  19.772  0.00  0.00    +0.000 A 
ATOM     21  C   UNL     1       2.054  14.152  18.522  0.00  0.00    +0.000 A 
ATOM     22  C   UNL     1       2.541  15.426  18.234  0.00  0.00    +0.000 A 
ATOM     23  C   UNL     1       3.257  16.130  19.199  0.00  0.00    +0.000 A 
ATOM     24  C   UNL     1       3.461  15.568  20.459  0.00  0.00    +0.000 A 
ATOM     25  C   UNL     1       2.969  14.293  20.748  0.00  0.00    +0.000 A 
ENDBRANCH  17  20
BRANCH  16  26
ATOM     26  C   UNL     1       0.242  10.234  22.382  0.00  0.00    +0.000 C 
ATOM     27  N   UNL     1      -0.119   9.948  23.445  0.00  0.00    +0.000 NA
ENDBRANCH  16  26
ENDBRANCH  11  14
BRANCH   8  28
ATOM     28  C   UNL     1      -3.387  10.911  17.229  0.00  0.00    +0.000 C 
ATOM     29  N   UNL     1      -3.243  10.325  16.239  0.00  0.00    +0.000 NA
ENDBRANCH   8  28
BRANCH  12  30
ATOM     30  O   UNL     1      -0.751  13.721  23.595  0.00  0.00    +0.000 OA
ATOM     31  H   UNL     1      -1.198  13.691  24.458  0.00  0.00    +0.000 HD
ENDBRANCH  12  30
TORSDOF 5
ENDMDL
MODEL 6
REMARK VINA RESULT:      -5.6      2.689      4.542
REMARK  Name = 
REMARK  7 active torsions:
REMARK  status: ('A' for Active; 'I' for Inactive)
REMARK    1  A    between atoms: C_1  and  C_2
REMARK    2  A    between atoms: C_2  and  C_3
REMARK    3  A    between atoms: C_8  and  C_9
REMARK    4  A    between atoms: C_13  and  N_14
REMARK    5  A    between atoms: N_16  and  C_17
REMARK    6  A    between atoms: N_19  and  C_20
REMARK    7  A    between atoms: C_26  and  O_27
REMARK                            x       y       z     vdW  Elec       q    Type
REMARK                         _______ _______ _______ _____ _____    ______ ____
ROOT
ATOM      1  C   UNL     1      -7.565  12.443  18.367  0.00  0.00    +0.000 C 
ATOM      2  C   UNL     1      -6.195  11.947  18.860  0.00  0.00    +0.000 C 
ATOM      3  C   UNL     1      -6.462  10.895  19.960  0.00  0.00    +0.000 C 
ATOM      4  N   UNL     1      -5.502  11.311  17.730  0.00  0.00    +0.000 N 
ATOM      5  C   UNL     1      -4.142  11.021  17.878  0.00  0.00    +0.000 A 
ATOM      6  C   UNL     1      -3.542  10.101  17.007  0.00  0.00    +0.000 A 
ATOM      7  C   UNL     1      -2.185   9.782  17.119  0.00  0.00    +0.000 A 
ATOM      8  C   UNL     1      -1.395  10.418  18.075  0.00  0.00    +0.000 A 
ATOM      9  C   UNL     1      -1.966  11.377  18.912  0.00  0.00    +0.000 A 
ATOM     10  C   UNL     1      -3.336  11.690  18.823  0.00  0.00    +0.000 A 
ATOM     11  C   UNL     1      -3.968  12.612  19.854  0.00  0.00    +0.000 C 
ATOM     12  C   UNL     1      -5.334  13.146  19.357  0.00  0.00    +0.000 C 
ATOM     13  H   UNL     1      -6.039  10.610  17.227  0.00  0.00    +0.000 HD
ENDROOT
BRANCH  11  14
ATOM     14  N   UNL     1      -3.113  13.744  20.213  0.00  0.00    +0.000 NA
ATOM     15  C   UNL     1      -2.664  13.991  21.392  0.00  0.00    +0.000 C 
ATOM     16  N   UNL     1      -2.827  13.327  22.591  0.00  0.00    +0.000 N 
ATOM     17  N   UNL     1      -1.801  15.059  21.605  0.00  0.00    +0.000 N 
ATOM     18  H   UNL     1      -2.454  13.867  23.359  0.00  0.00    +0.000 HD
ATOM     19  H   UNL     1      -0.929  14.808  22.054  0.00  0.00    +0.000 HD
BRANCH  17  20
ATOM     20  C   UNL     1      -1.626  16.101  20.663  0.00  0.00    +0.000 A 
ATOM     21  C   UNL     1      -2.507  17.191  20.613  0.00  0.00    +0.000 A 
ATOM     22  C   UNL     1      -2.381  18.169  19.627  0.00  0.00    +0.000 A 
ATOM     23  C   UNL     1      -1.363  18.075  18.682  0.00  0.00    +0.000 A 
ATOM     24  C   UNL     1      -0.457  17.017  18.741  0.00  0.00    +0.000 A 
ATOM     25  C   UNL     1      -0.581  16.039  19.731  0.00  0.00    +0.000 A 
ENDBRANCH  17  20
BRANCH  16  26
ATOM     26  C   UNL     1      -4.152  12.855  22.924  0.00  0.00    +0.000 C 
ATOM     27  N   UNL     1      -5.226  12.494  23.162  0.00  0.00    +0.000 NA
ENDBRANCH  16  26
ENDBRANCH  11  14
BRANCH   8  28
ATOM     28  C   UNL     1      -0.013  10.068  18.228  0.00  0.00    +0.000 C 
ATOM     29  N   UNL     1       1.097   9.757  18.347  0.00  0.00    +0.000 NA
ENDBRANCH   8  28
BRANCH  12  30
ATOM     30  O   UNL     1      -6.016  13.912  20.364  0.00  0.00    +0.000 OA
ATOM     31  H   UNL     1      -6.960  13.949  20.136  0.00  0.00    +0.000 HD
ENDBRANCH  12  30
TORSDOF 5
ENDMDL
MODEL 7
REMARK VINA RESULT:      -5.4      2.662      5.413
REMARK  Name = 
REMARK  7 active torsions:
REMARK  status: ('A' for Active; 'I' for Inactive)
REMARK    1  A    between atoms: C_1  and  C_2
REMARK    2  A    between atoms: C_2  and  C_3
REMARK    3  A    between atoms: C_8  and  C_9
REMARK    4  A    between atoms: C_13  and  N_14
REMARK    5  A    between atoms: N_16  and  C_17
REMARK    6  A    between atoms: N_19  and  C_20
REMARK    7  A    between atoms: C_26  and  O_27
REMARK                            x       y       z     vdW  Elec       q    Type
REMARK                         _______ _______ _______ _____ _____    ______ ____
ROOT
ATOM      1  C   UNL     1      -6.883  13.864  19.442  0.00  0.00    +0.000 C 
ATOM      2  C   UNL     1      -5.653  12.977  19.702  0.00  0.00    +0.000 C 
ATOM      3  C   UNL     1      -6.132  11.775  20.546  0.00  0.00    +0.000 C 
ATOM      4  N   UNL     1      -5.150  12.498  18.405  0.00  0.00    +0.000 N 
ATOM      5  C   UNL     1      -3.890  11.892  18.379  0.00  0.00    +0.000 A 
ATOM      6  C   UNL     1      -3.537  11.101  17.276  0.00  0.00    +0.000 A 
ATOM      7  C   UNL     1      -2.288  10.476  17.208  0.00  0.00    +0.000 A 
ATOM      8  C   UNL     1      -1.352  10.675  18.222  0.00  0.00    +0.000 A 
ATOM      9  C   UNL     1      -1.669  11.504  19.299  0.00  0.00    +0.000 A 
ATOM     10  C   UNL     1      -2.932  12.119  19.388  0.00  0.00    +0.000 A 
ATOM     11  C   UNL     1      -3.312  12.880  20.649  0.00  0.00    +0.000 C 
ATOM     12  C   UNL     1      -4.530  13.803  20.394  0.00  0.00    +0.000 C 
ATOM     13  H   UNL     1      -5.845  12.074  17.798  0.00  0.00    +0.000 HD
ENDROOT
BRANCH  11  14
ATOM     14  N   UNL     1      -2.212  13.677  21.193  0.00  0.00    +0.000 NA
ATOM     15  C   UNL     1      -1.679  13.514  22.351  0.00  0.00    +0.000 C 
ATOM     16  N   UNL     1      -1.946  12.614  23.364  0.00  0.00    +0.000 N 
ATOM     17  N   UNL     1      -0.591  14.286  22.738  0.00  0.00    +0.000 N 
ATOM     18  H   UNL     1      -1.435  12.849  24.202  0.00  0.00    +0.000 HD
ATOM     19  H   UNL     1       0.218  13.752  23.032  0.00  0.00    +0.000 HD
BRANCH  17  20
ATOM     20  C   UNL     1      -0.217  15.475  22.065  0.00  0.00    +0.000 A 
ATOM     21  C   UNL     1      -0.855  16.694  22.335  0.00  0.00    +0.000 A 
ATOM     22  C   UNL     1      -0.544  17.842  21.608  0.00  0.00    +0.000 A 
ATOM     23  C   UNL     1       0.419  17.787  20.604  0.00  0.00    +0.000 A 
ATOM     24  C   UNL     1       1.088  16.591  20.348  0.00  0.00    +0.000 A 
ATOM     25  C   UNL     1       0.779  15.442  21.081  0.00  0.00    +0.000 A 
ENDBRANCH  17  20
BRANCH  16  26
ATOM     26  C   UNL     1      -3.331  12.361  23.690  0.00  0.00    +0.000 C 
ATOM     27  N   UNL     1      -4.449  12.161  23.918  0.00  0.00    +0.000 NA
ENDBRANCH  16  26
ENDBRANCH  11  14
BRANCH   8  28
ATOM     28  C   UNL     1      -0.084  10.006  18.185  0.00  0.00    +0.000 C 
ATOM     29  N   UNL     1       0.942   9.466  18.185  0.00  0.00    +0.000 NA
ENDBRANCH   8  28
BRANCH  12  30
ATOM     30  O   UNL     1      -4.995  14.432  21.600  0.00  0.00    +0.000 OA
ATOM     31  H   UNL     1      -5.025  13.763  22.304  0.00  0.00    +0.000 HD
ENDBRANCH  12  30
TORSDOF 5
ENDMDL
MODEL 8
REMARK VINA RESULT:      -5.4      3.606      7.588
REMARK  Name = 
REMARK  7 active torsions:
REMARK  status: ('A' for Active; 'I' for Inactive)
REMARK    1  A    between atoms: C_1  and  C_2
REMARK    2  A    between atoms: C_2  and  C_3
REMARK    3  A    between atoms: C_8  and  C_9
REMARK    4  A    between atoms: C_13  and  N_14
REMARK    5  A    between atoms: N_16  and  C_17
REMARK    6  A    between atoms: N_19  and  C_20
REMARK    7  A    between atoms: C_26  and  O_27
REMARK                            x       y       z     vdW  Elec       q    Type
REMARK                         _______ _______ _______ _____ _____    ______ ____
ROOT
ATOM      1  C   UNL     1      -1.911  13.804  23.554  0.00  0.00    +0.000 C 
ATOM      2  C   UNL     1      -1.741  12.906  22.316  0.00  0.00    +0.000 C 
ATOM      3  C   UNL     1      -1.623  11.452  22.824  0.00  0.00    +0.000 C 
ATOM      4  N   UNL     1      -2.945  13.040  21.483  0.00  0.00    +0.000 N 
ATOM      5  C   UNL     1      -2.901  12.519  20.185  0.00  0.00    +0.000 A 
ATOM      6  C   UNL     1      -4.103  12.286  19.502  0.00  0.00    +0.000 A 
ATOM      7  C   UNL     1      -4.105  11.767  18.204  0.00  0.00    +0.000 A 
ATOM      8  C   UNL     1      -2.900  11.519  17.549  0.00  0.00    +0.000 A 
ATOM      9  C   UNL     1      -1.695  11.798  18.196  0.00  0.00    +0.000 A 
ATOM     10  C   UNL     1      -1.682  12.300  19.511  0.00  0.00    +0.000 A 
ATOM     11  C   UNL     1      -0.360  12.438  20.252  0.00  0.00    +0.000 C 
ATOM     12  C   UNL     1      -0.509  13.365  21.483  0.00  0.00    +0.000 C 
ATOM     13  H   UNL     1      -3.828  12.911  21.968  0.00  0.00    +0.000 HD
ENDROOT
BRANCH  11  14
ATOM     14  N   UNL     1       0.724  12.935  19.405  0.00  0.00    +0.000 NA
ATOM     15  C   UNL     1       1.421  12.220  18.595  0.00  0.00    +0.000 C 
ATOM     16  N   UNL     1       1.374  10.875  18.288  0.00  0.00    +0.000 N 
ATOM     17  N   UNL     1       2.383  12.812  17.786  0.00  0.00    +0.000 N 
ATOM     18  H   UNL     1       2.158  10.606  17.711  0.00  0.00    +0.000 HD
ATOM     19  H   UNL     1       2.272  12.623  16.797  0.00  0.00    +0.000 HD
BRANCH  17  20
ATOM     20  C   UNL     1       2.881  14.117  18.018  0.00  0.00    +0.000 A 
ATOM     21  C   UNL     1       4.234  14.339  18.308  0.00  0.00    +0.000 A 
ATOM     22  C   UNL     1       4.701  15.614  18.622  0.00  0.00    +0.000 A 
ATOM     23  C   UNL     1       3.819  16.691  18.639  0.00  0.00    +0.000 A 
ATOM     24  C   UNL     1       2.477  16.494  18.317  0.00  0.00    +0.000 A 
ATOM     25  C   UNL     1       2.011  15.216  17.999  0.00  0.00    +0.000 A 
ENDBRANCH  17  20
BRANCH  16  26
ATOM     26  C   UNL     1       1.229   9.941  19.382  0.00  0.00    +0.000 C 
ATOM     27  N   UNL     1       1.094   9.216  20.275  0.00  0.00    +0.000 NA
ENDBRANCH  16  26
ENDBRANCH  11  14
BRANCH   8  28
ATOM     28  C   UNL     1      -2.889  10.947  16.234  0.00  0.00    +0.000 C 
ATOM     29  N   UNL     1      -2.849  10.486  15.172  0.00  0.00    +0.000 NA
ENDBRANCH   8  28
BRANCH  12  30
ATOM     30  O   UNL     1       0.688  13.408  22.278  0.00  0.00    +0.000 OA
ATOM     31  H   UNL     1       0.721  14.263  22.740  0.00  0.00    +0.000 HD
ENDBRANCH  12  30
TORSDOF 5
ENDMDL
MODEL 9
REMARK VINA RESULT:      -5.4      8.167     12.002
REMARK  Name = 
REMARK  7 active torsions:
REMARK  status: ('A' for Active; 'I' for Inactive)
REMARK    1  A    between atoms: C_1  and  C_2
REMARK    2  A    between atoms: C_2  and  C_3
REMARK    3  A    between atoms: C_8  and  C_9
REMARK    4  A    between atoms: C_13  and  N_14
REMARK    5  A    between atoms: N_16  and  C_17
REMARK    6  A    between atoms: N_19  and  C_20
REMARK    7  A    between atoms: C_26  and  O_27
REMARK                            x       y       z     vdW  Elec       q    Type
REMARK                         _______ _______ _______ _____ _____    ______ ____
ROOT
ATOM      1  C   UNL     1       2.187   3.095  21.915  0.00  0.00    +0.000 C 
ATOM      2  C   UNL     1       1.949   4.169  20.839  0.00  0.00    +0.000 C 
ATOM      3  C   UNL     1       0.787   3.671  19.950  0.00  0.00    +0.000 C 
ATOM      4  N   UNL     1       1.553   5.414  21.513  0.00  0.00    +0.000 N 
ATOM      5  C   UNL     1       1.540   6.590  20.755  0.00  0.00    +0.000 A 
ATOM      6  C   UNL     1       0.830   7.700  21.231  0.00  0.00    +0.000 A 
ATOM      7  C   UNL     1       0.789   8.896  20.506  0.00  0.00    +0.000 A 
ATOM      8  C   UNL     1       1.504   9.013  19.315  0.00  0.00    +0.000 A 
ATOM      9  C   UNL     1       2.261   7.934  18.857  0.00  0.00    +0.000 A 
ATOM     10  C   UNL     1       2.290   6.720  19.568  0.00  0.00    +0.000 A 
ATOM     11  C   UNL     1       2.985   5.509  18.963  0.00  0.00    +0.000 C 
ATOM     12  C   UNL     1       3.260   4.432  20.042  0.00  0.00    +0.000 C 
ATOM     13  H   UNL     1       0.796   5.326  22.183  0.00  0.00    +0.000 HD
ENDROOT
BRANCH  11  14
ATOM     14  N   UNL     1       4.240   5.844  18.289  0.00  0.00    +0.000 NA
ATOM     15  C   UNL     1       4.596   5.418  17.130  0.00  0.00    +0.000 C 
ATOM     16  N   UNL     1       3.966   4.585  16.227  0.00  0.00    +0.000 N 
ATOM     17  N   UNL     1       5.782   5.857  16.555  0.00  0.00    +0.000 N 
ATOM     18  H   UNL     1       4.585   4.339  15.468  0.00  0.00    +0.000 HD
ATOM     19  H   UNL     1       5.675   6.262  15.633  0.00  0.00    +0.000 HD
BRANCH  17  20
ATOM     20  C   UNL     1       6.799   6.505  17.297  0.00  0.00    +0.000 A 
ATOM     21  C   UNL     1       7.472   5.848  18.337  0.00  0.00    +0.000 A 
ATOM     22  C   UNL     1       8.410   6.518  19.121  0.00  0.00    +0.000 A 
ATOM     23  C   UNL     1       8.694   7.857  18.869  0.00  0.00    +0.000 A 
ATOM     24  C   UNL     1       8.060   8.515  17.816  0.00  0.00    +0.000 A 
ATOM     25  C   UNL     1       7.124   7.841  17.028  0.00  0.00    +0.000 A 
ENDBRANCH  17  20
BRANCH  16  26
ATOM     26  C   UNL     1       3.328   3.395  16.743  0.00  0.00    +0.000 C 
ATOM     27  N   UNL     1       2.801   2.437  17.125  0.00  0.00    +0.000 NA
ENDBRANCH  16  26
ENDBRANCH  11  14
BRANCH   8  28
ATOM     28  C   UNL     1       1.436  10.219  18.541  0.00  0.00    +0.000 C 
ATOM     29  N   UNL     1       1.404  11.204  17.932  0.00  0.00    +0.000 NA
ENDBRANCH   8  28
BRANCH  12  30
ATOM     30  O   UNL     1       3.794   3.223  19.477  0.00  0.00    +0.000 OA
ATOM     31  H   UNL     1       3.261   2.985  18.700  0.00  0.00    +0.000 HD
ENDBRANCH  12  30
TORSDOF 5
ENDMDL
