MODEL 1
REMARK VINA RESULT:      -8.5      0.000      0.000
REMARK  Name = 
REMARK  9 active torsions:
REMARK  status: ('A' for Active; 'I' for Inactive)
REMARK    1  A    between atoms: C_1  and  O_2
REMARK    2  A    between atoms: O_2  and  C_3
REMARK    3  A    between atoms: C_7  and  C_8
REMARK    4  A    between atoms: N_10  and  C_11
REMARK    5  A    between atoms: N_19  and  C_20
REMARK    6  A    between atoms: C_23  and  C_24
REMARK    7  A    between atoms: N_26  and  C_27
REMARK    8  A    between atoms: C_27  and  C_28
REMARK    9  A    between atoms: C_36  and  C_37
REMARK                            x       y       z     vdW  Elec       q    Type
REMARK                         _______ _______ _______ _____ _____    ______ ____
ROOT
ATOM      1  C   UNL     1       1.074   9.633  19.324  0.00  0.00    +0.000 C 
ATOM      2  C   UNL     1      -0.281   9.870  18.513  0.00  0.00    +0.000 C 
ATOM      3  C   UNL     1      -1.165  11.212  18.644  0.00  0.00    +0.000 C 
ATOM      4  C   UNL     1      -0.504  12.553  19.171  0.00  0.00    +0.000 C 
ATOM      5  C   UNL     1      -1.051  13.161  20.540  0.00  0.00    +0.000 C 
ATOM      6  C   UNL     1      -0.239  12.447  21.709  0.00  0.00    +0.000 C 
ATOM      7  C   UNL     1       0.411  11.388  20.858  0.00  0.00    +0.000 C 
ATOM      8  C   UNL     1       1.056  10.036  20.848  0.00  0.00    +0.000 C 
ATOM      9  N   UNL     1       0.793  12.143  19.645  0.00  0.00    +0.000 N 
ENDROOT
BRANCH   9  10
ATOM     10  C   UNL     1       1.875  12.994  19.512  0.00  0.00    +0.000 A 
ATOM     11  C   UNL     1       2.323  13.473  18.270  0.00  0.00    +0.000 A 
ATOM     12  C   UNL     1       3.440  14.321  18.173  0.00  0.00    +0.000 A 
ATOM     13  C   UNL     1       4.125  14.748  19.315  0.00  0.00    +0.000 A 
ATOM     14  C   UNL     1       3.651  14.342  20.564  0.00  0.00    +0.000 A 
ATOM     15  C   UNL     1       2.543  13.477  20.649  0.00  0.00    +0.000 A 
BRANCH  13  16
ATOM     16  C   UNL     1       5.292  15.667  19.153  0.00  0.00    +0.000 C 
ATOM     17  O   UNL     1       5.196  16.836  19.509  0.00  0.00    +0.000 OA
ATOM     18  N   UNL     1       6.426  15.137  18.579  0.00  0.00    +0.000 N 
ATOM     19  H   UNL     1       6.403  14.214  18.168  0.00  0.00    +0.000 HD
BRANCH  18  20
ATOM     20  C   UNL     1       7.618  15.932  18.341  0.00  0.00    +0.000 C 
BRANCH  20  21
ATOM     21  C   UNL     1       8.804  15.062  18.006  0.00  0.00    +0.000 A 
ATOM     22  C   UNL     1       8.662  13.667  17.949  0.00  0.00    +0.000 A 
ATOM     23  C   UNL     1       9.752  12.852  17.641  0.00  0.00    +0.000 A 
ATOM     24  C   UNL     1      10.996  13.423  17.377  0.00  0.00    +0.000 A 
ATOM     25  C   UNL     1      11.151  14.807  17.415  0.00  0.00    +0.000 A 
ATOM     26  C   UNL     1      10.059  15.623  17.725  0.00  0.00    +0.000 A 
ENDBRANCH  20  21
ENDBRANCH  18  20
ENDBRANCH  13  16
ENDBRANCH   9  10
BRANCH   1  29
ATOM     27  C   UNL     1       2.421   7.973  17.988  0.00  0.00    +0.000 C 
ATOM     28  O   UNL     1       2.692   8.733  17.071  0.00  0.00    +0.000 OA
ATOM     29  N   UNL     1       1.693   8.330  19.096  0.00  0.00    +0.000 N 
ATOM     30  H   UNL     1       1.500   7.624  19.794  0.00  0.00    +0.000 HD
BRANCH  27  35
ATOM     31  C   UNL     1       4.428   4.745  17.528  0.00  0.00    +0.000 A 
ATOM     32  C   UNL     1       3.456   3.795  17.859  0.00  0.00    +0.000 A 
ATOM     33  C   UNL     1       2.180   4.205  18.236  0.00  0.00    +0.000 A 
ATOM     34  C   UNL     1       1.872   5.564  18.284  0.00  0.00    +0.000 A 
ATOM     35  C   UNL     1       2.838   6.534  17.958  0.00  0.00    +0.000 A 
ATOM     36  C   UNL     1       4.135   6.130  17.581  0.00  0.00    +0.000 A 
ATOM     37  C   UNL     1       5.231   7.102  17.231  0.00  0.00    +0.000 C 
BRANCH  31  39
ATOM     38  C   UNL     1       5.908   3.884  15.880  0.00  0.00    +0.000 C 
ATOM     39  O   UNL     1       5.718   4.414  17.187  0.00  0.00    +0.000 OA
ENDBRANCH  31  39
ENDBRANCH  27  35
ENDBRANCH   1  29
TORSDOF 7
ENDMDL
MODEL 2
REMARK VINA RESULT:      -8.5      2.210      8.816
REMARK  Name = 
REMARK  9 active torsions:
REMARK  status: ('A' for Active; 'I' for Inactive)
REMARK    1  A    between atoms: C_1  and  O_2
REMARK    2  A    between atoms: O_2  and  C_3
REMARK    3  A    between atoms: C_7  and  C_8
REMARK    4  A    between atoms: N_10  and  C_11
REMARK    5  A    between atoms: N_19  and  C_20
REMARK    6  A    between atoms: C_23  and  C_24
REMARK    7  A    between atoms: N_26  and  C_27
REMARK    8  A    between atoms: C_27  and  C_28
REMARK    9  A    between atoms: C_36  and  C_37
REMARK                            x       y       z     vdW  Elec       q    Type
REMARK                         _______ _______ _______ _____ _____    ______ ____
ROOT
ATOM      1  C   UNL     1       1.813  13.134  20.124  0.00  0.00    +0.000 C 
ATOM      2  C   UNL     1       0.690  13.370  21.235  0.00  0.00    +0.000 C 
ATOM      3  C   UNL     1      -0.701  12.556  21.271  0.00  0.00    +0.000 C 
ATOM      4  C   UNL     1      -0.822  11.153  20.543  0.00  0.00    +0.000 C 
ATOM      5  C   UNL     1      -1.849  11.036  19.327  0.00  0.00    +0.000 C 
ATOM      6  C   UNL     1      -1.063  11.506  18.025  0.00  0.00    +0.000 C 
ATOM      7  C   UNL     1       0.146  12.060  18.731  0.00  0.00    +0.000 C 
ATOM      8  C   UNL     1       1.308  13.002  18.637  0.00  0.00    +0.000 C 
ATOM      9  N   UNL     1       0.395  11.047  19.780  0.00  0.00    +0.000 N 
ENDROOT
BRANCH   9  10
ATOM     10  C   UNL     1       0.993   9.812  19.606  0.00  0.00    +0.000 A 
ATOM     11  C   UNL     1       1.598   9.419  18.401  0.00  0.00    +0.000 A 
ATOM     12  C   UNL     1       2.179   8.147  18.256  0.00  0.00    +0.000 A 
ATOM     13  C   UNL     1       2.207   7.240  19.320  0.00  0.00    +0.000 A 
ATOM     14  C   UNL     1       1.676   7.639  20.547  0.00  0.00    +0.000 A 
ATOM     15  C   UNL     1       1.079   8.909  20.676  0.00  0.00    +0.000 A 
BRANCH  13  16
ATOM     16  C   UNL     1       2.858   5.910  19.115  0.00  0.00    +0.000 C 
ATOM     17  O   UNL     1       3.389   5.343  20.063  0.00  0.00    +0.000 OA
ATOM     18  N   UNL     1       2.840   5.399  17.835  0.00  0.00    +0.000 N 
ATOM     19  H   UNL     1       2.524   5.971  17.066  0.00  0.00    +0.000 HD
BRANCH  18  20
ATOM     20  C   UNL     1       3.461   4.130  17.500  0.00  0.00    +0.000 C 
BRANCH  20  21
ATOM     21  C   UNL     1       4.821   4.330  16.877  0.00  0.00    +0.000 A 
ATOM     22  C   UNL     1       4.962   4.335  15.481  0.00  0.00    +0.000 A 
ATOM     23  C   UNL     1       6.215   4.519  14.894  0.00  0.00    +0.000 A 
ATOM     24  C   UNL     1       7.340   4.707  15.695  0.00  0.00    +0.000 A 
ATOM     25  C   UNL     1       7.214   4.719  17.083  0.00  0.00    +0.000 A 
ATOM     26  C   UNL     1       5.959   4.534  17.671  0.00  0.00    +0.000 A 
ENDBRANCH  20  21
ENDBRANCH  18  20
ENDBRANCH  13  16
ENDBRANCH   9  10
BRANCH   1  29
ATOM     27  C   UNL     1       3.027  15.328  19.863  0.00  0.00    +0.000 C 
ATOM     28  O   UNL     1       2.075  15.951  19.419  0.00  0.00    +0.000 OA
ATOM     29  N   UNL     1       2.975  14.010  20.246  0.00  0.00    +0.000 N 
ATOM     30  H   UNL     1       3.823  13.572  20.581  0.00  0.00    +0.000 HD
BRANCH  27  35
ATOM     31  C   UNL     1       6.676  16.326  19.275  0.00  0.00    +0.000 A 
ATOM     32  C   UNL     1       6.902  17.129  20.398  0.00  0.00    +0.000 A 
ATOM     33  C   UNL     1       5.878  17.347  21.316  0.00  0.00    +0.000 A 
ATOM     34  C   UNL     1       4.627  16.764  21.115  0.00  0.00    +0.000 A 
ATOM     35  C   UNL     1       4.381  15.957  19.989  0.00  0.00    +0.000 A 
ATOM     36  C   UNL     1       5.409  15.734  19.050  0.00  0.00    +0.000 A 
ATOM     37  C   UNL     1       5.225  14.896  17.812  0.00  0.00    +0.000 C 
BRANCH  31  39
ATOM     38  C   UNL     1       8.673  17.061  18.216  0.00  0.00    +0.000 C 
ATOM     39  O   UNL     1       7.627  16.100  18.309  0.00  0.00    +0.000 OA
ENDBRANCH  31  39
ENDBRANCH  27  35
ENDBRANCH   1  29
TORSDOF 7
ENDMDL
MODEL 3
REMARK VINA RESULT:      -8.5      1.126      1.514
REMARK  Name = 
REMARK  9 active torsions:
REMARK  status: ('A' for Active; 'I' for Inactive)
REMARK    1  A    between atoms: C_1  and  O_2
REMARK    2  A    between atoms: O_2  and  C_3
REMARK    3  A    between atoms: C_7  and  C_8
REMARK    4  A    between atoms: N_10  and  C_11
REMARK    5  A    between atoms: N_19  and  C_20
REMARK    6  A    between atoms: C_23  and  C_24
REMARK    7  A    between atoms: N_26  and  C_27
REMARK    8  A    between atoms: C_27  and  C_28
REMARK    9  A    between atoms: C_36  and  C_37
REMARK                            x       y       z     vdW  Elec       q    Type
REMARK                         _______ _______ _______ _____ _____    ______ ____
ROOT
ATOM      1  C   UNL     1       0.814   9.991  19.856  0.00  0.00    +0.000 C 
ATOM      2  C   UNL     1      -0.386  10.142  18.813  0.00  0.00    +0.000 C 
ATOM      3  C   UNL     1      -1.117  11.546  18.506  0.00  0.00    +0.000 C 
ATOM      4  C   UNL     1      -0.379  12.914  18.820  0.00  0.00    +0.000 C 
ATOM      5  C   UNL     1      -1.028  13.870  19.920  0.00  0.00    +0.000 C 
ATOM      6  C   UNL     1      -0.465  13.386  21.328  0.00  0.00    +0.000 C 
ATOM      7  C   UNL     1       0.164  12.106  20.843  0.00  0.00    +0.000 C 
ATOM      8  C   UNL     1       0.642  10.741  21.232  0.00  0.00    +0.000 C 
ATOM      9  N   UNL     1       0.787  12.521  19.568  0.00  0.00    +0.000 N 
ENDROOT
BRANCH   9  10
ATOM     10  C   UNL     1       1.969  13.223  19.419  0.00  0.00    +0.000 A 
ATOM     11  C   UNL     1       2.516  13.544  18.166  0.00  0.00    +0.000 A 
ATOM     12  C   UNL     1       3.731  14.243  18.056  0.00  0.00    +0.000 A 
ATOM     13  C   UNL     1       4.421  14.676  19.192  0.00  0.00    +0.000 A 
ATOM     14  C   UNL     1       3.858  14.430  20.445  0.00  0.00    +0.000 A 
ATOM     15  C   UNL     1       2.650  13.713  20.545  0.00  0.00    +0.000 A 
BRANCH  13  16
ATOM     16  C   UNL     1       5.697  15.434  19.013  0.00  0.00    +0.000 C 
ATOM     17  O   UNL     1       5.792  16.572  19.457  0.00  0.00    +0.000 OA
ATOM     18  N   UNL     1       6.707  14.798  18.325  0.00  0.00    +0.000 N 
ATOM     19  H   UNL     1       6.527  13.924  17.853  0.00  0.00    +0.000 HD
BRANCH  18  20
ATOM     20  C   UNL     1       7.984  15.437  18.061  0.00  0.00    +0.000 C 
BRANCH  20  21
ATOM     21  C   UNL     1       9.121  14.447  18.134  0.00  0.00    +0.000 A 
ATOM     22  C   UNL     1      10.373  14.846  18.627  0.00  0.00    +0.000 A 
ATOM     23  C   UNL     1      11.431  13.939  18.699  0.00  0.00    +0.000 A 
ATOM     24  C   UNL     1      11.249  12.620  18.288  0.00  0.00    +0.000 A 
ATOM     25  C   UNL     1      10.008  12.204  17.810  0.00  0.00    +0.000 A 
ATOM     26  C   UNL     1       8.948  13.113  17.736  0.00  0.00    +0.000 A 
ENDBRANCH  20  21
ENDBRANCH  18  20
ENDBRANCH  13  16
ENDBRANCH   9  10
BRANCH   1  29
ATOM     27  C   UNL     1       2.104   7.949  19.133  0.00  0.00    +0.000 C 
ATOM     28  O   UNL     1       2.561   8.439  18.112  0.00  0.00    +0.000 OA
ATOM     29  N   UNL     1       1.301   8.624  20.019  0.00  0.00    +0.000 N 
ATOM     30  H   UNL     1       0.951   8.127  20.828  0.00  0.00    +0.000 HD
BRANCH  27  35
ATOM     31  C   UNL     1       3.327   4.321  19.101  0.00  0.00    +0.000 A 
ATOM     32  C   UNL     1       2.663   3.822  20.227  0.00  0.00    +0.000 A 
ATOM     33  C   UNL     1       1.847   4.660  20.984  0.00  0.00    +0.000 A 
ATOM     34  C   UNL     1       1.691   5.996  20.618  0.00  0.00    +0.000 A 
ATOM     35  C   UNL     1       2.354   6.516  19.491  0.00  0.00    +0.000 A 
ATOM     36  C   UNL     1       3.188   5.679  18.721  0.00  0.00    +0.000 A 
ATOM     37  C   UNL     1       3.944   6.159  17.510  0.00  0.00    +0.000 C 
BRANCH  31  39
ATOM     38  C   UNL     1       3.664   2.326  17.856  0.00  0.00    +0.000 C 
ATOM     39  O   UNL     1       4.178   3.564  18.333  0.00  0.00    +0.000 OA
ENDBRANCH  31  39
ENDBRANCH  27  35
ENDBRANCH   1  29
TORSDOF 7
ENDMDL
MODEL 4
REMARK VINA RESULT:      -8.5      1.060      1.450
REMARK  Name = 
REMARK  9 active torsions:
REMARK  status: ('A' for Active; 'I' for Inactive)
REMARK    1  A    between atoms: C_1  and  O_2
REMARK    2  A    between atoms: O_2  and  C_3
REMARK    3  A    between atoms: C_7  and  C_8
REMARK    4  A    between atoms: N_10  and  C_11
REMARK    5  A    between atoms: N_19  and  C_20
REMARK    6  A    between atoms: C_23  and  C_24
REMARK    7  A    between atoms: N_26  and  C_27
REMARK    8  A    between atoms: C_27  and  C_28
REMARK    9  A    between atoms: C_36  and  C_37
REMARK                            x       y       z     vdW  Elec       q    Type
REMARK                         _______ _______ _______ _____ _____    ______ ____
ROOT
ATOM      1  C   UNL     1       0.869  10.109  19.839  0.00  0.00    +0.000 C 
ATOM      2  C   UNL     1      -0.300  10.245  18.759  0.00  0.00    +0.000 C 
ATOM      3  C   UNL     1      -1.054  11.634  18.443  0.00  0.00    +0.000 C 
ATOM      4  C   UNL     1      -0.358  13.015  18.794  0.00  0.00    +0.000 C 
ATOM      5  C   UNL     1      -1.064  13.945  19.882  0.00  0.00    +0.000 C 
ATOM      6  C   UNL     1      -0.535  13.459  21.302  0.00  0.00    +0.000 C 
ATOM      7  C   UNL     1       0.138  12.199  20.826  0.00  0.00    +0.000 C 
ATOM      8  C   UNL     1       0.636  10.840  21.216  0.00  0.00    +0.000 C 
ATOM      9  N   UNL     1       0.792  12.641  19.575  0.00  0.00    +0.000 N 
ENDROOT
BRANCH   9  10
ATOM     10  C   UNL     1       1.962  13.372  19.472  0.00  0.00    +0.000 A 
ATOM     11  C   UNL     1       2.736  13.737  20.586  0.00  0.00    +0.000 A 
ATOM     12  C   UNL     1       3.910  14.497  20.442  0.00  0.00    +0.000 A 
ATOM     13  C   UNL     1       4.369  14.887  19.180  0.00  0.00    +0.000 A 
ATOM     14  C   UNL     1       3.653  14.472  18.056  0.00  0.00    +0.000 A 
ATOM     15  C   UNL     1       2.468  13.727  18.212  0.00  0.00    +0.000 A 
BRANCH  13  16
ATOM     16  C   UNL     1       5.635  15.677  19.087  0.00  0.00    +0.000 C 
ATOM     17  O   UNL     1       5.601  16.826  18.664  0.00  0.00    +0.000 OA
ATOM     18  N   UNL     1       6.794  15.040  19.472  0.00  0.00    +0.000 N 
ATOM     19  H   UNL     1       6.788  14.050  19.670  0.00  0.00    +0.000 HD
BRANCH  18  20
ATOM     20  C   UNL     1       8.092  15.689  19.403  0.00  0.00    +0.000 C 
BRANCH  20  21
ATOM     21  C   UNL     1       9.073  14.874  18.596  0.00  0.00    +0.000 A 
ATOM     22  C   UNL     1       8.787  13.538  18.280  0.00  0.00    +0.000 A 
ATOM     23  C   UNL     1       9.688  12.775  17.534  0.00  0.00    +0.000 A 
ATOM     24  C   UNL     1      10.880  13.342  17.089  0.00  0.00    +0.000 A 
ATOM     25  C   UNL     1      11.172  14.673  17.382  0.00  0.00    +0.000 A 
ATOM     26  C   UNL     1      10.271  15.436  18.130  0.00  0.00    +0.000 A 
ENDBRANCH  20  21
ENDBRANCH  18  20
ENDBRANCH  13  16
ENDBRANCH   9  10
BRANCH   1  29
ATOM     27  C   UNL     1       2.108   8.052  19.073  0.00  0.00    +0.000 C 
ATOM     28  O   UNL     1       2.465   8.508  17.998  0.00  0.00    +0.000 OA
ATOM     29  N   UNL     1       1.382   8.753  20.005  0.00  0.00    +0.000 N 
ATOM     30  H   UNL     1       1.112   8.282  20.858  0.00  0.00    +0.000 HD
BRANCH  27  35
ATOM     31  C   UNL     1       3.503   4.487  19.145  0.00  0.00    +0.000 A 
ATOM     32  C   UNL     1       2.794   3.961  20.229  0.00  0.00    +0.000 A 
ATOM     33  C   UNL     1       1.892   4.761  20.927  0.00  0.00    +0.000 A 
ATOM     34  C   UNL     1       1.695   6.086  20.542  0.00  0.00    +0.000 A 
ATOM     35  C   UNL     1       2.403   6.634  19.456  0.00  0.00    +0.000 A 
ATOM     36  C   UNL     1       3.324   5.835  18.747  0.00  0.00    +0.000 A 
ATOM     37  C   UNL     1       4.132   6.346  17.583  0.00  0.00    +0.000 C 
BRANCH  31  39
ATOM     38  C   UNL     1       3.936   2.733  17.602  0.00  0.00    +0.000 C 
ATOM     39  O   UNL     1       4.437   3.769  18.438  0.00  0.00    +0.000 OA
ENDBRANCH  31  39
ENDBRANCH  27  35
ENDBRANCH   1  29
TORSDOF 7
ENDMDL
MODEL 5
REMARK VINA RESULT:      -8.5      1.933      8.754
REMARK  Name = 
REMARK  9 active torsions:
REMARK  status: ('A' for Active; 'I' for Inactive)
REMARK    1  A    between atoms: C_1  and  O_2
REMARK    2  A    between atoms: O_2  and  C_3
REMARK    3  A    between atoms: C_7  and  C_8
REMARK    4  A    between atoms: N_10  and  C_11
REMARK    5  A    between atoms: N_19  and  C_20
REMARK    6  A    between atoms: C_23  and  C_24
REMARK    7  A    between atoms: N_26  and  C_27
REMARK    8  A    between atoms: C_27  and  C_28
REMARK    9  A    between atoms: C_36  and  C_37
REMARK                            x       y       z     vdW  Elec       q    Type
REMARK                         _______ _______ _______ _____ _____    ______ ____
ROOT
ATOM      1  C   UNL     1       1.937  13.764  20.057  0.00  0.00    +0.000 C 
ATOM      2  C   UNL     1       0.968  14.056  21.293  0.00  0.00    +0.000 C 
ATOM      3  C   UNL     1      -0.445  13.309  21.502  0.00  0.00    +0.000 C 
ATOM      4  C   UNL     1      -0.720  11.913  20.804  0.00  0.00    +0.000 C 
ATOM      5  C   UNL     1      -1.889  11.843  19.722  0.00  0.00    +0.000 C 
ATOM      6  C   UNL     1      -1.245  12.272  18.331  0.00  0.00    +0.000 C 
ATOM      7  C   UNL     1       0.066  12.769  18.883  0.00  0.00    +0.000 C 
ATOM      8  C   UNL     1       1.251  13.654  18.643  0.00  0.00    +0.000 C 
ATOM      9  N   UNL     1       0.390  11.747  19.901  0.00  0.00    +0.000 N 
ENDROOT
BRANCH   9  10
ATOM     10  C   UNL     1       0.905  10.485  19.666  0.00  0.00    +0.000 A 
ATOM     11  C   UNL     1       0.949   9.482  20.648  0.00  0.00    +0.000 A 
ATOM     12  C   UNL     1       1.497   8.217  20.376  0.00  0.00    +0.000 A 
ATOM     13  C   UNL     1       1.986   7.898  19.106  0.00  0.00    +0.000 A 
ATOM     14  C   UNL     1       1.885   8.857  18.096  0.00  0.00    +0.000 A 
ATOM     15  C   UNL     1       1.351  10.128  18.384  0.00  0.00    +0.000 A 
BRANCH  13  16
ATOM     16  C   UNL     1       2.538   6.529  18.869  0.00  0.00    +0.000 C 
ATOM     17  O   UNL     1       2.129   5.868  17.922  0.00  0.00    +0.000 OA
ATOM     18  N   UNL     1       3.482   6.076  19.764  0.00  0.00    +0.000 N 
ATOM     19  H   UNL     1       3.673   6.597  20.607  0.00  0.00    +0.000 HD
BRANCH  18  20
ATOM     20  C   UNL     1       4.074   4.754  19.660  0.00  0.00    +0.000 C 
BRANCH  20  21
ATOM     21  C   UNL     1       5.246   4.748  18.709  0.00  0.00    +0.000 A 
ATOM     22  C   UNL     1       6.485   5.265  19.115  0.00  0.00    +0.000 A 
ATOM     23  C   UNL     1       7.576   5.265  18.243  0.00  0.00    +0.000 A 
ATOM     24  C   UNL     1       7.442   4.741  16.959  0.00  0.00    +0.000 A 
ATOM     25  C   UNL     1       6.222   4.210  16.546  0.00  0.00    +0.000 A 
ATOM     26  C   UNL     1       5.129   4.211  17.418  0.00  0.00    +0.000 A 
ENDBRANCH  20  21
ENDBRANCH  18  20
ENDBRANCH  13  16
ENDBRANCH   9  10
BRANCH   1  29
ATOM     27  C   UNL     1       3.221  15.884  19.597  0.00  0.00    +0.000 C 
ATOM     28  O   UNL     1       2.260  16.540  19.225  0.00  0.00    +0.000 OA
ATOM     29  N   UNL     1       3.145  14.584  20.032  0.00  0.00    +0.000 N 
ATOM     30  H   UNL     1       4.000  14.115  20.299  0.00  0.00    +0.000 HD
BRANCH  27  35
ATOM     31  C   UNL     1       6.915  16.494  18.795  0.00  0.00    +0.000 A 
ATOM     32  C   UNL     1       7.194  17.543  19.678  0.00  0.00    +0.000 A 
ATOM     33  C   UNL     1       6.192  18.045  20.504  0.00  0.00    +0.000 A 
ATOM     34  C   UNL     1       4.909  17.501  20.451  0.00  0.00    +0.000 A 
ATOM     35  C   UNL     1       4.609  16.448  19.567  0.00  0.00    +0.000 A 
ATOM     36  C   UNL     1       5.614  15.936  18.721  0.00  0.00    +0.000 A 
ATOM     37  C   UNL     1       5.374  14.822  17.737  0.00  0.00    +0.000 C 
BRANCH  31  39
ATOM     38  C   UNL     1       9.145  15.750  18.451  0.00  0.00    +0.000 C 
ATOM     39  O   UNL     1       7.843  15.977  17.924  0.00  0.00    +0.000 OA
ENDBRANCH  31  39
ENDBRANCH  27  35
ENDBRANCH   1  29
TORSDOF 7
ENDMDL
MODEL 6
REMARK VINA RESULT:      -8.4      1.114      1.938
REMARK  Name = 
REMARK  9 active torsions:
REMARK  status: ('A' for Active; 'I' for Inactive)
REMARK    1  A    between atoms: C_1  and  O_2
REMARK    2  A    between atoms: O_2  and  C_3
REMARK    3  A    between atoms: C_7  and  C_8
REMARK    4  A    between atoms: N_10  and  C_11
REMARK    5  A    between atoms: N_19  and  C_20
REMARK    6  A    between atoms: C_23  and  C_24
REMARK    7  A    between atoms: N_26  and  C_27
REMARK    8  A    between atoms: C_27  and  C_28
REMARK    9  A    between atoms: C_36  and  C_37
REMARK                            x       y       z     vdW  Elec       q    Type
REMARK                         _______ _______ _______ _____ _____    ______ ____
ROOT
ATOM      1  C   UNL     1       1.022   9.846  19.603  0.00  0.00    +0.000 C 
ATOM      2  C   UNL     1      -0.326   9.987  18.759  0.00  0.00    +0.000 C 
ATOM      3  C   UNL     1      -1.239  11.316  18.768  0.00  0.00    +0.000 C 
ATOM      4  C   UNL     1      -0.612  12.710  19.189  0.00  0.00    +0.000 C 
ATOM      5  C   UNL     1      -1.190  13.417  20.497  0.00  0.00    +0.000 C 
ATOM      6  C   UNL     1      -0.379  12.820  21.730  0.00  0.00    +0.000 C 
ATOM      7  C   UNL     1       0.304  11.708  20.978  0.00  0.00    +0.000 C 
ATOM      8  C   UNL     1       0.975  10.373  21.087  0.00  0.00    +0.000 C 
ATOM      9  N   UNL     1       0.686  12.368  19.711  0.00  0.00    +0.000 N 
ENDROOT
BRANCH   9  10
ATOM     10  C   UNL     1       1.753  13.227  19.520  0.00  0.00    +0.000 A 
ATOM     11  C   UNL     1       2.612  13.622  20.559  0.00  0.00    +0.000 A 
ATOM     12  C   UNL     1       3.675  14.513  20.329  0.00  0.00    +0.000 A 
ATOM     13  C   UNL     1       3.937  15.011  19.049  0.00  0.00    +0.000 A 
ATOM     14  C   UNL     1       3.140  14.574  17.991  0.00  0.00    +0.000 A 
ATOM     15  C   UNL     1       2.066  13.696  18.234  0.00  0.00    +0.000 A 
BRANCH  13  16
ATOM     16  C   UNL     1       5.094  15.939  18.861  0.00  0.00    +0.000 C 
ATOM     17  O   UNL     1       4.911  17.150  18.899  0.00  0.00    +0.000 OA
ATOM     18  N   UNL     1       6.323  15.361  18.631  0.00  0.00    +0.000 N 
ATOM     19  H   UNL     1       6.394  14.369  18.462  0.00  0.00    +0.000 HD
BRANCH  18  20
ATOM     20  C   UNL     1       7.520  16.153  18.406  0.00  0.00    +0.000 C 
BRANCH  20  21
ATOM     21  C   UNL     1       8.691  15.284  18.018  0.00  0.00    +0.000 A 
ATOM     22  C   UNL     1       8.568  13.886  18.035  0.00  0.00    +0.000 A 
ATOM     23  C   UNL     1       9.644  13.072  17.679  0.00  0.00    +0.000 A 
ATOM     24  C   UNL     1      10.855  13.646  17.294  0.00  0.00    +0.000 A 
ATOM     25  C   UNL     1      10.989  15.033  17.259  0.00  0.00    +0.000 A 
ATOM     26  C   UNL     1       9.911  15.848  17.617  0.00  0.00    +0.000 A 
ENDBRANCH  20  21
ENDBRANCH  18  20
ENDBRANCH  13  16
ENDBRANCH   9  10
BRANCH   1  29
ATOM     27  C   UNL     1       2.331   8.069  18.384  0.00  0.00    +0.000 C 
ATOM     28  O   UNL     1       2.508   8.716  17.363  0.00  0.00    +0.000 OA
ATOM     29  N   UNL     1       1.670   8.543  19.491  0.00  0.00    +0.000 N 
ATOM     30  H   UNL     1       1.552   7.924  20.283  0.00  0.00    +0.000 HD
BRANCH  27  35
ATOM     31  C   UNL     1       2.955   4.505  19.635  0.00  0.00    +0.000 A 
ATOM     32  C   UNL     1       3.815   4.035  18.637  0.00  0.00    +0.000 A 
ATOM     33  C   UNL     1       4.169   4.863  17.575  0.00  0.00    +0.000 A 
ATOM     34  C   UNL     1       3.666   6.161  17.507  0.00  0.00    +0.000 A 
ATOM     35  C   UNL     1       2.796   6.650  18.500  0.00  0.00    +0.000 A 
ATOM     36  C   UNL     1       2.426   5.818  19.576  0.00  0.00    +0.000 A 
ATOM     37  C   UNL     1       1.490   6.256  20.671  0.00  0.00    +0.000 C 
BRANCH  31  39
ATOM     38  C   UNL     1       1.672   2.644  20.367  0.00  0.00    +0.000 C 
ATOM     39  O   UNL     1       2.532   3.731  20.688  0.00  0.00    +0.000 OA
ENDBRANCH  31  39
ENDBRANCH  27  35
ENDBRANCH   1  29
TORSDOF 7
ENDMDL
MODEL 7
REMARK VINA RESULT:      -8.3      1.029      1.970
REMARK  Name = 
REMARK  9 active torsions:
REMARK  status: ('A' for Active; 'I' for Inactive)
REMARK    1  A    between atoms: C_1  and  O_2
REMARK    2  A    between atoms: O_2  and  C_3
REMARK    3  A    between atoms: C_7  and  C_8
REMARK    4  A    between atoms: N_10  and  C_11
REMARK    5  A    between atoms: N_19  and  C_20
REMARK    6  A    between atoms: C_23  and  C_24
REMARK    7  A    between atoms: N_26  and  C_27
REMARK    8  A    between atoms: C_27  and  C_28
REMARK    9  A    between atoms: C_36  and  C_37
REMARK                            x       y       z     vdW  Elec       q    Type
REMARK                         _______ _______ _______ _____ _____    ______ ____
ROOT
ATOM      1  C   UNL     1       1.158   9.535  18.613  0.00  0.00    +0.000 C 
ATOM      2  C   UNL     1      -0.235   9.873  17.907  0.00  0.00    +0.000 C 
ATOM      3  C   UNL     1      -1.156  11.128  18.326  0.00  0.00    +0.000 C 
ATOM      4  C   UNL     1      -0.518  12.366  19.084  0.00  0.00    +0.000 C 
ATOM      5  C   UNL     1      -1.031  12.674  20.563  0.00  0.00    +0.000 C 
ATOM      6  C   UNL     1      -0.151  11.779  21.542  0.00  0.00    +0.000 C 
ATOM      7  C   UNL     1       0.499  10.931  20.480  0.00  0.00    +0.000 C 
ATOM      8  C   UNL     1       1.185   9.633  20.185  0.00  0.00    +0.000 C 
ATOM      9  N   UNL     1       0.809  11.922  19.428  0.00  0.00    +0.000 N 
ENDROOT
BRANCH   9  10
ATOM     10  C   UNL     1       1.858  12.824  19.429  0.00  0.00    +0.000 A 
ATOM     11  C   UNL     1       2.465  13.289  20.607  0.00  0.00    +0.000 A 
ATOM     12  C   UNL     1       3.517  14.221  20.569  0.00  0.00    +0.000 A 
ATOM     13  C   UNL     1       4.021  14.692  19.353  0.00  0.00    +0.000 A 
ATOM     14  C   UNL     1       3.480  14.188  18.169  0.00  0.00    +0.000 A 
ATOM     15  C   UNL     1       2.413  13.268  18.219  0.00  0.00    +0.000 A 
BRANCH  13  16
ATOM     16  C   UNL     1       5.155  15.666  19.373  0.00  0.00    +0.000 C 
ATOM     17  O   UNL     1       4.983  16.784  19.846  0.00  0.00    +0.000 OA
ATOM     18  N   UNL     1       6.347  15.245  18.826  0.00  0.00    +0.000 N 
ATOM     19  H   UNL     1       6.392  14.374  18.318  0.00  0.00    +0.000 HD
BRANCH  18  20
ATOM     20  C   UNL     1       7.515  16.105  18.760  0.00  0.00    +0.000 C 
BRANCH  20  21
ATOM     21  C   UNL     1       8.707  15.375  18.192  0.00  0.00    +0.000 A 
ATOM     22  C   UNL     1       9.824  16.093  17.741  0.00  0.00    +0.000 A 
ATOM     23  C   UNL     1      10.932  15.428  17.213  0.00  0.00    +0.000 A 
ATOM     24  C   UNL     1      10.939  14.036  17.137  0.00  0.00    +0.000 A 
ATOM     25  C   UNL     1       9.842  13.307  17.594  0.00  0.00    +0.000 A 
ATOM     26  C   UNL     1       8.732  13.974  18.122  0.00  0.00    +0.000 A 
ENDBRANCH  20  21
ENDBRANCH  18  20
ENDBRANCH  13  16
ENDBRANCH   9  10
BRANCH   1  29
ATOM     27  C   UNL     1       2.375   7.345  18.889  0.00  0.00    +0.000 C 
ATOM     28  O   UNL     1       2.353   7.338  20.110  0.00  0.00    +0.000 OA
ATOM     29  N   UNL     1       1.808   8.327  18.114  0.00  0.00    +0.000 N 
ATOM     30  H   UNL     1       1.897   8.258  17.109  0.00  0.00    +0.000 HD
BRANCH  27  35
ATOM     31  C   UNL     1       3.376   3.982  17.356  0.00  0.00    +0.000 A 
ATOM     32  C   UNL     1       4.554   4.348  16.695  0.00  0.00    +0.000 A 
ATOM     33  C   UNL     1       4.999   5.667  16.741  0.00  0.00    +0.000 A 
ATOM     34  C   UNL     1       4.270   6.623  17.447  0.00  0.00    +0.000 A 
ATOM     35  C   UNL     1       3.081   6.274  18.115  0.00  0.00    +0.000 A 
ATOM     36  C   UNL     1       2.618   4.943  18.069  0.00  0.00    +0.000 A 
ATOM     37  C   UNL     1       1.349   4.490  18.743  0.00  0.00    +0.000 C 
BRANCH  31  39
ATOM     38  C   UNL     1       3.542   1.728  18.090  0.00  0.00    +0.000 C 
ATOM     39  O   UNL     1       2.857   2.711  17.320  0.00  0.00    +0.000 OA
ENDBRANCH  31  39
ENDBRANCH  27  35
ENDBRANCH   1  29
TORSDOF 7
ENDMDL
MODEL 8
REMARK VINA RESULT:      -8.2      0.708      1.246
REMARK  Name = 
REMARK  9 active torsions:
REMARK  status: ('A' for Active; 'I' for Inactive)
REMARK    1  A    between atoms: C_1  and  O_2
REMARK    2  A    between atoms: O_2  and  C_3
REMARK    3  A    between atoms: C_7  and  C_8
REMARK    4  A    between atoms: N_10  and  C_11
REMARK    5  A    between atoms: N_19  and  C_20
REMARK    6  A    between atoms: C_23  and  C_24
REMARK    7  A    between atoms: N_26  and  C_27
REMARK    8  A    between atoms: C_27  and  C_28
REMARK    9  A    between atoms: C_36  and  C_37
REMARK                            x       y       z     vdW  Elec       q    Type
REMARK                         _______ _______ _______ _____ _____    ______ ____
ROOT
ATOM      1  C   UNL     1       1.052   9.660  19.250  0.00  0.00    +0.000 C 
ATOM      2  C   UNL     1      -0.243   9.929  18.355  0.00  0.00    +0.000 C 
ATOM      3  C   UNL     1      -1.119  11.280  18.453  0.00  0.00    +0.000 C 
ATOM      4  C   UNL     1      -0.479  12.603  19.047  0.00  0.00    +0.000 C 
ATOM      5  C   UNL     1      -1.109  13.193  20.389  0.00  0.00    +0.000 C 
ATOM      6  C   UNL     1      -0.384  12.447  21.594  0.00  0.00    +0.000 C 
ATOM      7  C   UNL     1       0.309  11.396  20.769  0.00  0.00    +0.000 C 
ATOM      8  C   UNL     1       0.937  10.036  20.776  0.00  0.00    +0.000 C 
ATOM      9  N   UNL     1       0.779  12.168  19.598  0.00  0.00    +0.000 N 
ENDROOT
BRANCH   9  10
ATOM     10  C   UNL     1       1.878  13.007  19.553  0.00  0.00    +0.000 A 
ATOM     11  C   UNL     1       2.541  13.461  20.705  0.00  0.00    +0.000 A 
ATOM     12  C   UNL     1       3.643  14.329  20.619  0.00  0.00    +0.000 A 
ATOM     13  C   UNL     1       4.142  14.744  19.380  0.00  0.00    +0.000 A 
ATOM     14  C   UNL     1       3.542  14.246  18.222  0.00  0.00    +0.000 A 
ATOM     15  C   UNL     1       2.426  13.391  18.320  0.00  0.00    +0.000 A 
BRANCH  13  16
ATOM     16  C   UNL     1       5.330  15.651  19.350  0.00  0.00    +0.000 C 
ATOM     17  O   UNL     1       5.298  16.710  19.966  0.00  0.00    +0.000 OA
ATOM     18  N   UNL     1       6.407  15.240  18.595  0.00  0.00    +0.000 N 
ATOM     19  H   UNL     1       6.325  14.436  17.991  0.00  0.00    +0.000 HD
BRANCH  18  20
ATOM     20  C   UNL     1       7.610  16.043  18.463  0.00  0.00    +0.000 C 
BRANCH  20  21
ATOM     21  C   UNL     1       8.845  15.248  18.810  0.00  0.00    +0.000 A 
ATOM     22  C   UNL     1       9.738  15.723  19.781  0.00  0.00    +0.000 A 
ATOM     23  C   UNL     1      10.884  14.996  20.110  0.00  0.00    +0.000 A 
ATOM     24  C   UNL     1      11.145  13.782  19.477  0.00  0.00    +0.000 A 
ATOM     25  C   UNL     1      10.259  13.290  18.520  0.00  0.00    +0.000 A 
ATOM     26  C   UNL     1       9.113  14.018  18.190  0.00  0.00    +0.000 A 
ENDBRANCH  20  21
ENDBRANCH  18  20
ENDBRANCH  13  16
ENDBRANCH   9  10
BRANCH   1  29
ATOM     27  C   UNL     1       2.434   7.996  17.955  0.00  0.00    +0.000 C 
ATOM     28  O   UNL     1       2.742   8.757  17.051  0.00  0.00    +0.000 OA
ATOM     29  N   UNL     1       1.669   8.354  19.038  0.00  0.00    +0.000 N 
ATOM     30  H   UNL     1       1.447   7.647  19.726  0.00  0.00    +0.000 HD
BRANCH  27  35
ATOM     31  C   UNL     1       4.421   4.753  17.516  0.00  0.00    +0.000 A 
ATOM     32  C   UNL     1       3.443   3.811  17.852  0.00  0.00    +0.000 A 
ATOM     33  C   UNL     1       2.169   4.231  18.227  0.00  0.00    +0.000 A 
ATOM     34  C   UNL     1       1.869   5.592  18.266  0.00  0.00    +0.000 A 
ATOM     35  C   UNL     1       2.842   6.554  17.934  0.00  0.00    +0.000 A 
ATOM     36  C   UNL     1       4.136   6.140  17.560  0.00  0.00    +0.000 A 
ATOM     37  C   UNL     1       5.238   7.103  17.204  0.00  0.00    +0.000 C 
BRANCH  31  39
ATOM     38  C   UNL     1       5.894   3.869  15.874  0.00  0.00    +0.000 C 
ATOM     39  O   UNL     1       5.708   4.412  17.176  0.00  0.00    +0.000 OA
ENDBRANCH  31  39
ENDBRANCH  27  35
ENDBRANCH   1  29
TORSDOF 7
ENDMDL
MODEL 9
REMARK VINA RESULT:      -8.2      2.185      8.943
REMARK  Name = 
REMARK  9 active torsions:
REMARK  status: ('A' for Active; 'I' for Inactive)
REMARK    1  A    between atoms: C_1  and  O_2
REMARK    2  A    between atoms: O_2  and  C_3
REMARK    3  A    between atoms: C_7  and  C_8
REMARK    4  A    between atoms: N_10  and  C_11
REMARK    5  A    between atoms: N_19  and  C_20
REMARK    6  A    between atoms: C_23  and  C_24
REMARK    7  A    between atoms: N_26  and  C_27
REMARK    8  A    between atoms: C_27  and  C_28
REMARK    9  A    between atoms: C_36  and  C_37
REMARK                            x       y       z     vdW  Elec       q    Type
REMARK                         _______ _______ _______ _____ _____    ______ ____
ROOT
ATOM      1  C   UNL     1       1.953  13.184  19.828  0.00  0.00    +0.000 C 
ATOM      2  C   UNL     1       0.998  13.530  21.061  0.00  0.00    +0.000 C 
ATOM      3  C   UNL     1      -0.381  12.749  21.356  0.00  0.00    +0.000 C 
ATOM      4  C   UNL     1      -0.614  11.295  20.769  0.00  0.00    +0.000 C 
ATOM      5  C   UNL     1      -1.801  11.101  19.721  0.00  0.00    +0.000 C 
ATOM      6  C   UNL     1      -1.202  11.450  18.288  0.00  0.00    +0.000 C 
ATOM      7  C   UNL     1       0.099  12.035  18.772  0.00  0.00    +0.000 C 
ATOM      8  C   UNL     1       1.244  12.944  18.441  0.00  0.00    +0.000 C 
ATOM      9  N   UNL     1       0.483  11.105  19.855  0.00  0.00    +0.000 N 
ENDROOT
BRANCH   9  10
ATOM     10  C   UNL     1       1.042   9.848  19.701  0.00  0.00    +0.000 A 
ATOM     11  C   UNL     1       1.710   9.447  18.533  0.00  0.00    +0.000 A 
ATOM     12  C   UNL     1       2.248   8.154  18.407  0.00  0.00    +0.000 A 
ATOM     13  C   UNL     1       2.168   7.232  19.456  0.00  0.00    +0.000 A 
ATOM     14  C   UNL     1       1.572   7.636  20.651  0.00  0.00    +0.000 A 
ATOM     15  C   UNL     1       1.019   8.928  20.760  0.00  0.00    +0.000 A 
BRANCH  13  16
ATOM     16  C   UNL     1       2.777   5.879  19.272  0.00  0.00    +0.000 C 
ATOM     17  O   UNL     1       2.060   4.885  19.299  0.00  0.00    +0.000 OA
ATOM     18  N   UNL     1       4.142   5.829  19.101  0.00  0.00    +0.000 N 
ATOM     19  H   UNL     1       4.701   6.660  19.235  0.00  0.00    +0.000 HD
BRANCH  18  20
ATOM     20  C   UNL     1       4.857   4.575  18.940  0.00  0.00    +0.000 C 
BRANCH  20  21
ATOM     21  C   UNL     1       5.527   4.492  17.590  0.00  0.00    +0.000 A 
ATOM     22  C   UNL     1       6.920   4.622  17.486  0.00  0.00    +0.000 A 
ATOM     23  C   UNL     1       7.550   4.547  16.242  0.00  0.00    +0.000 A 
ATOM     24  C   UNL     1       6.796   4.331  15.090  0.00  0.00    +0.000 A 
ATOM     25  C   UNL     1       5.413   4.185  15.179  0.00  0.00    +0.000 A 
ATOM     26  C   UNL     1       4.782   4.262  16.424  0.00  0.00    +0.000 A 
ENDBRANCH  20  21
ENDBRANCH  18  20
ENDBRANCH  13  16
ENDBRANCH   9  10
BRANCH   1  29
ATOM     27  C   UNL     1       3.511  14.731  18.590  0.00  0.00    +0.000 C 
ATOM     28  O   UNL     1       2.875  14.749  17.547  0.00  0.00    +0.000 OA
ATOM     29  N   UNL     1       3.127  14.045  19.715  0.00  0.00    +0.000 N 
ATOM     30  H   UNL     1       3.732  14.071  20.525  0.00  0.00    +0.000 HD
BRANCH  27  35
ATOM     31  C   UNL     1       6.225  17.299  19.425  0.00  0.00    +0.000 A 
ATOM     32  C   UNL     1       7.329  16.712  18.797  0.00  0.00    +0.000 A 
ATOM     33  C   UNL     1       7.187  15.499  18.128  0.00  0.00    +0.000 A 
ATOM     34  C   UNL     1       5.944  14.869  18.086  0.00  0.00    +0.000 A 
ATOM     35  C   UNL     1       4.824  15.443  18.715  0.00  0.00    +0.000 A 
ATOM     36  C   UNL     1       4.957  16.668  19.400  0.00  0.00    +0.000 A 
ATOM     37  C   UNL     1       3.814  17.342  20.113  0.00  0.00    +0.000 C 
BRANCH  31  39
ATOM     38  C   UNL     1       7.412  18.608  21.014  0.00  0.00    +0.000 C 
ATOM     39  O   UNL     1       6.301  18.473  20.136  0.00  0.00    +0.000 OA
ENDBRANCH  31  39
ENDBRANCH  27  35
ENDBRANCH   1  29
TORSDOF 7
ENDMDL
