MODEL 1
REMARK VINA RESULT:      -7.5      0.000      0.000
REMARK  Name = 
REMARK  5 active torsions:
REMARK  status: ('A' for Active; 'I' for Inactive)
REMARK    1  A    between atoms: C_1  and  C_2
REMARK    2  A    between atoms: N_4  and  C_5
REMARK    3  A    between atoms: C_5  and  C_6
REMARK    4  A    between atoms: N_8  and  C_9
REMARK    5  A    between atoms: C_13  and  C_14
REMARK                            x       y       z     vdW  Elec       q    Type
REMARK                         _______ _______ _______ _____ _____    ______ ____
ROOT
ATOM      1  C   UNL     1       6.752   4.276  15.473  0.00  0.00    +0.000 C 
ATOM      2  C   UNL     1       5.663   4.162  16.521  0.00  0.00    +0.000 C 
ATOM      3  N   UNL     1       5.510   5.515  16.972  0.00  0.00    +0.000 N 
ATOM      4  C   UNL     1       6.627   6.249  16.604  0.00  0.00    +0.000 C 
ATOM      5  O   UNL     1       6.918   7.402  16.886  0.00  0.00    +0.000 OA
ATOM      6  O   UNL     1       7.464   5.468  15.848  0.00  0.00    +0.000 OA
ENDROOT
BRANCH   3   7
ATOM      7  C   UNL     1       4.441   5.956  17.789  0.00  0.00    +0.000 A 
ATOM      8  C   UNL     1       4.053   5.237  18.927  0.00  0.00    +0.000 A 
ATOM      9  C   UNL     1       3.014   5.687  19.745  0.00  0.00    +0.000 A 
ATOM     10  C   UNL     1       2.322   6.850  19.424  0.00  0.00    +0.000 A 
ATOM     11  C   UNL     1       2.671   7.580  18.285  0.00  0.00    +0.000 A 
ATOM     12  C   UNL     1       1.886   8.797  17.889  0.00  0.00    +0.000 C 
ATOM     13  C   UNL     1       3.741   7.137  17.487  0.00  0.00    +0.000 A 
ENDBRANCH   3   7
BRANCH   1  14
ATOM     14  C   UNL     1       6.199   4.462  14.055  0.00  0.00    +0.000 C 
BRANCH  14  18
ATOM     15  C   UNL     1       6.020   1.698  11.467  0.00  0.00    +0.000 C 
ATOM     16  C   UNL     1       5.592   2.934  12.211  0.00  0.00    +0.000 C 
ATOM     17  O   UNL     1       4.576   3.561  11.931  0.00  0.00    +0.000 OA
ATOM     18  N   UNL     1       6.453   3.297  13.219  0.00  0.00    +0.000 N 
ATOM     19  H   UNL     1       7.125   2.616  13.553  0.00  0.00    +0.000 HD
ENDBRANCH  14  18
ENDBRANCH   1  14
TORSDOF 3
ENDMDL
MODEL 2
REMARK VINA RESULT:      -7.5      2.706      6.304
REMARK  Name = 
REMARK  5 active torsions:
REMARK  status: ('A' for Active; 'I' for Inactive)
REMARK    1  A    between atoms: C_1  and  C_2
REMARK    2  A    between atoms: N_4  and  C_5
REMARK    3  A    between atoms: C_5  and  C_6
REMARK    4  A    between atoms: N_8  and  C_9
REMARK    5  A    between atoms: C_13  and  C_14
REMARK                            x       y       z     vdW  Elec       q    Type
REMARK                         _______ _______ _______ _____ _____    ______ ____
ROOT
ATOM      1  C   UNL     1       4.959   4.905  18.001  0.00  0.00    +0.000 C 
ATOM      2  C   UNL     1       4.923   5.232  16.522  0.00  0.00    +0.000 C 
ATOM      3  N   UNL     1       6.169   4.706  16.047  0.00  0.00    +0.000 N 
ATOM      4  C   UNL     1       7.023   4.510  17.121  0.00  0.00    +0.000 C 
ATOM      5  O   UNL     1       8.197   4.172  17.120  0.00  0.00    +0.000 OA
ATOM      6  O   UNL     1       6.363   4.791  18.291  0.00  0.00    +0.000 OA
ENDROOT
BRANCH   3   7
ATOM      7  C   UNL     1       6.491   4.562  14.675  0.00  0.00    +0.000 A 
ATOM      8  C   UNL     1       7.485   5.348  14.077  0.00  0.00    +0.000 A 
ATOM      9  C   UNL     1       7.818   5.188  12.730  0.00  0.00    +0.000 A 
ATOM     10  C   UNL     1       7.142   4.258  11.946  0.00  0.00    +0.000 A 
ATOM     11  C   UNL     1       6.133   3.472  12.507  0.00  0.00    +0.000 A 
ATOM     12  C   UNL     1       5.348   2.517  11.655  0.00  0.00    +0.000 C 
ATOM     13  C   UNL     1       5.829   3.617  13.872  0.00  0.00    +0.000 A 
ENDBRANCH   3   7
BRANCH   1  14
ATOM     14  C   UNL     1       4.280   3.571  18.335  0.00  0.00    +0.000 C 
BRANCH  14  18
ATOM     15  C   UNL     1       1.089   4.110  20.309  0.00  0.00    +0.000 C 
ATOM     16  C   UNL     1       1.964   3.979  19.091  0.00  0.00    +0.000 C 
ATOM     17  O   UNL     1       1.534   4.080  17.948  0.00  0.00    +0.000 OA
ATOM     18  N   UNL     1       3.282   3.721  19.384  0.00  0.00    +0.000 N 
ATOM     19  H   UNL     1       3.613   3.891  20.328  0.00  0.00    +0.000 HD
ENDBRANCH  14  18
ENDBRANCH   1  14
TORSDOF 3
ENDMDL
MODEL 3
REMARK VINA RESULT:      -7.5      1.995      2.939
REMARK  Name = 
REMARK  5 active torsions:
REMARK  status: ('A' for Active; 'I' for Inactive)
REMARK    1  A    between atoms: C_1  and  C_2
REMARK    2  A    between atoms: N_4  and  C_5
REMARK    3  A    between atoms: C_5  and  C_6
REMARK    4  A    between atoms: N_8  and  C_9
REMARK    5  A    between atoms: C_13  and  C_14
REMARK                            x       y       z     vdW  Elec       q    Type
REMARK                         _______ _______ _______ _____ _____    ______ ____
ROOT
ATOM      1  C   UNL     1       6.782   4.234  16.787  0.00  0.00    +0.000 C 
ATOM      2  C   UNL     1       5.376   3.924  17.263  0.00  0.00    +0.000 C 
ATOM      3  N   UNL     1       5.300   4.623  18.512  0.00  0.00    +0.000 N 
ATOM      4  C   UNL     1       6.582   4.921  18.949  0.00  0.00    +0.000 C 
ATOM      5  O   UNL     1       6.938   5.418  20.007  0.00  0.00    +0.000 OA
ATOM      6  O   UNL     1       7.494   4.537  17.998  0.00  0.00    +0.000 OA
ENDROOT
BRANCH   3   7
ATOM      7  C   UNL     1       4.095   4.828  19.228  0.00  0.00    +0.000 A 
ATOM      8  C   UNL     1       3.445   6.068  19.213  0.00  0.00    +0.000 A 
ATOM      9  C   UNL     1       2.243   6.261  19.900  0.00  0.00    +0.000 A 
ATOM     10  C   UNL     1       1.684   5.223  20.639  0.00  0.00    +0.000 A 
ATOM     11  C   UNL     1       2.317   3.980  20.689  0.00  0.00    +0.000 A 
ATOM     12  C   UNL     1       1.762   2.875  21.541  0.00  0.00    +0.000 C 
ATOM     13  C   UNL     1       3.508   3.786  19.967  0.00  0.00    +0.000 A 
ENDBRANCH   3   7
BRANCH   1  14
ATOM     14  C   UNL     1       6.844   5.457  15.864  0.00  0.00    +0.000 C 
BRANCH  14  18
ATOM     15  C   UNL     1       7.210   4.180  12.313  0.00  0.00    +0.000 C 
ATOM     16  C   UNL     1       6.526   4.464  13.623  0.00  0.00    +0.000 C 
ATOM     17  O   UNL     1       5.360   4.160  13.846  0.00  0.00    +0.000 OA
ATOM     18  N   UNL     1       7.328   5.108  14.536  0.00  0.00    +0.000 N 
ATOM     19  H   UNL     1       8.331   5.109  14.386  0.00  0.00    +0.000 HD
ENDBRANCH  14  18
ENDBRANCH   1  14
TORSDOF 3
ENDMDL
MODEL 4
REMARK VINA RESULT:      -7.4      1.031      1.815
REMARK  Name = 
REMARK  5 active torsions:
REMARK  status: ('A' for Active; 'I' for Inactive)
REMARK    1  A    between atoms: C_1  and  C_2
REMARK    2  A    between atoms: N_4  and  C_5
REMARK    3  A    between atoms: C_5  and  C_6
REMARK    4  A    between atoms: N_8  and  C_9
REMARK    5  A    between atoms: C_13  and  C_14
REMARK                            x       y       z     vdW  Elec       q    Type
REMARK                         _______ _______ _______ _____ _____    ______ ____
ROOT
ATOM      1  C   UNL     1       6.694   3.922  15.629  0.00  0.00    +0.000 C 
ATOM      2  C   UNL     1       5.348   4.066  16.309  0.00  0.00    +0.000 C 
ATOM      3  N   UNL     1       5.505   5.265  17.080  0.00  0.00    +0.000 N 
ATOM      4  C   UNL     1       6.856   5.548  17.216  0.00  0.00    +0.000 C 
ATOM      5  O   UNL     1       7.397   6.420  17.879  0.00  0.00    +0.000 OA
ATOM      6  O   UNL     1       7.591   4.646  16.489  0.00  0.00    +0.000 OA
ENDROOT
BRANCH   3   7
ATOM      7  C   UNL     1       4.433   5.942  17.711  0.00  0.00    +0.000 A 
ATOM      8  C   UNL     1       4.038   7.220  17.296  0.00  0.00    +0.000 A 
ATOM      9  C   UNL     1       2.964   7.876  17.903  0.00  0.00    +0.000 A 
ATOM     10  C   UNL     1       2.284   7.278  18.959  0.00  0.00    +0.000 A 
ATOM     11  C   UNL     1       2.665   6.012  19.410  0.00  0.00    +0.000 A 
ATOM     12  C   UNL     1       1.985   5.387  20.594  0.00  0.00    +0.000 C 
ATOM     13  C   UNL     1       3.725   5.346  18.769  0.00  0.00    +0.000 A 
ENDBRANCH   3   7
BRANCH   1  14
ATOM     14  C   UNL     1       6.731   4.561  14.235  0.00  0.00    +0.000 C 
BRANCH  14  18
ATOM     15  C   UNL     1       4.451   3.112  11.576  0.00  0.00    +0.000 C 
ATOM     16  C   UNL     1       5.746   3.419  12.278  0.00  0.00    +0.000 C 
ATOM     17  O   UNL     1       6.834   3.032  11.868  0.00  0.00    +0.000 OA
ATOM     18  N   UNL     1       5.589   4.159  13.426  0.00  0.00    +0.000 N 
ATOM     19  H   UNL     1       4.712   4.646  13.574  0.00  0.00    +0.000 HD
ENDBRANCH  14  18
ENDBRANCH   1  14
TORSDOF 3
ENDMDL
MODEL 5
REMARK VINA RESULT:      -7.4      0.373      1.626
REMARK  Name = 
REMARK  5 active torsions:
REMARK  status: ('A' for Active; 'I' for Inactive)
REMARK    1  A    between atoms: C_1  and  C_2
REMARK    2  A    between atoms: N_4  and  C_5
REMARK    3  A    between atoms: C_5  and  C_6
REMARK    4  A    between atoms: N_8  and  C_9
REMARK    5  A    between atoms: C_13  and  C_14
REMARK                            x       y       z     vdW  Elec       q    Type
REMARK                         _______ _______ _______ _____ _____    ______ ____
ROOT
ATOM      1  C   UNL     1       6.631   4.194  15.397  0.00  0.00    +0.000 C 
ATOM      2  C   UNL     1       5.536   4.121  16.442  0.00  0.00    +0.000 C 
ATOM      3  N   UNL     1       5.431   5.478  16.891  0.00  0.00    +0.000 N 
ATOM      4  C   UNL     1       6.574   6.172  16.526  0.00  0.00    +0.000 C 
ATOM      5  O   UNL     1       6.905   7.314  16.807  0.00  0.00    +0.000 OA
ATOM      6  O   UNL     1       7.385   5.359  15.773  0.00  0.00    +0.000 OA
ENDROOT
BRANCH   3   7
ATOM      7  C   UNL     1       4.375   5.959  17.705  0.00  0.00    +0.000 A 
ATOM      8  C   UNL     1       3.780   7.202  17.459  0.00  0.00    +0.000 A 
ATOM      9  C   UNL     1       2.722   7.664  18.248  0.00  0.00    +0.000 A 
ATOM     10  C   UNL     1       2.261   6.902  19.317  0.00  0.00    +0.000 A 
ATOM     11  C   UNL     1       2.846   5.666  19.600  0.00  0.00    +0.000 A 
ATOM     12  C   UNL     1       2.405   4.868  20.793  0.00  0.00    +0.000 C 
ATOM     13  C   UNL     1       3.886   5.196  18.779  0.00  0.00    +0.000 A 
ENDBRANCH   3   7
BRANCH   1  14
ATOM     14  C   UNL     1       6.089   4.397  13.977  0.00  0.00    +0.000 C 
BRANCH  14  18
ATOM     15  C   UNL     1       6.038   1.700  11.315  0.00  0.00    +0.000 C 
ATOM     16  C   UNL     1       5.559   2.901  12.084  0.00  0.00    +0.000 C 
ATOM     17  O   UNL     1       4.529   3.504  11.805  0.00  0.00    +0.000 OA
ATOM     18  N   UNL     1       6.393   3.265  13.115  0.00  0.00    +0.000 N 
ATOM     19  H   UNL     1       7.081   2.595  13.442  0.00  0.00    +0.000 HD
ENDBRANCH  14  18
ENDBRANCH   1  14
TORSDOF 3
ENDMDL
MODEL 6
REMARK VINA RESULT:      -7.4      2.262      3.332
REMARK  Name = 
REMARK  5 active torsions:
REMARK  status: ('A' for Active; 'I' for Inactive)
REMARK    1  A    between atoms: C_1  and  C_2
REMARK    2  A    between atoms: N_4  and  C_5
REMARK    3  A    between atoms: C_5  and  C_6
REMARK    4  A    between atoms: N_8  and  C_9
REMARK    5  A    between atoms: C_13  and  C_14
REMARK                            x       y       z     vdW  Elec       q    Type
REMARK                         _______ _______ _______ _____ _____    ______ ____
ROOT
ATOM      1  C   UNL     1       7.114   5.730  18.315  0.00  0.00    +0.000 C 
ATOM      2  C   UNL     1       6.089   5.328  19.356  0.00  0.00    +0.000 C 
ATOM      3  N   UNL     1       4.843   5.565  18.688  0.00  0.00    +0.000 N 
ATOM      4  C   UNL     1       5.057   6.403  17.604  0.00  0.00    +0.000 C 
ATOM      5  O   UNL     1       4.240   6.912  16.850  0.00  0.00    +0.000 OA
ATOM      6  O   UNL     1       6.401   6.649  17.470  0.00  0.00    +0.000 OA
ENDROOT
BRANCH   3   7
ATOM      7  C   UNL     1       3.590   5.117  19.174  0.00  0.00    +0.000 A 
ATOM      8  C   UNL     1       2.892   5.839  20.150  0.00  0.00    +0.000 A 
ATOM      9  C   UNL     1       1.645   5.408  20.611  0.00  0.00    +0.000 A 
ATOM     10  C   UNL     1       1.086   4.230  20.125  0.00  0.00    +0.000 A 
ATOM     11  C   UNL     1       1.766   3.477  19.166  0.00  0.00    +0.000 A 
ATOM     12  C   UNL     1       1.208   2.168  18.686  0.00  0.00    +0.000 C 
ATOM     13  C   UNL     1       3.004   3.937  18.683  0.00  0.00    +0.000 A 
ENDBRANCH   3   7
BRANCH   1  14
ATOM     14  C   UNL     1       7.591   4.550  17.460  0.00  0.00    +0.000 C 
BRANCH  14  18
ATOM     15  C   UNL     1       6.873   4.728  13.743  0.00  0.00    +0.000 C 
ATOM     16  C   UNL     1       6.715   4.270  15.167  0.00  0.00    +0.000 C 
ATOM     17  O   UNL     1       5.876   3.446  15.513  0.00  0.00    +0.000 OA
ATOM     18  N   UNL     1       7.588   4.874  16.041  0.00  0.00    +0.000 N 
ATOM     19  H   UNL     1       8.401   5.349  15.665  0.00  0.00    +0.000 HD
ENDBRANCH  14  18
ENDBRANCH   1  14
TORSDOF 3
ENDMDL
MODEL 7
REMARK VINA RESULT:      -7.4      3.001      4.370
REMARK  Name = 
REMARK  5 active torsions:
REMARK  status: ('A' for Active; 'I' for Inactive)
REMARK    1  A    between atoms: C_1  and  C_2
REMARK    2  A    between atoms: N_4  and  C_5
REMARK    3  A    between atoms: C_5  and  C_6
REMARK    4  A    between atoms: N_8  and  C_9
REMARK    5  A    between atoms: C_13  and  C_14
REMARK                            x       y       z     vdW  Elec       q    Type
REMARK                         _______ _______ _______ _____ _____    ______ ____
ROOT
ATOM      1  C   UNL     1       6.516   4.190  16.655  0.00  0.00    +0.000 C 
ATOM      2  C   UNL     1       5.105   3.921  17.138  0.00  0.00    +0.000 C 
ATOM      3  N   UNL     1       5.095   4.511  18.444  0.00  0.00    +0.000 N 
ATOM      4  C   UNL     1       6.401   4.695  18.873  0.00  0.00    +0.000 C 
ATOM      5  O   UNL     1       6.807   5.076  19.961  0.00  0.00    +0.000 OA
ATOM      6  O   UNL     1       7.269   4.344  17.870  0.00  0.00    +0.000 OA
ENDROOT
BRANCH   3   7
ATOM      7  C   UNL     1       3.919   4.721  19.205  0.00  0.00    +0.000 A 
ATOM      8  C   UNL     1       3.310   5.981  19.265  0.00  0.00    +0.000 A 
ATOM      9  C   UNL     1       2.136   6.180  19.997  0.00  0.00    +0.000 A 
ATOM     10  C   UNL     1       1.565   5.128  20.706  0.00  0.00    +0.000 A 
ATOM     11  C   UNL     1       2.158   3.864  20.682  0.00  0.00    +0.000 A 
ATOM     12  C   UNL     1       1.591   2.740  21.500  0.00  0.00    +0.000 C 
ATOM     13  C   UNL     1       3.320   3.666  19.915  0.00  0.00    +0.000 A 
ENDBRANCH   3   7
BRANCH   1  14
ATOM     14  C   UNL     1       6.632   5.483  15.840  0.00  0.00    +0.000 C 
BRANCH  14  18
ATOM     15  C   UNL     1       8.048   8.410  17.788  0.00  0.00    +0.000 C 
ATOM     16  C   UNL     1       6.992   7.511  17.204  0.00  0.00    +0.000 C 
ATOM     17  O   UNL     1       5.792   7.700  17.367  0.00  0.00    +0.000 OA
ATOM     18  N   UNL     1       7.502   6.454  16.487  0.00  0.00    +0.000 N 
ATOM     19  H   UNL     1       8.470   6.492  16.189  0.00  0.00    +0.000 HD
ENDBRANCH  14  18
ENDBRANCH   1  14
TORSDOF 3
ENDMDL
MODEL 8
REMARK VINA RESULT:      -7.4      2.399      3.657
REMARK  Name = 
REMARK  5 active torsions:
REMARK  status: ('A' for Active; 'I' for Inactive)
REMARK    1  A    between atoms: C_1  and  C_2
REMARK    2  A    between atoms: N_4  and  C_5
REMARK    3  A    between atoms: C_5  and  C_6
REMARK    4  A    between atoms: N_8  and  C_9
REMARK    5  A    between atoms: C_13  and  C_14
REMARK                            x       y       z     vdW  Elec       q    Type
REMARK                         _______ _______ _______ _____ _____    ______ ____
ROOT
ATOM      1  C   UNL     1       6.942   5.555  18.539  0.00  0.00    +0.000 C 
ATOM      2  C   UNL     1       5.861   4.842  19.327  0.00  0.00    +0.000 C 
ATOM      3  N   UNL     1       4.676   5.119  18.568  0.00  0.00    +0.000 N 
ATOM      4  C   UNL     1       4.912   6.195  17.727  0.00  0.00    +0.000 C 
ATOM      5  O   UNL     1       4.131   6.790  17.000  0.00  0.00    +0.000 OA
ATOM      6  O   UNL     1       6.227   6.578  17.826  0.00  0.00    +0.000 OA
ENDROOT
BRANCH   3   7
ATOM      7  C   UNL     1       3.436   4.468  18.780  0.00  0.00    +0.000 A 
ATOM      8  C   UNL     1       2.501   4.336  17.746  0.00  0.00    +0.000 A 
ATOM      9  C   UNL     1       1.288   3.673  17.951  0.00  0.00    +0.000 A 
ATOM     10  C   UNL     1       0.975   3.154  19.203  0.00  0.00    +0.000 A 
ATOM     11  C   UNL     1       1.878   3.285  20.260  0.00  0.00    +0.000 A 
ATOM     12  C   UNL     1       1.522   2.793  21.633  0.00  0.00    +0.000 C 
ATOM     13  C   UNL     1       3.110   3.925  20.035  0.00  0.00    +0.000 A 
ENDBRANCH   3   7
BRANCH   1  14
ATOM     14  C   UNL     1       7.638   4.643  17.521  0.00  0.00    +0.000 C 
BRANCH  14  18
ATOM     15  C   UNL     1       5.820   4.068  14.245  0.00  0.00    +0.000 C 
ATOM     16  C   UNL     1       6.866   4.621  15.174  0.00  0.00    +0.000 C 
ATOM     17  O   UNL     1       7.766   5.364  14.797  0.00  0.00    +0.000 OA
ATOM     18  N   UNL     1       6.724   4.204  16.476  0.00  0.00    +0.000 N 
ATOM     19  H   UNL     1       5.839   3.801  16.764  0.00  0.00    +0.000 HD
ENDBRANCH  14  18
ENDBRANCH   1  14
TORSDOF 3
ENDMDL
MODEL 9
REMARK VINA RESULT:      -7.3      1.635      2.076
REMARK  Name = 
REMARK  5 active torsions:
REMARK  status: ('A' for Active; 'I' for Inactive)
REMARK    1  A    between atoms: C_1  and  C_2
REMARK    2  A    between atoms: N_4  and  C_5
REMARK    3  A    between atoms: C_5  and  C_6
REMARK    4  A    between atoms: N_8  and  C_9
REMARK    5  A    between atoms: C_13  and  C_14
REMARK                            x       y       z     vdW  Elec       q    Type
REMARK                         _______ _______ _______ _____ _____    ______ ____
ROOT
ATOM      1  C   UNL     1       6.341   4.372  14.980  0.00  0.00    +0.000 C 
ATOM      2  C   UNL     1       5.571   3.635  16.057  0.00  0.00    +0.000 C 
ATOM      3  N   UNL     1       4.672   4.637  16.551  0.00  0.00    +0.000 N 
ATOM      4  C   UNL     1       5.129   5.890  16.172  0.00  0.00    +0.000 C 
ATOM      5  O   UNL     1       4.700   6.991  16.478  0.00  0.00    +0.000 OA
ATOM      6  O   UNL     1       6.233   5.753  15.368  0.00  0.00    +0.000 OA
ENDROOT
BRANCH   3   7
ATOM      7  C   UNL     1       3.582   4.361  17.413  0.00  0.00    +0.000 A 
ATOM      8  C   UNL     1       2.745   3.260  17.193  0.00  0.00    +0.000 A 
ATOM      9  C   UNL     1       1.685   2.976  18.058  0.00  0.00    +0.000 A 
ATOM     10  C   UNL     1       1.424   3.805  19.143  0.00  0.00    +0.000 A 
ATOM     11  C   UNL     1       2.228   4.922  19.380  0.00  0.00    +0.000 A 
ATOM     12  C   UNL     1       1.914   5.865  20.506  0.00  0.00    +0.000 C 
ATOM     13  C   UNL     1       3.313   5.180  18.523  0.00  0.00    +0.000 A 
ENDBRANCH   3   7
BRANCH   1  14
ATOM     14  C   UNL     1       5.726   4.206  13.585  0.00  0.00    +0.000 C 
BRANCH  14  18
ATOM     15  C   UNL     1       6.425   1.340  11.206  0.00  0.00    +0.000 C 
ATOM     16  C   UNL     1       5.663   2.486  11.813  0.00  0.00    +0.000 C 
ATOM     17  O   UNL     1       4.571   2.856  11.396  0.00  0.00    +0.000 OA
ATOM     18  N   UNL     1       6.313   3.086  12.866  0.00  0.00    +0.000 N 
ATOM     19  H   UNL     1       7.078   2.590  13.310  0.00  0.00    +0.000 HD
ENDBRANCH  14  18
ENDBRANCH   1  14
TORSDOF 3
ENDMDL
