MODEL 1
REMARK VINA RESULT:      -8.7      0.000      0.000
REMARK  Name = 
REMARK  7 active torsions:
REMARK  status: ('A' for Active; 'I' for Inactive)
REMARK    1  A    between atoms: C_1  and  C_2
REMARK    2  A    between atoms: C_5  and  N_6
REMARK    3  A    between atoms: N_6  and  C_7
REMARK    4  A    between atoms: C_7  and  N_9
REMARK    5  A    between atoms: N_9  and  C_10
REMARK    6  A    between atoms: C_12  and  C_13
REMARK    7  A    between atoms: C_12  and  C_14
REMARK                            x       y       z     vdW  Elec       q    Type
REMARK                         _______ _______ _______ _____ _____    ______ ____
ROOT
ATOM      1  N   UNL     1       5.456   5.794  16.756  0.00  0.00    +0.000 N 
ATOM      2  H   UNL     1       5.060   5.701  15.828  0.00  0.00    +0.000 HD
ENDROOT
BRANCH   1   3
ATOM      3  C   UNL     1       4.713   5.180  17.848  0.00  0.00    +0.000 C 
ATOM      4  C   UNL     1       3.960   3.908  17.425  0.00  0.00    +0.000 C 
ATOM      5  C   UNL     1       2.933   3.452  18.513  0.00  0.00    +0.000 C 
ATOM      6  C   UNL     1       1.471   3.739  18.076  0.00  0.00    +0.000 C 
ATOM      7  C   UNL     1       3.036   1.933  18.764  0.00  0.00    +0.000 C 
ATOM      8  O   UNL     1       3.184   4.130  19.785  0.00  0.00    +0.000 OA
ATOM      9  C   UNL     1       3.058   5.495  19.606  0.00  0.00    +0.000 A 
ATOM     10  C   UNL     1       2.134   6.190  20.371  0.00  0.00    +0.000 A 
ATOM     11  C   UNL     1       1.729   7.447  19.928  0.00  0.00    +0.000 A 
ATOM     12  C   UNL     1       2.268   7.982  18.751  0.00  0.00    +0.000 A 
ATOM     13 BR   UNL     1       1.553   9.585  18.044  0.00  0.00    +0.000 Br
ATOM     14  C   UNL     1       3.279   7.321  18.053  0.00  0.00    +0.000 A 
ATOM     15  C   UNL     1       3.699   6.071  18.501  0.00  0.00    +0.000 A 
ENDBRANCH   1   3
BRANCH   1  16
ATOM     16  C   UNL     1       6.817   5.967  16.732  0.00  0.00    +0.000 C 
ATOM     17  S   UNL     1       7.550   6.441  18.159  0.00  0.00    +0.000 S 
BRANCH  16  18
ATOM     18  N   UNL     1       7.433   5.681  15.538  0.00  0.00    +0.000 N 
ATOM     19  H   UNL     1       8.239   6.258  15.333  0.00  0.00    +0.000 HD
BRANCH  18  24
ATOM     20  C   UNL     1       5.564   2.485  11.165  0.00  0.00    +0.000 C 
ATOM     21  C   UNL     1       6.051   3.339  12.298  0.00  0.00    +0.000 A 
ATOM     22  C   UNL     1       7.118   4.230  12.137  0.00  0.00    +0.000 A 
ATOM     23  C   UNL     1       7.568   5.006  13.220  0.00  0.00    +0.000 A 
ATOM     24  C   UNL     1       6.930   4.921  14.459  0.00  0.00    +0.000 A 
ATOM     25  C   UNL     1       5.878   4.018  14.623  0.00  0.00    +0.000 A 
ATOM     26  C   UNL     1       5.446   3.230  13.554  0.00  0.00    +0.000 A 
ENDBRANCH  18  24
ENDBRANCH  16  18
ENDBRANCH   1  16
TORSDOF 4
ENDMDL
MODEL 2
REMARK VINA RESULT:      -8.7      2.235      3.927
REMARK  Name = 
REMARK  7 active torsions:
REMARK  status: ('A' for Active; 'I' for Inactive)
REMARK    1  A    between atoms: C_1  and  C_2
REMARK    2  A    between atoms: C_5  and  N_6
REMARK    3  A    between atoms: N_6  and  C_7
REMARK    4  A    between atoms: C_7  and  N_9
REMARK    5  A    between atoms: N_9  and  C_10
REMARK    6  A    between atoms: C_12  and  C_13
REMARK    7  A    between atoms: C_12  and  C_14
REMARK                            x       y       z     vdW  Elec       q    Type
REMARK                         _______ _______ _______ _____ _____    ______ ____
ROOT
ATOM      1  N   UNL     1       4.519   4.324  16.269  0.00  0.00    +0.000 N 
ATOM      2  H   UNL     1       3.892   4.217  15.480  0.00  0.00    +0.000 HD
ENDROOT
BRANCH   1   3
ATOM      3  C   UNL     1       3.977   4.010  17.583  0.00  0.00    +0.000 C 
ATOM      4  C   UNL     1       2.892   2.922  17.543  0.00  0.00    +0.000 C 
ATOM      5  C   UNL     1       2.114   2.828  18.897  0.00  0.00    +0.000 C 
ATOM      6  C   UNL     1       0.681   3.413  18.774  0.00  0.00    +0.000 C 
ATOM      7  C   UNL     1       1.961   1.358  19.343  0.00  0.00    +0.000 C 
ATOM      8  O   UNL     1       2.823   3.542  19.958  0.00  0.00    +0.000 OA
ATOM      9  C   UNL     1       2.940   4.875  19.610  0.00  0.00    +0.000 A 
ATOM     10  C   UNL     1       2.413   5.839  20.455  0.00  0.00    +0.000 A 
ATOM     11  C   UNL     1       2.177   7.109  19.935  0.00  0.00    +0.000 A 
ATOM     12  C   UNL     1       2.489   7.388  18.598  0.00  0.00    +0.000 A 
ATOM     13 BR   UNL     1       1.963   9.041  17.843  0.00  0.00    +0.000 Br
ATOM     14  C   UNL     1       3.122   6.441  17.791  0.00  0.00    +0.000 A 
ATOM     15  C   UNL     1       3.376   5.175  18.312  0.00  0.00    +0.000 A 
ENDBRANCH   1   3
BRANCH   1  16
ATOM     16  C   UNL     1       5.838   4.195  15.912  0.00  0.00    +0.000 C 
ATOM     17  S   UNL     1       6.166   3.923  14.295  0.00  0.00    +0.000 S 
BRANCH  16  18
ATOM     18  N   UNL     1       6.749   4.355  16.928  0.00  0.00    +0.000 N 
ATOM     19  H   UNL     1       6.866   3.541  17.518  0.00  0.00    +0.000 HD
BRANCH  18  24
ATOM     20  C   UNL     1       8.787   9.306  18.969  0.00  0.00    +0.000 C 
ATOM     21  C   UNL     1       8.264   8.012  18.418  0.00  0.00    +0.000 A 
ATOM     22  C   UNL     1       7.653   7.946  17.160  0.00  0.00    +0.000 A 
ATOM     23  C   UNL     1       7.154   6.725  16.674  0.00  0.00    +0.000 A 
ATOM     24  C   UNL     1       7.298   5.558  17.425  0.00  0.00    +0.000 A 
ATOM     25  C   UNL     1       7.891   5.628  18.686  0.00  0.00    +0.000 A 
ATOM     26  C   UNL     1       8.365   6.845  19.181  0.00  0.00    +0.000 A 
ENDBRANCH  18  24
ENDBRANCH  16  18
ENDBRANCH   1  16
TORSDOF 4
ENDMDL
MODEL 3
REMARK VINA RESULT:      -8.6      3.851      8.367
REMARK  Name = 
REMARK  7 active torsions:
REMARK  status: ('A' for Active; 'I' for Inactive)
REMARK    1  A    between atoms: C_1  and  C_2
REMARK    2  A    between atoms: C_5  and  N_6
REMARK    3  A    between atoms: N_6  and  C_7
REMARK    4  A    between atoms: C_7  and  N_9
REMARK    5  A    between atoms: N_9  and  C_10
REMARK    6  A    between atoms: C_12  and  C_13
REMARK    7  A    between atoms: C_12  and  C_14
REMARK                            x       y       z     vdW  Elec       q    Type
REMARK                         _______ _______ _______ _____ _____    ______ ____
ROOT
ATOM      1  N   UNL     1       2.463   6.620  20.388  0.00  0.00    +0.000 N 
ATOM      2  H   UNL     1       2.602   6.283  21.333  0.00  0.00    +0.000 HD
ENDROOT
BRANCH   1   3
ATOM      3  C   UNL     1       2.317   5.610  19.348  0.00  0.00    +0.000 C 
ATOM      4  C   UNL     1       1.784   4.270  19.879  0.00  0.00    +0.000 C 
ATOM      5  C   UNL     1       1.934   3.126  18.824  0.00  0.00    +0.000 C 
ATOM      6  C   UNL     1       3.069   2.139  19.208  0.00  0.00    +0.000 C 
ATOM      7  C   UNL     1       0.636   2.298  18.720  0.00  0.00    +0.000 C 
ATOM      8  O   UNL     1       2.217   3.673  17.497  0.00  0.00    +0.000 OA
ATOM      9  C   UNL     1       3.400   4.388  17.542  0.00  0.00    +0.000 A 
ATOM     10  C   UNL     1       4.438   4.022  16.699  0.00  0.00    +0.000 A 
ATOM     11  C   UNL     1       5.723   4.460  17.013  0.00  0.00    +0.000 A 
ATOM     12  C   UNL     1       5.933   5.262  18.142  0.00  0.00    +0.000 A 
ATOM     13 BR   UNL     1       7.701   5.667  18.681  0.00  0.00    +0.000 Br
ATOM     14  C   UNL     1       4.864   5.715  18.917  0.00  0.00    +0.000 A 
ATOM     15  C   UNL     1       3.576   5.294  18.597  0.00  0.00    +0.000 A 
ENDBRANCH   1   3
BRANCH   1  16
ATOM     16  C   UNL     1       1.895   7.869  20.354  0.00  0.00    +0.000 C 
ATOM     17  S   UNL     1       1.636   8.547  18.848  0.00  0.00    +0.000 S 
BRANCH  16  18
ATOM     18  N   UNL     1       1.557   8.403  21.574  0.00  0.00    +0.000 N 
ATOM     19  H   UNL     1       1.776   7.812  22.366  0.00  0.00    +0.000 HD
BRANCH  18  24
ATOM     20  C   UNL     1      -1.817  12.860  22.831  0.00  0.00    +0.000 C 
ATOM     21  C   UNL     1      -0.950  11.681  22.500  0.00  0.00    +0.000 A 
ATOM     22  C   UNL     1      -1.061  10.473  23.197  0.00  0.00    +0.000 A 
ATOM     23  C   UNL     1      -0.224   9.388  22.880  0.00  0.00    +0.000 A 
ATOM     24  C   UNL     1       0.701   9.495  21.840  0.00  0.00    +0.000 A 
ATOM     25  C   UNL     1       0.823  10.706  21.158  0.00  0.00    +0.000 A 
ATOM     26  C   UNL     1       0.008  11.792  21.488  0.00  0.00    +0.000 A 
ENDBRANCH  18  24
ENDBRANCH  16  18
ENDBRANCH   1  16
TORSDOF 4
ENDMDL
MODEL 4
REMARK VINA RESULT:      -8.5      0.246      1.013
REMARK  Name = 
REMARK  7 active torsions:
REMARK  status: ('A' for Active; 'I' for Inactive)
REMARK    1  A    between atoms: C_1  and  C_2
REMARK    2  A    between atoms: C_5  and  N_6
REMARK    3  A    between atoms: N_6  and  C_7
REMARK    4  A    between atoms: C_7  and  N_9
REMARK    5  A    between atoms: N_9  and  C_10
REMARK    6  A    between atoms: C_12  and  C_13
REMARK    7  A    between atoms: C_12  and  C_14
REMARK                            x       y       z     vdW  Elec       q    Type
REMARK                         _______ _______ _______ _____ _____    ______ ____
ROOT
ATOM      1  N   UNL     1       5.472   5.823  17.048  0.00  0.00    +0.000 N 
ATOM      2  H   UNL     1       5.055   5.868  16.125  0.00  0.00    +0.000 HD
ENDROOT
BRANCH   1   3
ATOM      3  C   UNL     1       4.670   5.210  18.098  0.00  0.00    +0.000 C 
ATOM      4  C   UNL     1       3.940   3.939  17.635  0.00  0.00    +0.000 C 
ATOM      5  C   UNL     1       2.855   3.484  18.666  0.00  0.00    +0.000 C 
ATOM      6  C   UNL     1       1.419   3.773  18.151  0.00  0.00    +0.000 C 
ATOM      7  C   UNL     1       2.943   1.965  18.923  0.00  0.00    +0.000 C 
ATOM      8  O   UNL     1       3.038   4.162  19.950  0.00  0.00    +0.000 OA
ATOM      9  C   UNL     1       2.923   5.527  19.764  0.00  0.00    +0.000 A 
ATOM     10  C   UNL     1       1.959   6.223  20.478  0.00  0.00    +0.000 A 
ATOM     11  C   UNL     1       1.580   7.481  20.014  0.00  0.00    +0.000 A 
ATOM     12  C   UNL     1       2.183   8.015  18.867  0.00  0.00    +0.000 A 
ATOM     13 BR   UNL     1       1.509   9.619  18.122  0.00  0.00    +0.000 Br
ATOM     14  C   UNL     1       3.229   7.352  18.225  0.00  0.00    +0.000 A 
ATOM     15  C   UNL     1       3.623   6.103  18.695  0.00  0.00    +0.000 A 
ENDBRANCH   1   3
BRANCH   1  16
ATOM     16  C   UNL     1       6.843   5.823  17.005  0.00  0.00    +0.000 C 
ATOM     17  S   UNL     1       7.650   5.861  18.470  0.00  0.00    +0.000 S 
BRANCH  16  18
ATOM     18  N   UNL     1       7.400   5.741  15.752  0.00  0.00    +0.000 N 
ATOM     19  H   UNL     1       8.038   6.495  15.526  0.00  0.00    +0.000 HD
BRANCH  18  24
ATOM     20  C   UNL     1       5.545   2.600  11.334  0.00  0.00    +0.000 C 
ATOM     21  C   UNL     1       6.034   3.405  12.502  0.00  0.00    +0.000 A 
ATOM     22  C   UNL     1       5.452   3.284  13.769  0.00  0.00    +0.000 A 
ATOM     23  C   UNL     1       5.915   4.064  14.843  0.00  0.00    +0.000 A 
ATOM     24  C   UNL     1       6.986   4.941  14.665  0.00  0.00    +0.000 A 
ATOM     25  C   UNL     1       7.553   5.074  13.396  0.00  0.00    +0.000 A 
ATOM     26  C   UNL     1       7.078   4.318  12.323  0.00  0.00    +0.000 A 
ENDBRANCH  18  24
ENDBRANCH  16  18
ENDBRANCH   1  16
TORSDOF 4
ENDMDL
MODEL 5
REMARK VINA RESULT:      -8.1      3.932      8.456
REMARK  Name = 
REMARK  7 active torsions:
REMARK  status: ('A' for Active; 'I' for Inactive)
REMARK    1  A    between atoms: C_1  and  C_2
REMARK    2  A    between atoms: C_5  and  N_6
REMARK    3  A    between atoms: N_6  and  C_7
REMARK    4  A    between atoms: C_7  and  N_9
REMARK    5  A    between atoms: N_9  and  C_10
REMARK    6  A    between atoms: C_12  and  C_13
REMARK    7  A    between atoms: C_12  and  C_14
REMARK                            x       y       z     vdW  Elec       q    Type
REMARK                         _______ _______ _______ _____ _____    ______ ____
ROOT
ATOM      1  N   UNL     1       2.643   7.388  19.782  0.00  0.00    +0.000 N 
ATOM      2  H   UNL     1       3.447   7.495  20.390  0.00  0.00    +0.000 HD
ENDROOT
BRANCH   1   3
ATOM      3  C   UNL     1       2.290   6.029  19.396  0.00  0.00    +0.000 C 
ATOM      4  C   UNL     1       2.265   5.053  20.583  0.00  0.00    +0.000 C 
ATOM      5  C   UNL     1       2.198   3.564  20.109  0.00  0.00    +0.000 C 
ATOM      6  C   UNL     1       3.554   2.836  20.315  0.00  0.00    +0.000 C 
ATOM      7  C   UNL     1       1.141   2.777  20.912  0.00  0.00    +0.000 C 
ATOM      8  O   UNL     1       1.831   3.482  18.695  0.00  0.00    +0.000 OA
ATOM      9  C   UNL     1       2.783   4.141  17.940  0.00  0.00    +0.000 A 
ATOM     10  C   UNL     1       3.456   3.443  16.948  0.00  0.00    +0.000 A 
ATOM     11  C   UNL     1       4.655   3.969  16.474  0.00  0.00    +0.000 A 
ATOM     12  C   UNL     1       5.139   5.180  16.986  0.00  0.00    +0.000 A 
ATOM     13 BR   UNL     1       6.869   5.772  16.498  0.00  0.00    +0.000 Br
ATOM     14  C   UNL     1       4.396   5.927  17.901  0.00  0.00    +0.000 A 
ATOM     15  C   UNL     1       3.188   5.414  18.365  0.00  0.00    +0.000 A 
ENDBRANCH   1   3
BRANCH   1  16
ATOM     16  C   UNL     1       1.753   8.426  19.902  0.00  0.00    +0.000 C 
ATOM     17  S   UNL     1       1.354   9.252  18.503  0.00  0.00    +0.000 S 
BRANCH  16  18
ATOM     18  N   UNL     1       1.250   8.638  21.163  0.00  0.00    +0.000 N 
ATOM     19  H   UNL     1       1.251   7.819  21.758  0.00  0.00    +0.000 HD
BRANCH  18  24
ATOM     20  C   UNL     1      -1.762  13.065  23.203  0.00  0.00    +0.000 C 
ATOM     21  C   UNL     1      -0.991  11.896  22.665  0.00  0.00    +0.000 A 
ATOM     22  C   UNL     1      -1.162  10.606  23.181  0.00  0.00    +0.000 A 
ATOM     23  C   UNL     1      -0.414   9.530  22.673  0.00  0.00    +0.000 A 
ATOM     24  C   UNL     1       0.482   9.731  21.622  0.00  0.00    +0.000 A 
ATOM     25  C   UNL     1       0.666  11.020  21.121  0.00  0.00    +0.000 A 
ATOM     26  C   UNL     1      -0.060  12.094  21.641  0.00  0.00    +0.000 A 
ENDBRANCH  18  24
ENDBRANCH  16  18
ENDBRANCH   1  16
TORSDOF 4
ENDMDL
MODEL 6
REMARK VINA RESULT:      -8.1      3.920      7.495
REMARK  Name = 
REMARK  7 active torsions:
REMARK  status: ('A' for Active; 'I' for Inactive)
REMARK    1  A    between atoms: C_1  and  C_2
REMARK    2  A    between atoms: C_5  and  N_6
REMARK    3  A    between atoms: N_6  and  C_7
REMARK    4  A    between atoms: C_7  and  N_9
REMARK    5  A    between atoms: N_9  and  C_10
REMARK    6  A    between atoms: C_12  and  C_13
REMARK    7  A    between atoms: C_12  and  C_14
REMARK                            x       y       z     vdW  Elec       q    Type
REMARK                         _______ _______ _______ _____ _____    ______ ____
ROOT
ATOM      1  N   UNL     1       2.419   7.631  19.911  0.00  0.00    +0.000 N 
ATOM      2  H   UNL     1       3.231   7.735  20.510  0.00  0.00    +0.000 HD
ENDROOT
BRANCH   1   3
ATOM      3  C   UNL     1       2.146   6.292  19.408  0.00  0.00    +0.000 C 
ATOM      4  C   UNL     1       2.009   5.244  20.525  0.00  0.00    +0.000 C 
ATOM      5  C   UNL     1       2.032   3.786  19.959  0.00  0.00    +0.000 C 
ATOM      6  C   UNL     1       3.373   3.070  20.276  0.00  0.00    +0.000 C 
ATOM      7  C   UNL     1       0.909   2.934  20.587  0.00  0.00    +0.000 C 
ATOM      8  O   UNL     1       1.831   3.785  18.510  0.00  0.00    +0.000 OA
ATOM      9  C   UNL     1       2.847   4.506  17.909  0.00  0.00    +0.000 A 
ATOM     10  C   UNL     1       3.644   3.881  16.962  0.00  0.00    +0.000 A 
ATOM     11  C   UNL     1       4.877   4.455  16.662  0.00  0.00    +0.000 A 
ATOM     12  C   UNL     1       5.271   5.641  17.296  0.00  0.00    +0.000 A 
ATOM     13 BR   UNL     1       7.030   6.291  17.046  0.00  0.00    +0.000 Br
ATOM     14  C   UNL     1       4.411   6.318  18.162  0.00  0.00    +0.000 A 
ATOM     15  C   UNL     1       3.170   5.756  18.452  0.00  0.00    +0.000 A 
ENDBRANCH   1   3
BRANCH   1  16
ATOM     16  C   UNL     1       1.468   8.592  20.145  0.00  0.00    +0.000 C 
ATOM     17  S   UNL     1       0.781   8.628  21.669  0.00  0.00    +0.000 S 
BRANCH  16  18
ATOM     18  N   UNL     1       1.221   9.452  19.103  0.00  0.00    +0.000 N 
ATOM     19  H   UNL     1       2.048   9.888  18.713  0.00  0.00    +0.000 HD
BRANCH  18  24
ATOM     20  C   UNL     1      -3.876  11.583  17.582  0.00  0.00    +0.000 C 
ATOM     21  C   UNL     1      -2.534  11.029  17.961  0.00  0.00    +0.000 A 
ATOM     22  C   UNL     1      -1.918  10.023  17.208  0.00  0.00    +0.000 A 
ATOM     23  C   UNL     1      -0.669   9.507  17.595  0.00  0.00    +0.000 A 
ATOM     24  C   UNL     1      -0.012  10.020  18.715  0.00  0.00    +0.000 A 
ATOM     25  C   UNL     1      -0.636  11.011  19.475  0.00  0.00    +0.000 A 
ATOM     26  C   UNL     1      -1.887  11.507  19.105  0.00  0.00    +0.000 A 
ENDBRANCH  18  24
ENDBRANCH  16  18
ENDBRANCH   1  16
TORSDOF 4
ENDMDL
MODEL 7
REMARK VINA RESULT:      -8.0      3.926      8.402
REMARK  Name = 
REMARK  7 active torsions:
REMARK  status: ('A' for Active; 'I' for Inactive)
REMARK    1  A    between atoms: C_1  and  C_2
REMARK    2  A    between atoms: C_5  and  N_6
REMARK    3  A    between atoms: N_6  and  C_7
REMARK    4  A    between atoms: C_7  and  N_9
REMARK    5  A    between atoms: N_9  and  C_10
REMARK    6  A    between atoms: C_12  and  C_13
REMARK    7  A    between atoms: C_12  and  C_14
REMARK                            x       y       z     vdW  Elec       q    Type
REMARK                         _______ _______ _______ _____ _____    ______ ____
ROOT
ATOM      1  N   UNL     1       2.467   7.245  20.115  0.00  0.00    +0.000 N 
ATOM      2  H   UNL     1       3.061   7.313  20.933  0.00  0.00    +0.000 HD
ENDROOT
BRANCH   1   3
ATOM      3  C   UNL     1       2.263   5.912  19.563  0.00  0.00    +0.000 C 
ATOM      4  C   UNL     1       2.230   4.814  20.638  0.00  0.00    +0.000 C 
ATOM      5  C   UNL     1       2.327   3.385  20.010  0.00  0.00    +0.000 C 
ATOM      6  C   UNL     1       3.720   2.745  20.256  0.00  0.00    +0.000 C 
ATOM      7  C   UNL     1       1.281   2.436  20.635  0.00  0.00    +0.000 C 
ATOM      8  O   UNL     1       2.079   3.429  18.569  0.00  0.00    +0.000 OA
ATOM      9  C   UNL     1       3.026   4.238  17.969  0.00  0.00    +0.000 A 
ATOM     10  C   UNL     1       3.831   3.705  16.973  0.00  0.00    +0.000 A 
ATOM     11  C   UNL     1       5.014   4.370  16.660  0.00  0.00    +0.000 A 
ATOM     12  C   UNL     1       5.352   5.552  17.332  0.00  0.00    +0.000 A 
ATOM     13 BR   UNL     1       7.057   6.325  17.057  0.00  0.00    +0.000 Br
ATOM     14  C   UNL     1       4.479   6.136  18.252  0.00  0.00    +0.000 A 
ATOM     15  C   UNL     1       3.287   5.484  18.555  0.00  0.00    +0.000 A 
ENDBRANCH   1   3
BRANCH   1  16
ATOM     16  C   UNL     1       1.563   8.275  20.035  0.00  0.00    +0.000 C 
ATOM     17  S   UNL     1       1.581   9.197  18.641  0.00  0.00    +0.000 S 
BRANCH  16  18
ATOM     18  N   UNL     1       0.706   8.399  21.102  0.00  0.00    +0.000 N 
ATOM     19  H   UNL     1       0.385   7.520  21.488  0.00  0.00    +0.000 HD
BRANCH  18  24
ATOM     20  C   UNL     1      -2.316  12.994  22.710  0.00  0.00    +0.000 C 
ATOM     21  C   UNL     1      -1.510  11.803  22.281  0.00  0.00    +0.000 A 
ATOM     22  C   UNL     1      -1.088  11.644  20.956  0.00  0.00    +0.000 A 
ATOM     23  C   UNL     1      -0.350  10.510  20.575  0.00  0.00    +0.000 A 
ATOM     24  C   UNL     1       0.001   9.548  21.524  0.00  0.00    +0.000 A 
ATOM     25  C   UNL     1      -0.436   9.699  22.841  0.00  0.00    +0.000 A 
ATOM     26  C   UNL     1      -1.190  10.813  23.215  0.00  0.00    +0.000 A 
ENDBRANCH  18  24
ENDBRANCH  16  18
ENDBRANCH   1  16
TORSDOF 4
ENDMDL
MODEL 8
REMARK VINA RESULT:      -8.0      3.742      7.427
REMARK  Name = 
REMARK  7 active torsions:
REMARK  status: ('A' for Active; 'I' for Inactive)
REMARK    1  A    between atoms: C_1  and  C_2
REMARK    2  A    between atoms: C_5  and  N_6
REMARK    3  A    between atoms: N_6  and  C_7
REMARK    4  A    between atoms: C_7  and  N_9
REMARK    5  A    between atoms: N_9  and  C_10
REMARK    6  A    between atoms: C_12  and  C_13
REMARK    7  A    between atoms: C_12  and  C_14
REMARK                            x       y       z     vdW  Elec       q    Type
REMARK                         _______ _______ _______ _____ _____    ______ ____
ROOT
ATOM      1  N   UNL     1       2.457   6.962  20.183  0.00  0.00    +0.000 N 
ATOM      2  H   UNL     1       2.852   6.725  21.086  0.00  0.00    +0.000 HD
ENDROOT
BRANCH   1   3
ATOM      3  C   UNL     1       2.306   5.871  19.230  0.00  0.00    +0.000 C 
ATOM      4  C   UNL     1       1.729   4.594  19.860  0.00  0.00    +0.000 C 
ATOM      5  C   UNL     1       1.870   3.361  18.908  0.00  0.00    +0.000 C 
ATOM      6  C   UNL     1       2.972   2.383  19.398  0.00  0.00    +0.000 C 
ATOM      7  C   UNL     1       0.553   2.559  18.848  0.00  0.00    +0.000 C 
ATOM      8  O   UNL     1       2.192   3.787  17.546  0.00  0.00    +0.000 OA
ATOM      9  C   UNL     1       3.392   4.474  17.557  0.00  0.00    +0.000 A 
ATOM     10  C   UNL     1       4.437   4.014  16.770  0.00  0.00    +0.000 A 
ATOM     11  C   UNL     1       5.726   4.446  17.073  0.00  0.00    +0.000 A 
ATOM     12  C   UNL     1       5.935   5.336  18.134  0.00  0.00    +0.000 A 
ATOM     13 BR   UNL     1       7.702   5.743  18.675  0.00  0.00    +0.000 Br
ATOM     14  C   UNL     1       4.863   5.878  18.845  0.00  0.00    +0.000 A 
ATOM     15  C   UNL     1       3.571   5.462  18.535  0.00  0.00    +0.000 A 
ENDBRANCH   1   3
BRANCH   1  16
ATOM     16  C   UNL     1       1.658   8.076  20.235  0.00  0.00    +0.000 C 
ATOM     17  S   UNL     1       1.028   8.492  21.728  0.00  0.00    +0.000 S 
BRANCH  16  18
ATOM     18  N   UNL     1       1.506   8.756  19.051  0.00  0.00    +0.000 N 
ATOM     19  H   UNL     1       1.970   8.329  18.259  0.00  0.00    +0.000 HD
BRANCH  18  24
ATOM     20  C   UNL     1      -0.369  14.139  18.469  0.00  0.00    +0.000 C 
ATOM     21  C   UNL     1       0.110  12.724  18.605  0.00  0.00    +0.000 A 
ATOM     22  C   UNL     1      -0.786  11.660  18.763  0.00  0.00    +0.000 A 
ATOM     23  C   UNL     1      -0.312  10.345  18.909  0.00  0.00    +0.000 A 
ATOM     24  C   UNL     1       1.058  10.082  18.859  0.00  0.00    +0.000 A 
ATOM     25  C   UNL     1       1.951  11.145  18.720  0.00  0.00    +0.000 A 
ATOM     26  C   UNL     1       1.482  12.455  18.600  0.00  0.00    +0.000 A 
ENDBRANCH  18  24
ENDBRANCH  16  18
ENDBRANCH   1  16
TORSDOF 4
ENDMDL
MODEL 9
REMARK VINA RESULT:      -8.0      3.975      7.735
REMARK  Name = 
REMARK  7 active torsions:
REMARK  status: ('A' for Active; 'I' for Inactive)
REMARK    1  A    between atoms: C_1  and  C_2
REMARK    2  A    between atoms: C_5  and  N_6
REMARK    3  A    between atoms: N_6  and  C_7
REMARK    4  A    between atoms: C_7  and  N_9
REMARK    5  A    between atoms: N_9  and  C_10
REMARK    6  A    between atoms: C_12  and  C_13
REMARK    7  A    between atoms: C_12  and  C_14
REMARK                            x       y       z     vdW  Elec       q    Type
REMARK                         _______ _______ _______ _____ _____    ______ ____
ROOT
ATOM      1  N   UNL     1       2.308   7.741  17.802  0.00  0.00    +0.000 N 
ATOM      2  H   UNL     1       2.167   7.921  16.814  0.00  0.00    +0.000 HD
ENDROOT
BRANCH   1   3
ATOM      3  C   UNL     1       3.547   7.073  18.174  0.00  0.00    +0.000 C 
ATOM      4  C   UNL     1       4.574   7.026  17.032  0.00  0.00    +0.000 C 
ATOM      5  C   UNL     1       5.749   6.043  17.348  0.00  0.00    +0.000 C 
ATOM      6  C   UNL     1       5.650   4.743  16.505  0.00  0.00    +0.000 C 
ATOM      7  C   UNL     1       7.111   6.689  17.016  0.00  0.00    +0.000 C 
ATOM      8  O   UNL     1       5.763   5.684  18.766  0.00  0.00    +0.000 OA
ATOM      9  C   UNL     1       4.571   5.062  19.089  0.00  0.00    +0.000 A 
ATOM     10  C   UNL     1       4.604   3.781  19.619  0.00  0.00    +0.000 A 
ATOM     11  C   UNL     1       3.438   3.020  19.569  0.00  0.00    +0.000 A 
ATOM     12  C   UNL     1       2.272   3.562  19.013  0.00  0.00    +0.000 A 
ATOM     13 BR   UNL     1       0.762   2.452  18.751  0.00  0.00    +0.000 Br
ATOM     14  C   UNL     1       2.224   4.890  18.587  0.00  0.00    +0.000 A 
ATOM     15  C   UNL     1       3.382   5.660  18.650  0.00  0.00    +0.000 A 
ENDBRANCH   1   3
BRANCH   1  16
ATOM     16  C   UNL     1       1.620   8.621  18.599  0.00  0.00    +0.000 C 
ATOM     17  S   UNL     1       1.643   8.334  20.246  0.00  0.00    +0.000 S 
BRANCH  16  18
ATOM     18  N   UNL     1       1.025   9.675  17.949  0.00  0.00    +0.000 N 
ATOM     19  H   UNL     1       1.669  10.284  17.460  0.00  0.00    +0.000 HD
BRANCH  18  24
ATOM     20  C   UNL     1      -4.234  11.874  18.536  0.00  0.00    +0.000 C 
ATOM     21  C   UNL     1      -2.856  11.295  18.402  0.00  0.00    +0.000 A 
ATOM     22  C   UNL     1      -1.780  11.785  19.152  0.00  0.00    +0.000 A 
ATOM     23  C   UNL     1      -0.495  11.238  18.995  0.00  0.00    +0.000 A 
ATOM     24  C   UNL     1      -0.285  10.174  18.116  0.00  0.00    +0.000 A 
ATOM     25  C   UNL     1      -1.355   9.698  17.356  0.00  0.00    +0.000 A 
ATOM     26  C   UNL     1      -2.628  10.257  17.494  0.00  0.00    +0.000 A 
ENDBRANCH  18  24
ENDBRANCH  16  18
ENDBRANCH   1  16
TORSDOF 4
ENDMDL
