MODEL 1
REMARK VINA RESULT:      -7.6      0.000      0.000
REMARK  Name = 
REMARK  9 active torsions:
REMARK  status: ('A' for Active; 'I' for Inactive)
REMARK    1  A    between atoms: C_1  and  C_2
REMARK    2  A    between atoms: C_2  and  O_4
REMARK    3  A    between atoms: O_4  and  C_5
REMARK    4  A    between atoms: C_5  and  C_6
REMARK    5  A    between atoms: C_7  and  C_8
REMARK    6  A    between atoms: C_13  and  C_14
REMARK    7  A    between atoms: C_13  and  C_15
REMARK    8  A    between atoms: C_19  and  C_20
REMARK    9  A    between atoms: C_19  and  O_21
REMARK                            x       y       z     vdW  Elec       q    Type
REMARK                         _______ _______ _______ _____ _____    ______ ____
ROOT
ATOM      1  C   UNL     1       5.647   5.092  17.200  0.00  0.00    +0.000 C 
ATOM      2  C   UNL     1       4.476   4.430  18.079  0.00  0.00    +0.000 C 
ATOM      3  C   UNL     1       3.619   3.503  17.190  0.00  0.00    +0.000 C 
ATOM      4  C   UNL     1       5.129   3.585  19.217  0.00  0.00    +0.000 C 
ATOM      5  C   UNL     1       4.104   2.861  20.100  0.00  0.00    +0.000 C 
ATOM      6  C   UNL     1       2.945   3.735  20.610  0.00  0.00    +0.000 C 
ATOM      7 BR   UNL     1       1.567   2.524  21.329  0.00  0.00    +0.000 Br
ATOM      8  C   UNL     1       2.359   4.836  19.659  0.00  0.00    +0.000 C 
ATOM      9  C   UNL     1       1.199   4.379  18.731  0.00  0.00    +0.000 C 
ATOM     10  C   UNL     1       1.687   5.913  20.563  0.00  0.00    +0.000 C 
ATOM     11  C   UNL     1       3.591   5.474  18.878  0.00  0.00    +0.000 C 
ATOM     12  C   UNL     1       3.282   6.724  18.050  0.00  0.00    +0.000 C 
ATOM     13  C   UNL     1       4.589   7.410  17.674  0.00  0.00    +0.000 C 
ATOM     14  C   UNL     1       5.431   6.571  16.715  0.00  0.00    +0.000 C 
ATOM     15  C   UNL     1       4.865   6.722  15.292  0.00  0.00    +0.000 C 
ENDROOT
BRANCH  14  16
ATOM     16  O   UNL     1       6.728   7.195  16.638  0.00  0.00    +0.000 OA
ATOM     17  H   UNL     1       6.932   7.598  17.500  0.00  0.00    +0.000 HD
ENDBRANCH  14  16
BRANCH   1  18
ATOM     18  C   UNL     1       6.114   4.237  15.978  0.00  0.00    +0.000 C 
BRANCH  18  19
ATOM     19  O   UNL     1       7.375   4.633  15.417  0.00  0.00    +0.000 OA
BRANCH  19  21
ATOM     20  C   UNL     1       6.419   3.940  13.411  0.00  0.00    +0.000 C 
ATOM     21  C   UNL     1       7.420   4.836  14.080  0.00  0.00    +0.000 C 
ATOM     22  O   UNL     1       8.141   5.633  13.505  0.00  0.00    +0.000 OA
ENDBRANCH  19  21
ENDBRANCH  18  19
ENDBRANCH   1  18
TORSDOF 4
ENDMDL
MODEL 2
REMARK VINA RESULT:      -6.9      1.808      3.539
REMARK  Name = 
REMARK  9 active torsions:
REMARK  status: ('A' for Active; 'I' for Inactive)
REMARK    1  A    between atoms: C_1  and  C_2
REMARK    2  A    between atoms: C_2  and  O_4
REMARK    3  A    between atoms: O_4  and  C_5
REMARK    4  A    between atoms: C_5  and  C_6
REMARK    5  A    between atoms: C_7  and  C_8
REMARK    6  A    between atoms: C_13  and  C_14
REMARK    7  A    between atoms: C_13  and  C_15
REMARK    8  A    between atoms: C_19  and  C_20
REMARK    9  A    between atoms: C_19  and  O_21
REMARK                            x       y       z     vdW  Elec       q    Type
REMARK                         _______ _______ _______ _____ _____    ______ ____
ROOT
ATOM      1  C   UNL     1       5.464   6.039  17.183  0.00  0.00    +0.000 C 
ATOM      2  C   UNL     1       4.638   5.212  18.285  0.00  0.00    +0.000 C 
ATOM      3  C   UNL     1       5.595   4.728  19.396  0.00  0.00    +0.000 C 
ATOM      4  C   UNL     1       3.566   6.157  18.913  0.00  0.00    +0.000 C 
ATOM      5  C   UNL     1       2.741   5.490  20.020  0.00  0.00    +0.000 C 
ATOM      6  C   UNL     1       2.168   4.106  19.667  0.00  0.00    +0.000 C 
ATOM      7 BR   UNL     1       1.544   3.281  21.344  0.00  0.00    +0.000 Br
ATOM      8  C   UNL     1       3.034   3.135  18.791  0.00  0.00    +0.000 C 
ATOM      9  C   UNL     1       3.995   2.196  19.573  0.00  0.00    +0.000 C 
ATOM     10  C   UNL     1       2.052   2.141  18.100  0.00  0.00    +0.000 C 
ATOM     11  C   UNL     1       3.764   4.030  17.695  0.00  0.00    +0.000 C 
ATOM     12  C   UNL     1       4.496   3.266  16.589  0.00  0.00    +0.000 C 
ATOM     13  C   UNL     1       4.818   4.224  15.449  0.00  0.00    +0.000 C 
ATOM     14  C   UNL     1       5.837   5.287  15.854  0.00  0.00    +0.000 C 
ATOM     15  C   UNL     1       7.245   4.667  15.820  0.00  0.00    +0.000 C 
ENDROOT
BRANCH  14  16
ATOM     16  O   UNL     1       5.865   6.266  14.796  0.00  0.00    +0.000 OA
ATOM     17  H   UNL     1       5.022   6.752  14.797  0.00  0.00    +0.000 HD
ENDBRANCH  14  16
BRANCH   1  18
ATOM     18  C   UNL     1       6.746   6.752  17.721  0.00  0.00    +0.000 C 
BRANCH  18  19
ATOM     19  O   UNL     1       7.021   8.025  17.115  0.00  0.00    +0.000 OA
BRANCH  19  21
ATOM     20  C   UNL     1       8.619   8.069  18.808  0.00  0.00    +0.000 C 
ATOM     21  C   UNL     1       7.864   8.853  17.774  0.00  0.00    +0.000 C 
ATOM     22  O   UNL     1       8.008  10.044  17.556  0.00  0.00    +0.000 OA
ENDBRANCH  19  21
ENDBRANCH  18  19
ENDBRANCH   1  18
TORSDOF 4
ENDMDL
MODEL 3
REMARK VINA RESULT:      -6.5      1.341      2.335
REMARK  Name = 
REMARK  9 active torsions:
REMARK  status: ('A' for Active; 'I' for Inactive)
REMARK    1  A    between atoms: C_1  and  C_2
REMARK    2  A    between atoms: C_2  and  O_4
REMARK    3  A    between atoms: O_4  and  C_5
REMARK    4  A    between atoms: C_5  and  C_6
REMARK    5  A    between atoms: C_7  and  C_8
REMARK    6  A    between atoms: C_13  and  C_14
REMARK    7  A    between atoms: C_13  and  C_15
REMARK    8  A    between atoms: C_19  and  C_20
REMARK    9  A    between atoms: C_19  and  O_21
REMARK                            x       y       z     vdW  Elec       q    Type
REMARK                         _______ _______ _______ _____ _____    ______ ____
ROOT
ATOM      1  C   UNL     1       5.619   4.818  16.660  0.00  0.00    +0.000 C 
ATOM      2  C   UNL     1       4.254   4.567  17.469  0.00  0.00    +0.000 C 
ATOM      3  C   UNL     1       3.366   5.828  17.396  0.00  0.00    +0.000 C 
ATOM      4  C   UNL     1       3.498   3.373  16.805  0.00  0.00    +0.000 C 
ATOM      5  C   UNL     1       2.147   3.067  17.465  0.00  0.00    +0.000 C 
ATOM      6  C   UNL     1       2.177   2.961  19.000  0.00  0.00    +0.000 C 
ATOM      7 BR   UNL     1       0.310   3.005  19.629  0.00  0.00    +0.000 Br
ATOM      8  C   UNL     1       3.117   3.928  19.802  0.00  0.00    +0.000 C 
ATOM      9  C   UNL     1       2.492   5.290  20.215  0.00  0.00    +0.000 C 
ATOM     10  C   UNL     1       3.417   3.246  21.171  0.00  0.00    +0.000 C 
ATOM     11  C   UNL     1       4.461   4.069  18.959  0.00  0.00    +0.000 C 
ATOM     12  C   UNL     1       5.614   4.795  19.656  0.00  0.00    +0.000 C 
ATOM     13  C   UNL     1       6.905   4.532  18.892  0.00  0.00    +0.000 C 
ATOM     14  C   UNL     1       6.898   5.168  17.504  0.00  0.00    +0.000 C 
ATOM     15  C   UNL     1       7.207   6.670  17.641  0.00  0.00    +0.000 C 
ENDROOT
BRANCH  14  16
ATOM     16  O   UNL     1       8.040   4.645  16.796  0.00  0.00    +0.000 OA
ATOM     17  H   UNL     1       7.740   3.935  16.202  0.00  0.00    +0.000 HD
ENDBRANCH  14  16
BRANCH   1  18
ATOM     18  C   UNL     1       5.508   5.845  15.487  0.00  0.00    +0.000 C 
BRANCH  18  19
ATOM     19  O   UNL     1       5.521   5.259  14.176  0.00  0.00    +0.000 OA
BRANCH  19  21
ATOM     20  C   UNL     1       6.480   3.648  12.796  0.00  0.00    +0.000 C 
ATOM     21  C   UNL     1       6.711   4.818  13.707  0.00  0.00    +0.000 C 
ATOM     22  O   UNL     1       7.800   5.301  13.964  0.00  0.00    +0.000 OA
ENDBRANCH  19  21
ENDBRANCH  18  19
ENDBRANCH   1  18
TORSDOF 4
ENDMDL
MODEL 4
REMARK VINA RESULT:      -6.3      1.960      3.785
REMARK  Name = 
REMARK  9 active torsions:
REMARK  status: ('A' for Active; 'I' for Inactive)
REMARK    1  A    between atoms: C_1  and  C_2
REMARK    2  A    between atoms: C_2  and  O_4
REMARK    3  A    between atoms: O_4  and  C_5
REMARK    4  A    between atoms: C_5  and  C_6
REMARK    5  A    between atoms: C_7  and  C_8
REMARK    6  A    between atoms: C_13  and  C_14
REMARK    7  A    between atoms: C_13  and  C_15
REMARK    8  A    between atoms: C_19  and  C_20
REMARK    9  A    between atoms: C_19  and  O_21
REMARK                            x       y       z     vdW  Elec       q    Type
REMARK                         _______ _______ _______ _____ _____    ______ ____
ROOT
ATOM      1  C   UNL     1       5.929   6.171  16.527  0.00  0.00    +0.000 C 
ATOM      2  C   UNL     1       4.897   5.771  17.692  0.00  0.00    +0.000 C 
ATOM      3  C   UNL     1       5.674   5.442  18.985  0.00  0.00    +0.000 C 
ATOM      4  C   UNL     1       3.956   6.987  17.958  0.00  0.00    +0.000 C 
ATOM      5  C   UNL     1       2.951   6.741  19.090  0.00  0.00    +0.000 C 
ATOM      6  C   UNL     1       2.181   5.412  19.006  0.00  0.00    +0.000 C 
ATOM      7 BR   UNL     1       1.305   5.127  20.748  0.00  0.00    +0.000 Br
ATOM      8  C   UNL     1       2.934   4.139  18.482  0.00  0.00    +0.000 C 
ATOM      9  C   UNL     1       3.663   3.292  19.563  0.00  0.00    +0.000 C 
ATOM     10  C   UNL     1       1.853   3.159  17.934  0.00  0.00    +0.000 C 
ATOM     11  C   UNL     1       3.883   4.619  17.297  0.00  0.00    +0.000 C 
ATOM     12  C   UNL     1       4.555   3.508  16.488  0.00  0.00    +0.000 C 
ATOM     13  C   UNL     1       5.117   4.097  15.201  0.00  0.00    +0.000 C 
ATOM     14  C   UNL     1       6.268   5.068  15.460  0.00  0.00    +0.000 C 
ATOM     15  C   UNL     1       7.550   4.261  15.728  0.00  0.00    +0.000 C 
ENDROOT
BRANCH  14  16
ATOM     16  O   UNL     1       6.538   5.740  14.213  0.00  0.00    +0.000 OA
ATOM     17  H   UNL     1       6.133   5.230  13.490  0.00  0.00    +0.000 HD
ENDBRANCH  14  16
BRANCH   1  18
ATOM     18  C   UNL     1       7.270   6.800  17.025  0.00  0.00    +0.000 C 
BRANCH  18  19
ATOM     19  O   UNL     1       7.245   8.230  17.161  0.00  0.00    +0.000 OA
BRANCH  19  21
ATOM     20  C   UNL     1       8.219  10.256  17.767  0.00  0.00    +0.000 C 
ATOM     21  C   UNL     1       8.118   8.782  18.035  0.00  0.00    +0.000 C 
ATOM     22  O   UNL     1       8.715   8.188  18.916  0.00  0.00    +0.000 OA
ENDBRANCH  19  21
ENDBRANCH  18  19
ENDBRANCH   1  18
TORSDOF 4
ENDMDL
MODEL 5
REMARK VINA RESULT:      -6.1      1.756      3.543
REMARK  Name = 
REMARK  9 active torsions:
REMARK  status: ('A' for Active; 'I' for Inactive)
REMARK    1  A    between atoms: C_1  and  C_2
REMARK    2  A    between atoms: C_2  and  O_4
REMARK    3  A    between atoms: O_4  and  C_5
REMARK    4  A    between atoms: C_5  and  C_6
REMARK    5  A    between atoms: C_7  and  C_8
REMARK    6  A    between atoms: C_13  and  C_14
REMARK    7  A    between atoms: C_13  and  C_15
REMARK    8  A    between atoms: C_19  and  C_20
REMARK    9  A    between atoms: C_19  and  O_21
REMARK                            x       y       z     vdW  Elec       q    Type
REMARK                         _______ _______ _______ _____ _____    ______ ____
ROOT
ATOM      1  C   UNL     1       4.786   6.298  16.835  0.00  0.00    +0.000 C 
ATOM      2  C   UNL     1       4.137   5.420  18.013  0.00  0.00    +0.000 C 
ATOM      3  C   UNL     1       5.040   5.480  19.264  0.00  0.00    +0.000 C 
ATOM      4  C   UNL     1       2.739   6.019  18.364  0.00  0.00    +0.000 C 
ATOM      5  C   UNL     1       2.037   5.289  19.517  0.00  0.00    +0.000 C 
ATOM      6  C   UNL     1       2.004   3.755  19.397  0.00  0.00    +0.000 C 
ATOM      7 BR   UNL     1       1.465   3.039  21.152  0.00  0.00    +0.000 Br
ATOM      8  C   UNL     1       3.252   3.021  18.792  0.00  0.00    +0.000 C 
ATOM      9  C   UNL     1       4.354   2.611  19.810  0.00  0.00    +0.000 C 
ATOM     10  C   UNL     1       2.755   1.653  18.236  0.00  0.00    +0.000 C 
ATOM     11  C   UNL     1       3.789   3.930  17.600  0.00  0.00    +0.000 C 
ATOM     12  C   UNL     1       4.874   3.305  16.720  0.00  0.00    +0.000 C 
ATOM     13  C   UNL     1       5.015   4.124  15.443  0.00  0.00    +0.000 C 
ATOM     14  C   UNL     1       5.562   5.525  15.708  0.00  0.00    +0.000 C 
ATOM     15  C   UNL     1       7.087   5.436  15.898  0.00  0.00    +0.000 C 
ENDROOT
BRANCH  14  16
ATOM     16  O   UNL     1       5.410   6.273  14.485  0.00  0.00    +0.000 OA
ATOM     17  H   UNL     1       5.120   5.666  13.782  0.00  0.00    +0.000 HD
ENDBRANCH  14  16
BRANCH   1  18
ATOM     18  C   UNL     1       5.677   7.488  17.317  0.00  0.00    +0.000 C 
BRANCH  18  19
ATOM     19  O   UNL     1       7.081   7.327  17.060  0.00  0.00    +0.000 OA
BRANCH  19  21
ATOM     20  C   UNL     1       8.257   9.099  18.006  0.00  0.00    +0.000 C 
ATOM     21  C   UNL     1       7.932   7.635  18.066  0.00  0.00    +0.000 C 
ATOM     22  O   UNL     1       8.356   6.857  18.903  0.00  0.00    +0.000 OA
ENDBRANCH  19  21
ENDBRANCH  18  19
ENDBRANCH   1  18
TORSDOF 4
ENDMDL
MODEL 6
REMARK VINA RESULT:      -6.1      4.480      6.736
REMARK  Name = 
REMARK  9 active torsions:
REMARK  status: ('A' for Active; 'I' for Inactive)
REMARK    1  A    between atoms: C_1  and  C_2
REMARK    2  A    between atoms: C_2  and  O_4
REMARK    3  A    between atoms: O_4  and  C_5
REMARK    4  A    between atoms: C_5  and  C_6
REMARK    5  A    between atoms: C_7  and  C_8
REMARK    6  A    between atoms: C_13  and  C_14
REMARK    7  A    between atoms: C_13  and  C_15
REMARK    8  A    between atoms: C_19  and  C_20
REMARK    9  A    between atoms: C_19  and  O_21
REMARK                            x       y       z     vdW  Elec       q    Type
REMARK                         _______ _______ _______ _____ _____    ______ ____
ROOT
ATOM      1  C   UNL     1       2.102   6.932  20.329  0.00  0.00    +0.000 C 
ATOM      2  C   UNL     1       1.144   8.193  20.598  0.00  0.00    +0.000 C 
ATOM      3  C   UNL     1      -0.326   7.726  20.667  0.00  0.00    +0.000 C 
ATOM      4  C   UNL     1       1.539   8.832  21.967  0.00  0.00    +0.000 C 
ATOM      5  C   UNL     1       0.657  10.025  22.358  0.00  0.00    +0.000 C 
ATOM      6  C   UNL     1       0.455  11.079  21.256  0.00  0.00    +0.000 C 
ATOM      7 BR   UNL     1      -1.025  12.249  21.826  0.00  0.00    +0.000 Br
ATOM      8  C   UNL     1       0.318  10.596  19.770  0.00  0.00    +0.000 C 
ATOM      9  C   UNL     1      -1.127  10.271  19.296  0.00  0.00    +0.000 C 
ATOM     10  C   UNL     1       0.728  11.792  18.859  0.00  0.00    +0.000 C 
ATOM     11  C   UNL     1       1.341   9.391  19.580  0.00  0.00    +0.000 C 
ATOM     12  C   UNL     1       1.538   8.903  18.143  0.00  0.00    +0.000 C 
ATOM     13  C   UNL     1       2.781   8.025  18.080  0.00  0.00    +0.000 C 
ATOM     14  C   UNL     1       2.614   6.722  18.858  0.00  0.00    +0.000 C 
ATOM     15  C   UNL     1       1.793   5.736  18.008  0.00  0.00    +0.000 C 
ENDROOT
BRANCH  14  16
ATOM     16  O   UNL     1       3.916   6.109  18.936  0.00  0.00    +0.000 OA
ATOM     17  H   UNL     1       4.164   6.022  19.873  0.00  0.00    +0.000 HD
ENDBRANCH  14  16
BRANCH   1  18
ATOM     18  C   UNL     1       1.555   5.567  20.858  0.00  0.00    +0.000 C 
BRANCH  18  19
ATOM     19  O   UNL     1       2.568   4.612  21.208  0.00  0.00    +0.000 OA
BRANCH  19  21
ATOM     20  C   UNL     1       1.011   3.057  20.447  0.00  0.00    +0.000 C 
ATOM     21  C   UNL     1       2.179   3.324  21.352  0.00  0.00    +0.000 C 
ATOM     22  O   UNL     1       2.701   2.500  22.083  0.00  0.00    +0.000 OA
ENDBRANCH  19  21
ENDBRANCH  18  19
ENDBRANCH   1  18
TORSDOF 4
ENDMDL
MODEL 7
REMARK VINA RESULT:      -5.8      3.867      6.315
REMARK  Name = 
REMARK  9 active torsions:
REMARK  status: ('A' for Active; 'I' for Inactive)
REMARK    1  A    between atoms: C_1  and  C_2
REMARK    2  A    between atoms: C_2  and  O_4
REMARK    3  A    between atoms: O_4  and  C_5
REMARK    4  A    between atoms: C_5  and  C_6
REMARK    5  A    between atoms: C_7  and  C_8
REMARK    6  A    between atoms: C_13  and  C_14
REMARK    7  A    between atoms: C_13  and  C_15
REMARK    8  A    between atoms: C_19  and  C_20
REMARK    9  A    between atoms: C_19  and  O_21
REMARK                            x       y       z     vdW  Elec       q    Type
REMARK                         _______ _______ _______ _____ _____    ______ ____
ROOT
ATOM      1  C   UNL     1       4.252   3.405  19.114  0.00  0.00    +0.000 C 
ATOM      2  C   UNL     1       5.034   4.710  18.596  0.00  0.00    +0.000 C 
ATOM      3  C   UNL     1       4.119   5.948  18.717  0.00  0.00    +0.000 C 
ATOM      4  C   UNL     1       6.296   4.919  19.492  0.00  0.00    +0.000 C 
ATOM      5  C   UNL     1       7.103   6.170  19.122  0.00  0.00    +0.000 C 
ATOM      6  C   UNL     1       7.415   6.329  17.623  0.00  0.00    +0.000 C 
ATOM      7 BR   UNL     1       8.052   8.173  17.347  0.00  0.00    +0.000 Br
ATOM      8  C   UNL     1       6.329   5.892  16.579  0.00  0.00    +0.000 C 
ATOM      9  C   UNL     1       5.307   6.989  16.167  0.00  0.00    +0.000 C 
ATOM     10  C   UNL     1       7.074   5.582  15.245  0.00  0.00    +0.000 C 
ATOM     11  C   UNL     1       5.652   4.566  17.144  0.00  0.00    +0.000 C 
ATOM     12  C   UNL     1       4.711   3.835  16.184  0.00  0.00    +0.000 C 
ATOM     13  C   UNL     1       4.441   2.435  16.719  0.00  0.00    +0.000 C 
ATOM     14  C   UNL     1       3.644   2.453  18.022  0.00  0.00    +0.000 C 
ATOM     15  C   UNL     1       2.159   2.687  17.695  0.00  0.00    +0.000 C 
ENDROOT
BRANCH  14  16
ATOM     16  O   UNL     1       3.674   1.113  18.551  0.00  0.00    +0.000 OA
ATOM     17  H   UNL     1       3.980   1.148  19.474  0.00  0.00    +0.000 HD
ENDBRANCH  14  16
BRANCH   1  18
ATOM     18  C   UNL     1       3.154   3.683  20.191  0.00  0.00    +0.000 C 
BRANCH  18  19
ATOM     19  O   UNL     1       2.817   2.550  21.007  0.00  0.00    +0.000 OA
BRANCH  19  21
ATOM     20  C   UNL     1       0.627   3.234  20.610  0.00  0.00    +0.000 C 
ATOM     21  C   UNL     1       1.570   2.516  21.531  0.00  0.00    +0.000 C 
ATOM     22  O   UNL     1       1.251   1.973  22.575  0.00  0.00    +0.000 OA
ENDBRANCH  19  21
ENDBRANCH  18  19
ENDBRANCH   1  18
TORSDOF 4
ENDMDL
MODEL 8
REMARK VINA RESULT:      -5.8      2.224      4.608
REMARK  Name = 
REMARK  9 active torsions:
REMARK  status: ('A' for Active; 'I' for Inactive)
REMARK    1  A    between atoms: C_1  and  C_2
REMARK    2  A    between atoms: C_2  and  O_4
REMARK    3  A    between atoms: O_4  and  C_5
REMARK    4  A    between atoms: C_5  and  C_6
REMARK    5  A    between atoms: C_7  and  C_8
REMARK    6  A    between atoms: C_13  and  C_14
REMARK    7  A    between atoms: C_13  and  C_15
REMARK    8  A    between atoms: C_19  and  C_20
REMARK    9  A    between atoms: C_19  and  O_21
REMARK                            x       y       z     vdW  Elec       q    Type
REMARK                         _______ _______ _______ _____ _____    ______ ____
ROOT
ATOM      1  C   UNL     1       3.843   6.518  17.051  0.00  0.00    +0.000 C 
ATOM      2  C   UNL     1       3.346   5.324  18.004  0.00  0.00    +0.000 C 
ATOM      3  C   UNL     1       3.637   5.679  19.478  0.00  0.00    +0.000 C 
ATOM      4  C   UNL     1       1.806   5.149  17.817  0.00  0.00    +0.000 C 
ATOM      5  C   UNL     1       1.204   4.062  18.716  0.00  0.00    +0.000 C 
ATOM      6  C   UNL     1       1.952   2.717  18.708  0.00  0.00    +0.000 C 
ATOM      7 BR   UNL     1       1.276   1.659  20.226  0.00  0.00    +0.000 Br
ATOM      8  C   UNL     1       3.518   2.728  18.616  0.00  0.00    +0.000 C 
ATOM      9  C   UNL     1       4.273   2.789  19.974  0.00  0.00    +0.000 C 
ATOM     10  C   UNL     1       3.953   1.351  18.030  0.00  0.00    +0.000 C 
ATOM     11  C   UNL     1       3.913   3.898  17.611  0.00  0.00    +0.000 C 
ATOM     12  C   UNL     1       5.386   3.954  17.198  0.00  0.00    +0.000 C 
ATOM     13  C   UNL     1       5.531   4.865  15.986  0.00  0.00    +0.000 C 
ATOM     14  C   UNL     1       5.217   6.323  16.314  0.00  0.00    +0.000 C 
ATOM     15  C   UNL     1       6.436   6.950  17.014  0.00  0.00    +0.000 C 
ENDROOT
BRANCH  14  16
ATOM     16  O   UNL     1       5.140   7.029  15.059  0.00  0.00    +0.000 OA
ATOM     17  H   UNL     1       5.495   6.456  14.357  0.00  0.00    +0.000 HD
ENDBRANCH  14  16
BRANCH   1  18
ATOM     18  C   UNL     1       3.838   7.933  17.715  0.00  0.00    +0.000 C 
BRANCH  18  19
ATOM     19  O   UNL     1       2.670   8.721  17.434  0.00  0.00    +0.000 OA
BRANCH  19  21
ATOM     20  C   UNL     1       0.626   9.710  17.947  0.00  0.00    +0.000 C 
ATOM     21  C   UNL     1       1.763   8.856  18.429  0.00  0.00    +0.000 C 
ATOM     22  O   UNL     1       1.839   8.352  19.536  0.00  0.00    +0.000 OA
ENDBRANCH  19  21
ENDBRANCH  18  19
ENDBRANCH   1  18
TORSDOF 4
ENDMDL
MODEL 9
REMARK VINA RESULT:      -5.7      3.236      5.163
REMARK  Name = 
REMARK  9 active torsions:
REMARK  status: ('A' for Active; 'I' for Inactive)
REMARK    1  A    between atoms: C_1  and  C_2
REMARK    2  A    between atoms: C_2  and  O_4
REMARK    3  A    between atoms: O_4  and  C_5
REMARK    4  A    between atoms: C_5  and  C_6
REMARK    5  A    between atoms: C_7  and  C_8
REMARK    6  A    between atoms: C_13  and  C_14
REMARK    7  A    between atoms: C_13  and  C_15
REMARK    8  A    between atoms: C_19  and  C_20
REMARK    9  A    between atoms: C_19  and  O_21
REMARK                            x       y       z     vdW  Elec       q    Type
REMARK                         _______ _______ _______ _____ _____    ______ ____
ROOT
ATOM      1  C   UNL     1       3.874   4.632  18.973  0.00  0.00    +0.000 C 
ATOM      2  C   UNL     1       2.777   5.803  19.057  0.00  0.00    +0.000 C 
ATOM      3  C   UNL     1       1.466   5.337  18.389  0.00  0.00    +0.000 C 
ATOM      4  C   UNL     1       2.500   6.114  20.561  0.00  0.00    +0.000 C 
ATOM      5  C   UNL     1       1.428   7.191  20.772  0.00  0.00    +0.000 C 
ATOM      6  C   UNL     1       1.608   8.468  19.932  0.00  0.00    +0.000 C 
ATOM      7 BR   UNL     1      -0.077   9.484  20.037  0.00  0.00    +0.000 Br
ATOM      8  C   UNL     1       2.154   8.334  18.468  0.00  0.00    +0.000 C 
ATOM      9  C   UNL     1       1.079   8.129  17.362  0.00  0.00    +0.000 C 
ATOM     10  C   UNL     1       2.795   9.704  18.089  0.00  0.00    +0.000 C 
ATOM     11  C   UNL     1       3.270   7.199  18.493  0.00  0.00    +0.000 C 
ATOM     12  C   UNL     1       4.097   7.047  17.214  0.00  0.00    +0.000 C 
ATOM     13  C   UNL     1       5.329   6.202  17.513  0.00  0.00    +0.000 C 
ATOM     14  C   UNL     1       4.973   4.758  17.857  0.00  0.00    +0.000 C 
ATOM     15  C   UNL     1       4.682   3.992  16.554  0.00  0.00    +0.000 C 
ENDROOT
BRANCH  14  16
ATOM     16  O   UNL     1       6.174   4.138  18.360  0.00  0.00    +0.000 OA
ATOM     17  H   UNL     1       6.666   3.758  17.611  0.00  0.00    +0.000 HD
ENDBRANCH  14  16
BRANCH   1  18
ATOM     18  C   UNL     1       3.286   3.184  18.922  0.00  0.00    +0.000 C 
BRANCH  18  19
ATOM     19  O   UNL     1       3.378   2.458  20.158  0.00  0.00    +0.000 OA
BRANCH  19  21
ATOM     20  C   UNL     1       1.060   2.582  20.339  0.00  0.00    +0.000 C 
ATOM     21  C   UNL     1       2.379   2.634  21.053  0.00  0.00    +0.000 C 
ATOM     22  O   UNL     1       2.519   2.790  22.254  0.00  0.00    +0.000 OA
ENDBRANCH  19  21
ENDBRANCH  18  19
ENDBRANCH   1  18
TORSDOF 4
ENDMDL
