MODEL 1
REMARK VINA RESULT:      -8.3      0.000      0.000
REMARK  Name = 
REMARK  8 active torsions:
REMARK  status: ('A' for Active; 'I' for Inactive)
REMARK    1  A    between atoms: C_1  and  O_2
REMARK    2  A    between atoms: O_2  and  C_3
REMARK    3  A    between atoms: C_5  and  O_6
REMARK    4  A    between atoms: O_6  and  C_7
REMARK    5  A    between atoms: C_9  and  N_10
REMARK    6  A    between atoms: C_14  and  C_16
REMARK    7  A    between atoms: C_18  and  C_19
REMARK    8  A    between atoms: C_21  and  C_22
REMARK                            x       y       z     vdW  Elec       q    Type
REMARK                         _______ _______ _______ _____ _____    ______ ____
ROOT
ATOM      1  N   UNL     1       2.356   7.069  19.028  0.00  0.00    +0.000 N 
ATOM      2  C   UNL     1       2.567   5.789  19.719  0.00  0.00    +0.000 C 
ATOM      3  C   UNL     1       2.582   4.652  18.669  0.00  0.00    +0.000 C 
ATOM      4  N   UNL     1       3.522   4.939  17.569  0.00  0.00    +0.000 N 
ATOM      5  C   UNL     1       4.371   3.930  17.113  0.00  0.00    +0.000 C 
ATOM      6  O   UNL     1       4.304   2.802  17.601  0.00  0.00    +0.000 OA
ATOM      7  C   UNL     1       3.311   6.253  16.939  0.00  0.00    +0.000 C 
ATOM      8  C   UNL     1       3.371   7.365  17.996  0.00  0.00    +0.000 C 
ENDROOT
BRANCH   1  13
ATOM      9  C   UNL     1       1.136  10.510  19.493  0.00  0.00    +0.000 A 
ATOM     10  C   UNL     1       0.820  10.512  20.849  0.00  0.00    +0.000 A 
ATOM     11  C   UNL     1       0.994   9.364  21.628  0.00  0.00    +0.000 A 
ATOM     12  C   UNL     1       1.480   8.194  21.031  0.00  0.00    +0.000 A 
ATOM     13  C   UNL     1       1.834   8.177  19.683  0.00  0.00    +0.000 A 
ATOM     14  C   UNL     1       1.644   9.345  18.929  0.00  0.00    +0.000 A 
BRANCH   9  16
ATOM     15  C   UNL     1       2.079  12.348  18.324  0.00  0.00    +0.000 C 
ATOM     16  O   UNL     1       0.919  11.683  18.820  0.00  0.00    +0.000 OA
ENDBRANCH   9  16
BRANCH  11  17
ATOM     17  O   UNL     1       0.668   9.516  22.948  0.00  0.00    +0.000 OA
ATOM     18  C   UNL     1      -0.597  10.096  23.239  0.00  0.00    +0.000 C 
ENDBRANCH  11  17
ENDBRANCH   1  13
BRANCH   5  19
ATOM     19  C   UNL     1       5.312   4.239  16.059  0.00  0.00    +0.000 A 
ATOM     20  O   UNL     1       5.122   3.726  14.796  0.00  0.00    +0.000 OA
ATOM     21  C   UNL     1       6.169   4.206  14.064  0.00  0.00    +0.000 A 
ATOM     22  C   UNL     1       6.291   3.707  12.680  0.00  0.00    +0.000 C 
ATOM     23  N   UNL     1       6.958   5.028  14.720  0.00  0.00    +0.000 NA
ATOM     24  C   UNL     1       6.427   5.054  15.996  0.00  0.00    +0.000 A 
BRANCH  24  25
ATOM     25  C   UNL     1       7.041   5.817  17.070  0.00  0.00    +0.000 A 
ATOM     26  C   UNL     1       7.275   7.190  16.893  0.00  0.00    +0.000 A 
ATOM     27  C   UNL     1       7.916   7.943  17.881  0.00  0.00    +0.000 A 
ATOM     28  C   UNL     1       8.337   7.325  19.056  0.00  0.00    +0.000 A 
ATOM     29  C   UNL     1       8.108   5.966  19.233  0.00  0.00    +0.000 A 
ATOM     30  F   UNL     1       8.523   5.369  20.358  0.00  0.00    +0.000 F 
ATOM     31  C   UNL     1       7.469   5.209  18.256  0.00  0.00    +0.000 A 
ENDBRANCH  24  25
ENDBRANCH   5  19
TORSDOF 5
ENDMDL
MODEL 2
REMARK VINA RESULT:      -8.3      0.954      1.287
REMARK  Name = 
REMARK  8 active torsions:
REMARK  status: ('A' for Active; 'I' for Inactive)
REMARK    1  A    between atoms: C_1  and  O_2
REMARK    2  A    between atoms: O_2  and  C_3
REMARK    3  A    between atoms: C_5  and  O_6
REMARK    4  A    between atoms: O_6  and  C_7
REMARK    5  A    between atoms: C_9  and  N_10
REMARK    6  A    between atoms: C_14  and  C_16
REMARK    7  A    between atoms: C_18  and  C_19
REMARK    8  A    between atoms: C_21  and  C_22
REMARK                            x       y       z     vdW  Elec       q    Type
REMARK                         _______ _______ _______ _____ _____    ______ ____
ROOT
ATOM      1  N   UNL     1       2.437   6.897  18.977  0.00  0.00    +0.000 N 
ATOM      2  C   UNL     1       2.725   5.642  19.686  0.00  0.00    +0.000 C 
ATOM      3  C   UNL     1       2.799   4.491  18.655  0.00  0.00    +0.000 C 
ATOM      4  N   UNL     1       3.713   4.813  17.543  0.00  0.00    +0.000 N 
ATOM      5  C   UNL     1       4.615   3.847  17.097  0.00  0.00    +0.000 C 
ATOM      6  O   UNL     1       4.616   2.725  17.602  0.00  0.00    +0.000 OA
ATOM      7  C   UNL     1       3.423   6.103  16.894  0.00  0.00    +0.000 C 
ATOM      8  C   UNL     1       3.426   7.234  17.932  0.00  0.00    +0.000 C 
ENDROOT
BRANCH   1  13
ATOM      9  C   UNL     1       1.025  10.270  19.397  0.00  0.00    +0.000 A 
ATOM     10  C   UNL     1       0.719  10.276  20.755  0.00  0.00    +0.000 A 
ATOM     11  C   UNL     1       0.965   9.153  21.551  0.00  0.00    +0.000 A 
ATOM     12  C   UNL     1       1.512   8.003  20.969  0.00  0.00    +0.000 A 
ATOM     13  C   UNL     1       1.857   7.983  19.618  0.00  0.00    +0.000 A 
ATOM     14  C   UNL     1       1.595   9.127  18.847  0.00  0.00    +0.000 A 
BRANCH   9  16
ATOM     15  C   UNL     1      -0.178  12.314  19.332  0.00  0.00    +0.000 C 
ATOM     16  O   UNL     1       0.737  11.417  18.707  0.00  0.00    +0.000 OA
ENDBRANCH   9  16
BRANCH  11  17
ATOM     17  O   UNL     1       0.639   9.307  22.871  0.00  0.00    +0.000 OA
ATOM     18  C   UNL     1      -0.542  10.042  23.165  0.00  0.00    +0.000 C 
ENDBRANCH  11  17
ENDBRANCH   1  13
BRANCH   5  19
ATOM     19  C   UNL     1       5.530   4.192  16.031  0.00  0.00    +0.000 A 
ATOM     20  O   UNL     1       5.327   3.694  14.763  0.00  0.00    +0.000 OA
ATOM     21  C   UNL     1       6.351   4.208  14.021  0.00  0.00    +0.000 A 
ATOM     22  C   UNL     1       6.458   3.732  12.627  0.00  0.00    +0.000 C 
ATOM     23  N   UNL     1       7.134   5.037  14.674  0.00  0.00    +0.000 NA
ATOM     24  C   UNL     1       6.625   5.032  15.960  0.00  0.00    +0.000 A 
BRANCH  24  25
ATOM     25  C   UNL     1       7.243   5.792  17.034  0.00  0.00    +0.000 A 
ATOM     26  C   UNL     1       7.602   5.137  18.222  0.00  0.00    +0.000 A 
ATOM     27  C   UNL     1       8.146   5.846  19.298  0.00  0.00    +0.000 A 
ATOM     28  C   UNL     1       8.327   7.223  19.196  0.00  0.00    +0.000 A 
ATOM     29  C   UNL     1       7.972   7.874  18.021  0.00  0.00    +0.000 A 
ATOM     30  F   UNL     1       8.137   9.200  17.927  0.00  0.00    +0.000 F 
ATOM     31  C   UNL     1       7.432   7.176  16.945  0.00  0.00    +0.000 A 
ENDBRANCH  24  25
ENDBRANCH   5  19
TORSDOF 5
ENDMDL
MODEL 3
REMARK VINA RESULT:      -8.3      0.985      2.367
REMARK  Name = 
REMARK  8 active torsions:
REMARK  status: ('A' for Active; 'I' for Inactive)
REMARK    1  A    between atoms: C_1  and  O_2
REMARK    2  A    between atoms: O_2  and  C_3
REMARK    3  A    between atoms: C_5  and  O_6
REMARK    4  A    between atoms: O_6  and  C_7
REMARK    5  A    between atoms: C_9  and  N_10
REMARK    6  A    between atoms: C_14  and  C_16
REMARK    7  A    between atoms: C_18  and  C_19
REMARK    8  A    between atoms: C_21  and  C_22
REMARK                            x       y       z     vdW  Elec       q    Type
REMARK                         _______ _______ _______ _____ _____    ______ ____
ROOT
ATOM      1  N   UNL     1       2.352   7.273  18.904  0.00  0.00    +0.000 N 
ATOM      2  C   UNL     1       2.617   6.062  19.695  0.00  0.00    +0.000 C 
ATOM      3  C   UNL     1       2.661   4.843  18.743  0.00  0.00    +0.000 C 
ATOM      4  N   UNL     1       3.577   5.070  17.609  0.00  0.00    +0.000 N 
ATOM      5  C   UNL     1       4.455   4.057  17.225  0.00  0.00    +0.000 C 
ATOM      6  O   UNL     1       4.434   2.971  17.805  0.00  0.00    +0.000 OA
ATOM      7  C   UNL     1       3.311   6.320  16.875  0.00  0.00    +0.000 C 
ATOM      8  C   UNL     1       3.344   7.517  17.835  0.00  0.00    +0.000 C 
ENDROOT
BRANCH   1  13
ATOM      9  C   UNL     1       0.995   9.479  21.519  0.00  0.00    +0.000 A 
ATOM     10  C   UNL     1       0.660  10.611  20.780  0.00  0.00    +0.000 A 
ATOM     11  C   UNL     1       0.894  10.664  19.403  0.00  0.00    +0.000 A 
ATOM     12  C   UNL     1       1.485   9.569  18.761  0.00  0.00    +0.000 A 
ATOM     13  C   UNL     1       1.799   8.412  19.473  0.00  0.00    +0.000 A 
ATOM     14  C   UNL     1       1.555   8.392  20.855  0.00  0.00    +0.000 A 
BRANCH   9  16
ATOM     15  C   UNL     1      -0.553  10.024  23.232  0.00  0.00    +0.000 C 
ATOM     16  O   UNL     1       0.733   9.533  22.861  0.00  0.00    +0.000 OA
ENDBRANCH   9  16
BRANCH  11  17
ATOM     17  O   UNL     1       0.493  11.826  18.801  0.00  0.00    +0.000 OA
ATOM     18  C   UNL     1      -0.908  12.043  18.682  0.00  0.00    +0.000 C 
ENDBRANCH  11  17
ENDBRANCH   1  13
BRANCH   5  19
ATOM     19  C   UNL     1       5.372   4.310  16.135  0.00  0.00    +0.000 A 
ATOM     20  O   UNL     1       5.128   3.769  14.892  0.00  0.00    +0.000 OA
ATOM     21  C   UNL     1       6.166   4.198  14.117  0.00  0.00    +0.000 A 
ATOM     22  C   UNL     1       6.231   3.659  12.744  0.00  0.00    +0.000 C 
ATOM     23  N   UNL     1       6.999   5.013  14.726  0.00  0.00    +0.000 NA
ATOM     24  C   UNL     1       6.507   5.089  16.016  0.00  0.00    +0.000 A 
BRANCH  24  25
ATOM     25  C   UNL     1       7.177   5.861  17.050  0.00  0.00    +0.000 A 
ATOM     26  C   UNL     1       7.566   5.226  18.239  0.00  0.00    +0.000 A 
ATOM     27  C   UNL     1       8.161   5.949  19.278  0.00  0.00    +0.000 A 
ATOM     28  C   UNL     1       8.363   7.320  19.138  0.00  0.00    +0.000 A 
ATOM     29  C   UNL     1       7.977   7.950  17.962  0.00  0.00    +0.000 A 
ATOM     30  F   UNL     1       8.162   9.271  17.832  0.00  0.00    +0.000 F 
ATOM     31  C   UNL     1       7.387   7.239  16.922  0.00  0.00    +0.000 A 
ENDBRANCH  24  25
ENDBRANCH   5  19
TORSDOF 5
ENDMDL
MODEL 4
REMARK VINA RESULT:      -8.2      0.495      2.041
REMARK  Name = 
REMARK  8 active torsions:
REMARK  status: ('A' for Active; 'I' for Inactive)
REMARK    1  A    between atoms: C_1  and  O_2
REMARK    2  A    between atoms: O_2  and  C_3
REMARK    3  A    between atoms: C_5  and  O_6
REMARK    4  A    between atoms: O_6  and  C_7
REMARK    5  A    between atoms: C_9  and  N_10
REMARK    6  A    between atoms: C_14  and  C_16
REMARK    7  A    between atoms: C_18  and  C_19
REMARK    8  A    between atoms: C_21  and  C_22
REMARK                            x       y       z     vdW  Elec       q    Type
REMARK                         _______ _______ _______ _____ _____    ______ ____
ROOT
ATOM      1  N   UNL     1       2.357   7.160  18.812  0.00  0.00    +0.000 N 
ATOM      2  C   UNL     1       2.538   5.883  19.518  0.00  0.00    +0.000 C 
ATOM      3  C   UNL     1       2.603   4.741  18.476  0.00  0.00    +0.000 C 
ATOM      4  N   UNL     1       3.592   5.024  17.419  0.00  0.00    +0.000 N 
ATOM      5  C   UNL     1       4.462   4.015  17.007  0.00  0.00    +0.000 C 
ATOM      6  O   UNL     1       4.375   2.889  17.497  0.00  0.00    +0.000 OA
ATOM      7  C   UNL     1       3.408   6.335  16.773  0.00  0.00    +0.000 C 
ATOM      8  C   UNL     1       3.417   7.453  17.825  0.00  0.00    +0.000 C 
ENDROOT
BRANCH   1  13
ATOM      9  C   UNL     1       0.897   9.198  21.507  0.00  0.00    +0.000 A 
ATOM     10  C   UNL     1       0.650  10.398  20.845  0.00  0.00    +0.000 A 
ATOM     11  C   UNL     1       0.979  10.553  19.495  0.00  0.00    +0.000 A 
ATOM     12  C   UNL     1       1.576   9.491  18.804  0.00  0.00    +0.000 A 
ATOM     13  C   UNL     1       1.804   8.270  19.436  0.00  0.00    +0.000 A 
ATOM     14  C   UNL     1       1.465   8.148  20.793  0.00  0.00    +0.000 A 
BRANCH   9  16
ATOM     15  C   UNL     1      -0.489  10.045  23.236  0.00  0.00    +0.000 C 
ATOM     16  O   UNL     1       0.547   9.154  22.829  0.00  0.00    +0.000 OA
ENDBRANCH   9  16
BRANCH  11  17
ATOM     17  O   UNL     1       0.658  11.774  18.967  0.00  0.00    +0.000 OA
ATOM     18  C   UNL     1      -0.694  11.974  18.572  0.00  0.00    +0.000 C 
ENDBRANCH  11  17
ENDBRANCH   1  13
BRANCH   5  19
ATOM     19  C   UNL     1       5.450   4.320  15.996  0.00  0.00    +0.000 A 
ATOM     20  O   UNL     1       5.306   3.821  14.721  0.00  0.00    +0.000 OA
ATOM     21  C   UNL     1       6.389   4.293  14.038  0.00  0.00    +0.000 A 
ATOM     22  C   UNL     1       6.561   3.804  12.656  0.00  0.00    +0.000 C 
ATOM     23  N   UNL     1       7.161   5.098  14.733  0.00  0.00    +0.000 NA
ATOM     24  C   UNL     1       6.577   5.120  15.986  0.00  0.00    +0.000 A 
BRANCH  24  25
ATOM     25  C   UNL     1       7.157   5.865  17.092  0.00  0.00    +0.000 A 
ATOM     26  C   UNL     1       7.422   7.235  16.934  0.00  0.00    +0.000 A 
ATOM     27  C   UNL     1       8.032   7.970  17.956  0.00  0.00    +0.000 A 
ATOM     28  C   UNL     1       8.390   7.338  19.143  0.00  0.00    +0.000 A 
ATOM     29  C   UNL     1       8.129   5.982  19.300  0.00  0.00    +0.000 A 
ATOM     30  F   UNL     1       8.484   5.371  20.439  0.00  0.00    +0.000 F 
ATOM     31  C   UNL     1       7.521   5.242  18.291  0.00  0.00    +0.000 A 
ENDBRANCH  24  25
ENDBRANCH   5  19
TORSDOF 5
ENDMDL
MODEL 5
REMARK VINA RESULT:      -8.2      2.984      8.653
REMARK  Name = 
REMARK  8 active torsions:
REMARK  status: ('A' for Active; 'I' for Inactive)
REMARK    1  A    between atoms: C_1  and  O_2
REMARK    2  A    between atoms: O_2  and  C_3
REMARK    3  A    between atoms: C_5  and  O_6
REMARK    4  A    between atoms: O_6  and  C_7
REMARK    5  A    between atoms: C_9  and  N_10
REMARK    6  A    between atoms: C_14  and  C_16
REMARK    7  A    between atoms: C_18  and  C_19
REMARK    8  A    between atoms: C_21  and  C_22
REMARK                            x       y       z     vdW  Elec       q    Type
REMARK                         _______ _______ _______ _____ _____    ______ ____
ROOT
ATOM      1  N   UNL     1       2.799   7.110  18.503  0.00  0.00    +0.000 N 
ATOM      2  C   UNL     1       2.096   6.750  19.743  0.00  0.00    +0.000 C 
ATOM      3  C   UNL     1       1.809   8.041  20.547  0.00  0.00    +0.000 C 
ATOM      4  N   UNL     1       1.144   9.063  19.716  0.00  0.00    +0.000 N 
ATOM      5  C   UNL     1       0.058   9.767  20.237  0.00  0.00    +0.000 C 
ATOM      6  O   UNL     1      -0.313   9.562  21.393  0.00  0.00    +0.000 OA
ATOM      7  C   UNL     1       1.853   9.356  18.459  0.00  0.00    +0.000 C 
ATOM      8  C   UNL     1       2.060   8.066  17.653  0.00  0.00    +0.000 C 
ENDROOT
BRANCH   1  13
ATOM      9  C   UNL     1       4.130   3.842  17.457  0.00  0.00    +0.000 A 
ATOM     10  C   UNL     1       5.121   4.221  16.556  0.00  0.00    +0.000 A 
ATOM     11  C   UNL     1       5.353   5.570  16.271  0.00  0.00    +0.000 A 
ATOM     12  C   UNL     1       4.568   6.551  16.890  0.00  0.00    +0.000 A 
ATOM     13  C   UNL     1       3.592   6.197  17.821  0.00  0.00    +0.000 A 
ATOM     14  C   UNL     1       3.382   4.834  18.082  0.00  0.00    +0.000 A 
BRANCH   9  16
ATOM     15  C   UNL     1       2.643   2.036  17.860  0.00  0.00    +0.000 C 
ATOM     16  O   UNL     1       3.978   2.496  17.658  0.00  0.00    +0.000 OA
ENDBRANCH   9  16
BRANCH  11  17
ATOM     17  O   UNL     1       6.373   5.799  15.388  0.00  0.00    +0.000 OA
ATOM     18  C   UNL     1       6.973   4.660  14.783  0.00  0.00    +0.000 C 
ENDBRANCH  11  17
ENDBRANCH   1  13
BRANCH   5  19
ATOM     19  C   UNL     1      -0.606  10.739  19.396  0.00  0.00    +0.000 A 
ATOM     20  O   UNL     1      -1.812  10.430  18.808  0.00  0.00    +0.000 OA
ATOM     21  C   UNL     1      -2.149  11.546  18.099  0.00  0.00    +0.000 A 
ATOM     22  C   UNL     1      -3.356  11.451  17.254  0.00  0.00    +0.000 C 
ATOM     23  N   UNL     1      -1.315  12.553  18.241  0.00  0.00    +0.000 NA
ATOM     24  C   UNL     1      -0.322  12.050  19.061  0.00  0.00    +0.000 A 
BRANCH  24  25
ATOM     25  C   UNL     1       0.842  12.838  19.431  0.00  0.00    +0.000 A 
ATOM     26  C   UNL     1       0.910  13.406  20.712  0.00  0.00    +0.000 A 
ATOM     27  C   UNL     1       1.987  14.217  21.082  0.00  0.00    +0.000 A 
ATOM     28  C   UNL     1       3.006  14.473  20.168  0.00  0.00    +0.000 A 
ATOM     29  C   UNL     1       2.940  13.911  18.898  0.00  0.00    +0.000 A 
ATOM     30  F   UNL     1       3.914  14.166  18.015  0.00  0.00    +0.000 F 
ATOM     31  C   UNL     1       1.873  13.102  18.521  0.00  0.00    +0.000 A 
ENDBRANCH  24  25
ENDBRANCH   5  19
TORSDOF 5
ENDMDL
MODEL 6
REMARK VINA RESULT:      -8.1      3.101      8.641
REMARK  Name = 
REMARK  8 active torsions:
REMARK  status: ('A' for Active; 'I' for Inactive)
REMARK    1  A    between atoms: C_1  and  O_2
REMARK    2  A    between atoms: O_2  and  C_3
REMARK    3  A    between atoms: C_5  and  O_6
REMARK    4  A    between atoms: O_6  and  C_7
REMARK    5  A    between atoms: C_9  and  N_10
REMARK    6  A    between atoms: C_14  and  C_16
REMARK    7  A    between atoms: C_18  and  C_19
REMARK    8  A    between atoms: C_21  and  C_22
REMARK                            x       y       z     vdW  Elec       q    Type
REMARK                         _______ _______ _______ _____ _____    ______ ____
ROOT
ATOM      1  N   UNL     1       2.833   7.123  18.487  0.00  0.00    +0.000 N 
ATOM      2  C   UNL     1       2.125   6.786  19.730  0.00  0.00    +0.000 C 
ATOM      3  C   UNL     1       1.817   8.093  20.500  0.00  0.00    +0.000 C 
ATOM      4  N   UNL     1       1.147   9.087  19.640  0.00  0.00    +0.000 N 
ATOM      5  C   UNL     1       0.050   9.791  20.135  0.00  0.00    +0.000 C 
ATOM      6  O   UNL     1      -0.327   9.610  21.293  0.00  0.00    +0.000 OA
ATOM      7  C   UNL     1       1.862   9.357  18.381  0.00  0.00    +0.000 C 
ATOM      8  C   UNL     1       2.090   8.050  17.608  0.00  0.00    +0.000 C 
ENDROOT
BRANCH   1  13
ATOM      9  C   UNL     1       4.111   3.842  17.418  0.00  0.00    +0.000 A 
ATOM     10  C   UNL     1       5.186   4.211  16.614  0.00  0.00    +0.000 A 
ATOM     11  C   UNL     1       5.494   5.558  16.402  0.00  0.00    +0.000 A 
ATOM     12  C   UNL     1       4.702   6.548  16.997  0.00  0.00    +0.000 A 
ATOM     13  C   UNL     1       3.641   6.203  17.833  0.00  0.00    +0.000 A 
ATOM     14  C   UNL     1       3.356   4.841  18.022  0.00  0.00    +0.000 A 
BRANCH   9  16
ATOM     15  C   UNL     1       3.634   2.030  18.875  0.00  0.00    +0.000 C 
ATOM     16  O   UNL     1       3.890   2.497  17.552  0.00  0.00    +0.000 OA
ENDBRANCH   9  16
BRANCH  11  17
ATOM     17  O   UNL     1       6.590   5.775  15.612  0.00  0.00    +0.000 OA
ATOM     18  C   UNL     1       6.918   4.763  14.668  0.00  0.00    +0.000 C 
ENDBRANCH  11  17
ENDBRANCH   1  13
BRANCH   5  19
ATOM     19  C   UNL     1      -0.618  10.735  19.266  0.00  0.00    +0.000 A 
ATOM     20  O   UNL     1      -1.816  10.399  18.677  0.00  0.00    +0.000 OA
ATOM     21  C   UNL     1      -2.160  11.494  17.939  0.00  0.00    +0.000 A 
ATOM     22  C   UNL     1      -3.360  11.364  17.087  0.00  0.00    +0.000 C 
ATOM     23  N   UNL     1      -1.338  12.512  18.062  0.00  0.00    +0.000 NA
ATOM     24  C   UNL     1      -0.346  12.041  18.901  0.00  0.00    +0.000 A 
BRANCH  24  25
ATOM     25  C   UNL     1       0.807  12.850  19.259  0.00  0.00    +0.000 A 
ATOM     26  C   UNL     1       1.829  13.046  18.317  0.00  0.00    +0.000 A 
ATOM     27  C   UNL     1       2.979  13.770  18.646  0.00  0.00    +0.000 A 
ATOM     28  C   UNL     1       3.120  14.299  19.926  0.00  0.00    +0.000 A 
ATOM     29  C   UNL     1       2.109  14.106  20.860  0.00  0.00    +0.000 A 
ATOM     30  F   UNL     1       2.250  14.605  22.095  0.00  0.00    +0.000 F 
ATOM     31  C   UNL     1       0.961  13.388  20.542  0.00  0.00    +0.000 A 
ENDBRANCH  24  25
ENDBRANCH   5  19
TORSDOF 5
ENDMDL
MODEL 7
REMARK VINA RESULT:      -8.1      2.994      8.396
REMARK  Name = 
REMARK  8 active torsions:
REMARK  status: ('A' for Active; 'I' for Inactive)
REMARK    1  A    between atoms: C_1  and  O_2
REMARK    2  A    between atoms: O_2  and  C_3
REMARK    3  A    between atoms: C_5  and  O_6
REMARK    4  A    between atoms: O_6  and  C_7
REMARK    5  A    between atoms: C_9  and  N_10
REMARK    6  A    between atoms: C_14  and  C_16
REMARK    7  A    between atoms: C_18  and  C_19
REMARK    8  A    between atoms: C_21  and  C_22
REMARK                            x       y       z     vdW  Elec       q    Type
REMARK                         _______ _______ _______ _____ _____    ______ ____
ROOT
ATOM      1  N   UNL     1       2.744   6.973  18.602  0.00  0.00    +0.000 N 
ATOM      2  C   UNL     1       2.029   6.699  19.857  0.00  0.00    +0.000 C 
ATOM      3  C   UNL     1       1.780   8.036  20.593  0.00  0.00    +0.000 C 
ATOM      4  N   UNL     1       1.147   9.034  19.710  0.00  0.00    +0.000 N 
ATOM      5  C   UNL     1       0.082   9.796  20.191  0.00  0.00    +0.000 C 
ATOM      6  O   UNL     1      -0.296   9.661  21.355  0.00  0.00    +0.000 OA
ATOM      7  C   UNL     1       1.865   9.242  18.441  0.00  0.00    +0.000 C 
ATOM      8  C   UNL     1       2.035   7.907  17.702  0.00  0.00    +0.000 C 
ENDROOT
BRANCH   1  13
ATOM      9  C   UNL     1       5.392   5.551  16.478  0.00  0.00    +0.000 A 
ATOM     10  C   UNL     1       5.137   4.187  16.593  0.00  0.00    +0.000 A 
ATOM     11  C   UNL     1       4.089   3.718  17.390  0.00  0.00    +0.000 A 
ATOM     12  C   UNL     1       3.295   4.632  18.093  0.00  0.00    +0.000 A 
ATOM     13  C   UNL     1       3.510   6.004  17.968  0.00  0.00    +0.000 A 
ATOM     14  C   UNL     1       4.572   6.442  17.162  0.00  0.00    +0.000 A 
BRANCH   9  16
ATOM     15  C   UNL     1       6.985   4.873  14.855  0.00  0.00    +0.000 C 
ATOM     16  O   UNL     1       6.447   5.904  15.680  0.00  0.00    +0.000 OA
ENDBRANCH   9  16
BRANCH  11  17
ATOM     17  O   UNL     1       3.939   2.358  17.391  0.00  0.00    +0.000 OA
ATOM     18  C   UNL     1       3.339   1.773  18.540  0.00  0.00    +0.000 C 
ENDBRANCH  11  17
ENDBRANCH   1  13
BRANCH   5  19
ATOM     19  C   UNL     1      -0.551  10.744  19.300  0.00  0.00    +0.000 A 
ATOM     20  O   UNL     1      -1.749  10.427  18.699  0.00  0.00    +0.000 OA
ATOM     21  C   UNL     1      -2.057  11.520  17.941  0.00  0.00    +0.000 A 
ATOM     22  C   UNL     1      -3.247  11.407  17.075  0.00  0.00    +0.000 C 
ATOM     23  N   UNL     1      -1.213  12.521  18.063  0.00  0.00    +0.000 NA
ATOM     24  C   UNL     1      -0.244  12.037  18.922  0.00  0.00    +0.000 A 
BRANCH  24  25
ATOM     25  C   UNL     1       0.923  12.824  19.287  0.00  0.00    +0.000 A 
ATOM     26  C   UNL     1       1.053  13.291  20.604  0.00  0.00    +0.000 A 
ATOM     27  C   UNL     1       2.133  14.099  20.976  0.00  0.00    +0.000 A 
ATOM     28  C   UNL     1       3.089  14.453  20.028  0.00  0.00    +0.000 A 
ATOM     29  C   UNL     1       2.961  13.992  18.723  0.00  0.00    +0.000 A 
ATOM     30  F   UNL     1       3.876  14.341  17.809  0.00  0.00    +0.000 F 
ATOM     31  C   UNL     1       1.892  13.187  18.344  0.00  0.00    +0.000 A 
ENDBRANCH  24  25
ENDBRANCH   5  19
TORSDOF 5
ENDMDL
MODEL 8
REMARK VINA RESULT:      -8.1      3.081      8.394
REMARK  Name = 
REMARK  8 active torsions:
REMARK  status: ('A' for Active; 'I' for Inactive)
REMARK    1  A    between atoms: C_1  and  O_2
REMARK    2  A    between atoms: O_2  and  C_3
REMARK    3  A    between atoms: C_5  and  O_6
REMARK    4  A    between atoms: O_6  and  C_7
REMARK    5  A    between atoms: C_9  and  N_10
REMARK    6  A    between atoms: C_14  and  C_16
REMARK    7  A    between atoms: C_18  and  C_19
REMARK    8  A    between atoms: C_21  and  C_22
REMARK                            x       y       z     vdW  Elec       q    Type
REMARK                         _______ _______ _______ _____ _____    ______ ____
ROOT
ATOM      1  N   UNL     1       2.735   7.006  18.602  0.00  0.00    +0.000 N 
ATOM      2  C   UNL     1       2.040   6.749  19.872  0.00  0.00    +0.000 C 
ATOM      3  C   UNL     1       1.795   8.097  20.589  0.00  0.00    +0.000 C 
ATOM      4  N   UNL     1       1.144   9.078  19.699  0.00  0.00    +0.000 N 
ATOM      5  C   UNL     1       0.083   9.843  20.184  0.00  0.00    +0.000 C 
ATOM      6  O   UNL     1      -0.277   9.725  21.355  0.00  0.00    +0.000 OA
ATOM      7  C   UNL     1       1.844   9.267  18.417  0.00  0.00    +0.000 C 
ATOM      8  C   UNL     1       2.009   7.921  17.697  0.00  0.00    +0.000 C 
ENDROOT
BRANCH   1  13
ATOM      9  C   UNL     1       5.346   5.560  16.448  0.00  0.00    +0.000 A 
ATOM     10  C   UNL     1       5.110   4.197  16.603  0.00  0.00    +0.000 A 
ATOM     11  C   UNL     1       4.087   3.736  17.437  0.00  0.00    +0.000 A 
ATOM     12  C   UNL     1       3.300   4.659  18.137  0.00  0.00    +0.000 A 
ATOM     13  C   UNL     1       3.496   6.029  17.974  0.00  0.00    +0.000 A 
ATOM     14  C   UNL     1       4.533   6.459  17.131  0.00  0.00    +0.000 A 
BRANCH   9  16
ATOM     15  C   UNL     1       6.955   4.845  14.858  0.00  0.00    +0.000 C 
ATOM     16  O   UNL     1       6.377   5.905  15.616  0.00  0.00    +0.000 OA
ENDBRANCH   9  16
BRANCH  11  17
ATOM     17  O   UNL     1       3.952   2.375  17.474  0.00  0.00    +0.000 OA
ATOM     18  C   UNL     1       3.405   1.810  18.660  0.00  0.00    +0.000 C 
ENDBRANCH  11  17
ENDBRANCH   1  13
BRANCH   5  19
ATOM     19  C   UNL     1      -0.567  10.773  19.287  0.00  0.00    +0.000 A 
ATOM     20  O   UNL     1      -1.765  10.436  18.698  0.00  0.00    +0.000 OA
ATOM     21  C   UNL     1      -2.091  11.516  17.930  0.00  0.00    +0.000 A 
ATOM     22  C   UNL     1      -3.286  11.381  17.074  0.00  0.00    +0.000 C 
ATOM     23  N   UNL     1      -1.258  12.528  18.034  0.00  0.00    +0.000 NA
ATOM     24  C   UNL     1      -0.277  12.065  18.891  0.00  0.00    +0.000 A 
BRANCH  24  25
ATOM     25  C   UNL     1       0.884  12.869  19.238  0.00  0.00    +0.000 A 
ATOM     26  C   UNL     1       1.893  13.067  18.283  0.00  0.00    +0.000 A 
ATOM     27  C   UNL     1       3.050  13.786  18.599  0.00  0.00    +0.000 A 
ATOM     28  C   UNL     1       3.210  14.309  19.880  0.00  0.00    +0.000 A 
ATOM     29  C   UNL     1       2.212  14.113  20.827  0.00  0.00    +0.000 A 
ATOM     30  F   UNL     1       2.371  14.606  22.062  0.00  0.00    +0.000 F 
ATOM     31  C   UNL     1       1.057  13.401  20.521  0.00  0.00    +0.000 A 
ENDBRANCH  24  25
ENDBRANCH   5  19
TORSDOF 5
ENDMDL
MODEL 9
REMARK VINA RESULT:      -8.0      3.212      8.507
REMARK  Name = 
REMARK  8 active torsions:
REMARK  status: ('A' for Active; 'I' for Inactive)
REMARK    1  A    between atoms: C_1  and  O_2
REMARK    2  A    between atoms: O_2  and  C_3
REMARK    3  A    between atoms: C_5  and  O_6
REMARK    4  A    between atoms: O_6  and  C_7
REMARK    5  A    between atoms: C_9  and  N_10
REMARK    6  A    between atoms: C_14  and  C_16
REMARK    7  A    between atoms: C_18  and  C_19
REMARK    8  A    between atoms: C_21  and  C_22
REMARK                            x       y       z     vdW  Elec       q    Type
REMARK                         _______ _______ _______ _____ _____    ______ ____
ROOT
ATOM      1  N   UNL     1       2.713   7.275  19.021  0.00  0.00    +0.000 N 
ATOM      2  C   UNL     1       2.018   7.206  20.315  0.00  0.00    +0.000 C 
ATOM      3  C   UNL     1       1.608   8.636  20.739  0.00  0.00    +0.000 C 
ATOM      4  N   UNL     1       0.875   9.334  19.665  0.00  0.00    +0.000 N 
ATOM      5  C   UNL     1      -0.276  10.056  19.979  0.00  0.00    +0.000 C 
ATOM      6  O   UNL     1      -0.650  10.141  21.149  0.00  0.00    +0.000 OA
ATOM      7  C   UNL     1       1.581   9.335  18.372  0.00  0.00    +0.000 C 
ATOM      8  C   UNL     1       1.912   7.898  17.946  0.00  0.00    +0.000 C 
ENDROOT
BRANCH   1  13
ATOM      9  C   UNL     1       4.966   5.412  16.785  0.00  0.00    +0.000 A 
ATOM     10  C   UNL     1       5.351   4.352  17.601  0.00  0.00    +0.000 A 
ATOM     11  C   UNL     1       4.879   4.247  18.912  0.00  0.00    +0.000 A 
ATOM     12  C   UNL     1       4.018   5.229  19.416  0.00  0.00    +0.000 A 
ATOM     13  C   UNL     1       3.592   6.283  18.608  0.00  0.00    +0.000 A 
ATOM     14  C   UNL     1       4.087   6.361  17.297  0.00  0.00    +0.000 A 
BRANCH   9  16
ATOM     15  C   UNL     1       6.697   4.687  15.333  0.00  0.00    +0.000 C 
ATOM     16  O   UNL     1       5.493   5.426  15.522  0.00  0.00    +0.000 OA
ENDBRANCH   9  16
BRANCH  11  17
ATOM     17  O   UNL     1       5.319   3.142  19.589  0.00  0.00    +0.000 OA
ATOM     18  C   UNL     1       4.370   2.111  19.833  0.00  0.00    +0.000 C 
ENDBRANCH  11  17
ENDBRANCH   1  13
BRANCH   5  19
ATOM     19  C   UNL     1      -1.002  10.703  18.909  0.00  0.00    +0.000 A 
ATOM     20  O   UNL     1      -2.026  10.037  18.273  0.00  0.00    +0.000 OA
ATOM     21  C   UNL     1      -2.485  10.918  17.337  0.00  0.00    +0.000 A 
ATOM     22  C   UNL     1      -3.517  10.416  16.409  0.00  0.00    +0.000 C 
ATOM     23  N   UNL     1      -1.903  12.097  17.368  0.00  0.00    +0.000 NA
ATOM     24  C   UNL     1      -0.951  11.972  18.363  0.00  0.00    +0.000 A 
BRANCH  24  25
ATOM     25  C   UNL     1      -0.036  13.053  18.692  0.00  0.00    +0.000 A 
ATOM     26  C   UNL     1      -0.531  14.206  19.321  0.00  0.00    +0.000 A 
ATOM     27  C   UNL     1       0.309  15.288  19.600  0.00  0.00    +0.000 A 
ATOM     28  C   UNL     1       1.654  15.229  19.243  0.00  0.00    +0.000 A 
ATOM     29  C   UNL     1       2.145  14.088  18.620  0.00  0.00    +0.000 A 
ATOM     30  F   UNL     1       3.437  14.036  18.267  0.00  0.00    +0.000 F 
ATOM     31  C   UNL     1       1.318  13.006  18.340  0.00  0.00    +0.000 A 
ENDBRANCH  24  25
ENDBRANCH   5  19
TORSDOF 5
ENDMDL
