MODEL 1
REMARK VINA RESULT:      -8.0      0.000      0.000
REMARK  Name = 
REMARK  7 active torsions:
REMARK  status: ('A' for Active; 'I' for Inactive)
REMARK    1  A    between atoms: C_1  and  C_2
REMARK    2  A    between atoms: C_2  and  O_3
REMARK    3  A    between atoms: O_3  and  C_4
REMARK    4  A    between atoms: C_7  and  C_8
REMARK    5  A    between atoms: C_12  and  C_13
REMARK    6  A    between atoms: C_17  and  N_18
REMARK    7  A    between atoms: N_21  and  C_22
REMARK                            x       y       z     vdW  Elec       q    Type
REMARK                         _______ _______ _______ _____ _____    ______ ____
ROOT
ATOM      1  C   UNL     1       2.970   6.969  18.229  0.00  0.00    +0.000 A 
ATOM      2  N   UNL     1       2.447   8.125  17.844  0.00  0.00    +0.000 NA
ATOM      3  C   UNL     1       1.759   8.622  18.929  0.00  0.00    +0.000 A 
ATOM      4  C   UNL     1       1.097   9.855  19.098  0.00  0.00    +0.000 A 
ATOM      5  C   UNL     1       0.547  10.175  20.354  0.00  0.00    +0.000 A 
ATOM      6  C   UNL     1       0.639   9.230  21.395  0.00  0.00    +0.000 A 
ATOM      7  C   UNL     1       1.255   7.983  21.236  0.00  0.00    +0.000 A 
ATOM      8  C   UNL     1       1.810   7.727  19.985  0.00  0.00    +0.000 A 
ATOM      9  N   UNL     1       2.511   6.659  19.492  0.00  0.00    +0.000 N 
ATOM     10  H   UNL     1       2.740   5.828  20.012  0.00  0.00    +0.000 HD
ENDROOT
BRANCH   5  11
ATOM     11  C   UNL     1      -0.104  11.466  20.645  0.00  0.00    +0.000 A 
ATOM     12  N   UNL     1      -0.878  11.705  21.694  0.00  0.00    +0.000 NA
ATOM     13  C   UNL     1      -1.279  13.015  21.597  0.00  0.00    +0.000 A 
ATOM     14  C   UNL     1      -2.087  13.775  22.464  0.00  0.00    +0.000 A 
ATOM     15  C   UNL     1      -2.360  15.119  22.170  0.00  0.00    +0.000 A 
ATOM     16  C   UNL     1      -1.853  15.648  20.966  0.00  0.00    +0.000 A 
ATOM     17  C   UNL     1      -1.045  14.914  20.083  0.00  0.00    +0.000 A 
ATOM     18  C   UNL     1      -0.763  13.601  20.449  0.00  0.00    +0.000 A 
ATOM     19  N   UNL     1       0.007  12.611  19.885  0.00  0.00    +0.000 N 
ATOM     20  H   UNL     1       0.572  12.715  19.057  0.00  0.00    +0.000 HD
BRANCH  15  21
ATOM     21  N   UNL     1      -3.116  15.960  23.002  0.00  0.00    +0.000 N 
ATOM     22  C   UNL     1      -4.568  15.710  23.133  0.00  0.00    +0.000 C 
ATOM     23  C   UNL     1      -5.237  16.909  23.853  0.00  0.00    +0.000 C 
ATOM     24  N   UNL     1      -4.649  17.180  25.188  0.00  0.00    +0.000 NA
ATOM     25  C   UNL     1      -5.257  18.365  25.787  0.00  0.00    +0.000 C 
ATOM     26  C   UNL     1      -3.186  17.361  25.047  0.00  0.00    +0.000 C 
ATOM     27  C   UNL     1      -2.496  16.174  24.333  0.00  0.00    +0.000 C 
ENDBRANCH  15  21
ENDBRANCH   5  11
BRANCH   1  31
ATOM     28  C   UNL     1       5.656   4.586  15.866  0.00  0.00    +0.000 A 
ATOM     29  C   UNL     1       4.684   3.985  16.664  0.00  0.00    +0.000 A 
ATOM     30  C   UNL     1       3.840   4.768  17.464  0.00  0.00    +0.000 A 
ATOM     31  C   UNL     1       3.961   6.164  17.493  0.00  0.00    +0.000 A 
ATOM     32  C   UNL     1       4.992   6.747  16.741  0.00  0.00    +0.000 A 
ATOM     33  C   UNL     1       5.835   5.964  15.941  0.00  0.00    +0.000 A 
BRANCH  28  34
ATOM     34  O   UNL     1       6.374   3.761  15.045  0.00  0.00    +0.000 OA
BRANCH  34  36
ATOM     35  C   UNL     1       7.132   4.569  12.925  0.00  0.00    +0.000 C 
ATOM     36  C   UNL     1       6.034   3.817  13.657  0.00  0.00    +0.000 C 
ENDBRANCH  34  36
ENDBRANCH  28  34
ENDBRANCH   1  31
TORSDOF 5
ENDMDL
MODEL 2
REMARK VINA RESULT:      -7.8      0.847      1.402
REMARK  Name = 
REMARK  7 active torsions:
REMARK  status: ('A' for Active; 'I' for Inactive)
REMARK    1  A    between atoms: C_1  and  C_2
REMARK    2  A    between atoms: C_2  and  O_3
REMARK    3  A    between atoms: O_3  and  C_4
REMARK    4  A    between atoms: C_7  and  C_8
REMARK    5  A    between atoms: C_12  and  C_13
REMARK    6  A    between atoms: C_17  and  N_18
REMARK    7  A    between atoms: N_21  and  C_22
REMARK                            x       y       z     vdW  Elec       q    Type
REMARK                         _______ _______ _______ _____ _____    ______ ____
ROOT
ATOM      1  C   UNL     1       2.601   6.891  18.400  0.00  0.00    +0.000 A 
ATOM      2  N   UNL     1       2.201   8.123  18.119  0.00  0.00    +0.000 NA
ATOM      3  C   UNL     1       1.642   8.624  19.273  0.00  0.00    +0.000 A 
ATOM      4  C   UNL     1       1.145   9.913  19.557  0.00  0.00    +0.000 A 
ATOM      5  C   UNL     1       0.710  10.211  20.863  0.00  0.00    +0.000 A 
ATOM      6  C   UNL     1       0.747   9.195  21.839  0.00  0.00    +0.000 A 
ATOM      7  C   UNL     1       1.198   7.897  21.566  0.00  0.00    +0.000 A 
ATOM      8  C   UNL     1       1.645   7.662  20.269  0.00  0.00    +0.000 A 
ATOM      9  N   UNL     1       2.181   6.553  19.669  0.00  0.00    +0.000 N 
ATOM     10  H   UNL     1       2.338   5.669  20.123  0.00  0.00    +0.000 HD
ENDROOT
BRANCH   5  11
ATOM     11  C   UNL     1       0.238  11.547  21.272  0.00  0.00    +0.000 A 
ATOM     12  N   UNL     1      -0.734  11.773  22.143  0.00  0.00    +0.000 NA
ATOM     13  C   UNL     1      -0.863  13.137  22.244  0.00  0.00    +0.000 A 
ATOM     14  C   UNL     1      -1.729  13.902  23.048  0.00  0.00    +0.000 A 
ATOM     15  C   UNL     1      -1.677  15.303  22.999  0.00  0.00    +0.000 A 
ATOM     16  C   UNL     1      -0.783  15.900  22.087  0.00  0.00    +0.000 A 
ATOM     17  C   UNL     1       0.092  15.162  21.274  0.00  0.00    +0.000 A 
ATOM     18  C   UNL     1       0.035  13.777  21.400  0.00  0.00    +0.000 A 
ATOM     19  N   UNL     1       0.744  12.749  20.825  0.00  0.00    +0.000 N 
ATOM     20  H   UNL     1       1.519  12.862  20.190  0.00  0.00    +0.000 HD
BRANCH  15  21
ATOM     21  N   UNL     1      -2.471  16.140  23.800  0.00  0.00    +0.000 N 
ATOM     22  C   UNL     1      -2.164  17.586  23.836  0.00  0.00    +0.000 C 
ATOM     23  C   UNL     1      -2.962  18.256  24.984  0.00  0.00    +0.000 C 
ATOM     24  N   UNL     1      -4.427  18.053  24.863  0.00  0.00    +0.000 NA
ATOM     25  C   UNL     1      -5.123  18.631  26.009  0.00  0.00    +0.000 C 
ATOM     26  C   UNL     1      -4.710  16.602  24.760  0.00  0.00    +0.000 C 
ATOM     27  C   UNL     1      -3.925  15.913  23.618  0.00  0.00    +0.000 C 
ENDBRANCH  15  21
ENDBRANCH   5  11
BRANCH   1  31
ATOM     28  C   UNL     1       5.266   4.374  16.155  0.00  0.00    +0.000 A 
ATOM     29  C   UNL     1       5.444   5.756  16.182  0.00  0.00    +0.000 A 
ATOM     30  C   UNL     1       4.545   6.573  16.882  0.00  0.00    +0.000 A 
ATOM     31  C   UNL     1       3.443   6.026  17.555  0.00  0.00    +0.000 A 
ATOM     32  C   UNL     1       3.237   4.643  17.455  0.00  0.00    +0.000 A 
ATOM     33  C   UNL     1       4.136   3.826  16.755  0.00  0.00    +0.000 A 
BRANCH  28  34
ATOM     34  O   UNL     1       6.237   3.641  15.530  0.00  0.00    +0.000 OA
BRANCH  34  36
ATOM     35  C   UNL     1       6.122   3.621  13.141  0.00  0.00    +0.000 C 
ATOM     36  C   UNL     1       6.800   4.231  14.356  0.00  0.00    +0.000 C 
ENDBRANCH  34  36
ENDBRANCH  28  34
ENDBRANCH   1  31
TORSDOF 5
ENDMDL
MODEL 3
REMARK VINA RESULT:      -7.8      1.726      2.176
REMARK  Name = 
REMARK  7 active torsions:
REMARK  status: ('A' for Active; 'I' for Inactive)
REMARK    1  A    between atoms: C_1  and  C_2
REMARK    2  A    between atoms: C_2  and  O_3
REMARK    3  A    between atoms: O_3  and  C_4
REMARK    4  A    between atoms: C_7  and  C_8
REMARK    5  A    between atoms: C_12  and  C_13
REMARK    6  A    between atoms: C_17  and  N_18
REMARK    7  A    between atoms: N_21  and  C_22
REMARK                            x       y       z     vdW  Elec       q    Type
REMARK                         _______ _______ _______ _____ _____    ______ ____
ROOT
ATOM      1  C   UNL     1       3.515   6.780  18.129  0.00  0.00    +0.000 A 
ATOM      2  N   UNL     1       2.900   7.921  17.850  0.00  0.00    +0.000 NA
ATOM      3  C   UNL     1       2.075   8.191  18.919  0.00  0.00    +0.000 A 
ATOM      4  C   UNL     1       1.268   9.317  19.182  0.00  0.00    +0.000 A 
ATOM      5  C   UNL     1       0.584   9.402  20.410  0.00  0.00    +0.000 A 
ATOM      6  C   UNL     1       0.695   8.335  21.323  0.00  0.00    +0.000 A 
ATOM      7  C   UNL     1       1.457   7.190  21.063  0.00  0.00    +0.000 A 
ATOM      8  C   UNL     1       2.138   7.167  19.849  0.00  0.00    +0.000 A 
ATOM      9  N   UNL     1       2.991   6.253  19.291  0.00  0.00    +0.000 N 
ATOM     10  H   UNL     1       3.268   5.384  19.718  0.00  0.00    +0.000 HD
ENDROOT
BRANCH   5  11
ATOM     11  C   UNL     1      -0.229  10.569  20.802  0.00  0.00    +0.000 A 
ATOM     12  N   UNL     1      -0.978  11.283  19.975  0.00  0.00    +0.000 NA
ATOM     13  C   UNL     1      -1.567  12.269  20.730  0.00  0.00    +0.000 A 
ATOM     14  C   UNL     1      -2.472  13.276  20.345  0.00  0.00    +0.000 A 
ATOM     15  C   UNL     1      -2.962  14.180  21.299  0.00  0.00    +0.000 A 
ATOM     16  C   UNL     1      -2.474  14.078  22.618  0.00  0.00    +0.000 A 
ATOM     17  C   UNL     1      -1.571  13.084  23.029  0.00  0.00    +0.000 A 
ATOM     18  C   UNL     1      -1.158  12.182  22.054  0.00  0.00    +0.000 A 
ATOM     19  N   UNL     1      -0.342  11.076  22.080  0.00  0.00    +0.000 N 
ATOM     20  H   UNL     1       0.091  10.692  22.905  0.00  0.00    +0.000 HD
BRANCH  15  21
ATOM     21  N   UNL     1      -3.902  15.182  21.011  0.00  0.00    +0.000 N 
ATOM     22  C   UNL     1      -5.277  14.781  20.643  0.00  0.00    +0.000 C 
ATOM     23  C   UNL     1      -6.046  16.010  20.093  0.00  0.00    +0.000 C 
ATOM     24  N   UNL     1      -6.089  17.139  21.055  0.00  0.00    +0.000 NA
ATOM     25  C   UNL     1      -6.751  18.297  20.459  0.00  0.00    +0.000 C 
ATOM     26  C   UNL     1      -4.707  17.484  21.463  0.00  0.00    +0.000 C 
ATOM     27  C   UNL     1      -3.921  16.271  22.018  0.00  0.00    +0.000 C 
ENDBRANCH  15  21
ENDBRANCH   5  11
BRANCH   1  31
ATOM     28  C   UNL     1       6.708   5.182  15.736  0.00  0.00    +0.000 A 
ATOM     29  C   UNL     1       5.460   4.561  15.766  0.00  0.00    +0.000 A 
ATOM     30  C   UNL     1       4.437   5.065  16.583  0.00  0.00    +0.000 A 
ATOM     31  C   UNL     1       4.647   6.188  17.395  0.00  0.00    +0.000 A 
ATOM     32  C   UNL     1       5.929   6.756  17.408  0.00  0.00    +0.000 A 
ATOM     33  C   UNL     1       6.951   6.252  16.591  0.00  0.00    +0.000 A 
BRANCH  28  34
ATOM     34  O   UNL     1       7.619   4.687  14.844  0.00  0.00    +0.000 OA
BRANCH  34  36
ATOM     35  C   UNL     1       7.957   5.492  12.617  0.00  0.00    +0.000 C 
ATOM     36  C   UNL     1       7.157   4.547  13.498  0.00  0.00    +0.000 C 
ENDBRANCH  34  36
ENDBRANCH  28  34
ENDBRANCH   1  31
TORSDOF 5
ENDMDL
MODEL 4
REMARK VINA RESULT:      -7.7      1.105      1.441
REMARK  Name = 
REMARK  7 active torsions:
REMARK  status: ('A' for Active; 'I' for Inactive)
REMARK    1  A    between atoms: C_1  and  C_2
REMARK    2  A    between atoms: C_2  and  O_3
REMARK    3  A    between atoms: O_3  and  C_4
REMARK    4  A    between atoms: C_7  and  C_8
REMARK    5  A    between atoms: C_12  and  C_13
REMARK    6  A    between atoms: C_17  and  N_18
REMARK    7  A    between atoms: N_21  and  C_22
REMARK                            x       y       z     vdW  Elec       q    Type
REMARK                         _______ _______ _______ _____ _____    ______ ____
ROOT
ATOM      1  C   UNL     1       3.554   6.716  18.074  0.00  0.00    +0.000 A 
ATOM      2  N   UNL     1       2.842   7.778  17.720  0.00  0.00    +0.000 NA
ATOM      3  C   UNL     1       2.044   8.089  18.799  0.00  0.00    +0.000 A 
ATOM      4  C   UNL     1       1.165   9.174  18.996  0.00  0.00    +0.000 A 
ATOM      5  C   UNL     1       0.529   9.327  20.243  0.00  0.00    +0.000 A 
ATOM      6  C   UNL     1       0.760   8.364  21.245  0.00  0.00    +0.000 A 
ATOM      7  C   UNL     1       1.596   7.257  21.055  0.00  0.00    +0.000 A 
ATOM      8  C   UNL     1       2.225   7.167  19.816  0.00  0.00    +0.000 A 
ATOM      9  N   UNL     1       3.122   6.267  19.304  0.00  0.00    +0.000 N 
ATOM     10  H   UNL     1       3.482   5.466  19.796  0.00  0.00    +0.000 HD
ENDROOT
BRANCH   5  11
ATOM     11  C   UNL     1      -0.353  10.465  20.565  0.00  0.00    +0.000 A 
ATOM     12  N   UNL     1      -0.494  10.997  21.770  0.00  0.00    +0.000 NA
ATOM     13  C   UNL     1      -1.398  12.024  21.643  0.00  0.00    +0.000 A 
ATOM     14  C   UNL     1      -1.877  12.924  22.613  0.00  0.00    +0.000 A 
ATOM     15  C   UNL     1      -2.800  13.918  22.252  0.00  0.00    +0.000 A 
ATOM     16  C   UNL     1      -3.261  13.939  20.920  0.00  0.00    +0.000 A 
ATOM     17  C   UNL     1      -2.800  13.053  19.932  0.00  0.00    +0.000 A 
ATOM     18  C   UNL     1      -1.847  12.121  20.333  0.00  0.00    +0.000 A 
ATOM     19  N   UNL     1      -1.143  11.148  19.664  0.00  0.00    +0.000 N 
ATOM     20  H   UNL     1      -1.190  10.975  18.672  0.00  0.00    +0.000 HD
BRANCH  15  21
ATOM     21  N   UNL     1      -3.292  14.884  23.144  0.00  0.00    +0.000 N 
ATOM     22  C   UNL     1      -2.336  15.820  23.775  0.00  0.00    +0.000 C 
ATOM     23  C   UNL     1      -3.044  16.590  24.920  0.00  0.00    +0.000 C 
ATOM     24  N   UNL     1      -4.246  17.328  24.461  0.00  0.00    +0.000 NA
ATOM     25  C   UNL     1      -4.920  17.966  25.589  0.00  0.00    +0.000 C 
ATOM     26  C   UNL     1      -5.161  16.387  23.773  0.00  0.00    +0.000 C 
ATOM     27  C   UNL     1      -4.476  15.609  22.624  0.00  0.00    +0.000 C 
ENDBRANCH  15  21
ENDBRANCH   5  11
BRANCH   1  31
ATOM     28  C   UNL     1       6.766   5.149  15.687  0.00  0.00    +0.000 A 
ATOM     29  C   UNL     1       5.546   4.480  15.768  0.00  0.00    +0.000 A 
ATOM     30  C   UNL     1       4.518   4.976  16.583  0.00  0.00    +0.000 A 
ATOM     31  C   UNL     1       4.696   6.141  17.343  0.00  0.00    +0.000 A 
ATOM     32  C   UNL     1       5.954   6.759  17.307  0.00  0.00    +0.000 A 
ATOM     33  C   UNL     1       6.981   6.263  16.492  0.00  0.00    +0.000 A 
BRANCH  28  34
ATOM     34  O   UNL     1       7.681   4.653  14.799  0.00  0.00    +0.000 OA
BRANCH  34  36
ATOM     35  C   UNL     1       6.745   3.828  12.759  0.00  0.00    +0.000 C 
ATOM     36  C   UNL     1       7.460   4.990  13.428  0.00  0.00    +0.000 C 
ENDBRANCH  34  36
ENDBRANCH  28  34
ENDBRANCH   1  31
TORSDOF 5
ENDMDL
MODEL 5
REMARK VINA RESULT:      -7.6      3.831     13.098
REMARK  Name = 
REMARK  7 active torsions:
REMARK  status: ('A' for Active; 'I' for Inactive)
REMARK    1  A    between atoms: C_1  and  C_2
REMARK    2  A    between atoms: C_2  and  O_3
REMARK    3  A    between atoms: O_3  and  C_4
REMARK    4  A    between atoms: C_7  and  C_8
REMARK    5  A    between atoms: C_12  and  C_13
REMARK    6  A    between atoms: C_17  and  N_18
REMARK    7  A    between atoms: N_21  and  C_22
REMARK                            x       y       z     vdW  Elec       q    Type
REMARK                         _______ _______ _______ _____ _____    ______ ____
ROOT
ATOM      1  C   UNL     1      -1.998  13.095  22.136  0.00  0.00    +0.000 A 
ATOM      2  N   UNL     1      -1.296  12.690  21.087  0.00  0.00    +0.000 NA
ATOM      3  C   UNL     1      -0.688  11.511  21.456  0.00  0.00    +0.000 A 
ATOM      4  C   UNL     1       0.095  10.616  20.698  0.00  0.00    +0.000 A 
ATOM      5  C   UNL     1       0.526   9.411  21.286  0.00  0.00    +0.000 A 
ATOM      6  C   UNL     1       0.194   9.155  22.631  0.00  0.00    +0.000 A 
ATOM      7  C   UNL     1      -0.546  10.050  23.413  0.00  0.00    +0.000 A 
ATOM      8  C   UNL     1      -0.974  11.212  22.778  0.00  0.00    +0.000 A 
ATOM      9  N   UNL     1      -1.736  12.267  23.207  0.00  0.00    +0.000 N 
ATOM     10  H   UNL     1      -2.126  12.360  24.131  0.00  0.00    +0.000 HD
ENDROOT
BRANCH   5  11
ATOM     11  C   UNL     1       1.291   8.384  20.553  0.00  0.00    +0.000 A 
ATOM     12  N   UNL     1       1.754   8.521  19.320  0.00  0.00    +0.000 NA
ATOM     13  C   UNL     1       2.404   7.349  19.012  0.00  0.00    +0.000 A 
ATOM     14  C   UNL     1       3.093   6.986  17.839  0.00  0.00    +0.000 A 
ATOM     15  C   UNL     1       3.702   5.724  17.747  0.00  0.00    +0.000 A 
ATOM     16  C   UNL     1       3.546   4.835  18.829  0.00  0.00    +0.000 A 
ATOM     17  C   UNL     1       2.864   5.172  20.010  0.00  0.00    +0.000 A 
ATOM     18  C   UNL     1       2.324   6.453  20.069  0.00  0.00    +0.000 A 
ATOM     19  N   UNL     1       1.648   7.146  21.045  0.00  0.00    +0.000 N 
ATOM     20  H   UNL     1       1.458   6.804  21.974  0.00  0.00    +0.000 HD
BRANCH  15  21
ATOM     21  N   UNL     1       4.446   5.300  16.636  0.00  0.00    +0.000 N 
ATOM     22  C   UNL     1       5.199   6.309  15.858  0.00  0.00    +0.000 C 
ATOM     23  C   UNL     1       5.699   5.676  14.534  0.00  0.00    +0.000 C 
ATOM     24  N   UNL     1       6.542   4.475  14.753  0.00  0.00    +0.000 NA
ATOM     25  C   UNL     1       6.918   3.871  13.477  0.00  0.00    +0.000 C 
ATOM     26  C   UNL     1       5.798   3.504  15.589  0.00  0.00    +0.000 C 
ATOM     27  C   UNL     1       5.292   4.114  16.918  0.00  0.00    +0.000 C 
ENDBRANCH  15  21
ENDBRANCH   5  11
BRANCH   1  31
ATOM     28  C   UNL     1      -5.090  16.080  22.159  0.00  0.00    +0.000 A 
ATOM     29  C   UNL     1      -4.550  15.623  20.958  0.00  0.00    +0.000 A 
ATOM     30  C   UNL     1      -3.512  14.680  20.961  0.00  0.00    +0.000 A 
ATOM     31  C   UNL     1      -2.985  14.188  22.164  0.00  0.00    +0.000 A 
ATOM     32  C   UNL     1      -3.490  14.714  23.362  0.00  0.00    +0.000 A 
ATOM     33  C   UNL     1      -4.527  15.657  23.358  0.00  0.00    +0.000 A 
BRANCH  28  34
ATOM     34  O   UNL     1      -6.161  16.927  22.068  0.00  0.00    +0.000 OA
BRANCH  34  36
ATOM     35  C   UNL     1      -7.132  18.578  23.500  0.00  0.00    +0.000 C 
ATOM     36  C   UNL     1      -6.924  17.091  23.265  0.00  0.00    +0.000 C 
ENDBRANCH  34  36
ENDBRANCH  28  34
ENDBRANCH   1  31
TORSDOF 5
ENDMDL
MODEL 6
REMARK VINA RESULT:      -7.5      3.942     13.084
REMARK  Name = 
REMARK  7 active torsions:
REMARK  status: ('A' for Active; 'I' for Inactive)
REMARK    1  A    between atoms: C_1  and  C_2
REMARK    2  A    between atoms: C_2  and  O_3
REMARK    3  A    between atoms: O_3  and  C_4
REMARK    4  A    between atoms: C_7  and  C_8
REMARK    5  A    between atoms: C_12  and  C_13
REMARK    6  A    between atoms: C_17  and  N_18
REMARK    7  A    between atoms: N_21  and  C_22
REMARK                            x       y       z     vdW  Elec       q    Type
REMARK                         _______ _______ _______ _____ _____    ______ ____
ROOT
ATOM      1  C   UNL     1      -2.044  12.338  21.999  0.00  0.00    +0.000 A 
ATOM      2  N   UNL     1      -1.422  11.977  20.885  0.00  0.00    +0.000 NA
ATOM      3  C   UNL     1      -0.597  10.927  21.223  0.00  0.00    +0.000 A 
ATOM      4  C   UNL     1       0.217  10.113  20.408  0.00  0.00    +0.000 A 
ATOM      5  C   UNL     1       0.898   9.024  20.986  0.00  0.00    +0.000 A 
ATOM      6  C   UNL     1       0.779   8.808  22.373  0.00  0.00    +0.000 A 
ATOM      7  C   UNL     1       0.010   9.630  23.205  0.00  0.00    +0.000 A 
ATOM      8  C   UNL     1      -0.669  10.673  22.582  0.00  0.00    +0.000 A 
ATOM      9  N   UNL     1      -1.527  11.627  23.061  0.00  0.00    +0.000 N 
ATOM     10  H   UNL     1      -1.810  11.720  24.023  0.00  0.00    +0.000 HD
ENDROOT
BRANCH   5  11
ATOM     11  C   UNL     1       1.718   8.079  20.205  0.00  0.00    +0.000 A 
ATOM     12  N   UNL     1       2.177   8.304  18.982  0.00  0.00    +0.000 NA
ATOM     13  C   UNL     1       2.887   7.186  18.617  0.00  0.00    +0.000 A 
ATOM     14  C   UNL     1       3.597   6.921  17.431  0.00  0.00    +0.000 A 
ATOM     15  C   UNL     1       4.272   5.700  17.276  0.00  0.00    +0.000 A 
ATOM     16  C   UNL     1       4.160   4.748  18.309  0.00  0.00    +0.000 A 
ATOM     17  C   UNL     1       3.459   4.986  19.502  0.00  0.00    +0.000 A 
ATOM     18  C   UNL     1       2.852   6.233  19.625  0.00  0.00    +0.000 A 
ATOM     19  N   UNL     1       2.139   6.837  20.633  0.00  0.00    +0.000 N 
ATOM     20  H   UNL     1       1.965   6.438  21.542  0.00  0.00    +0.000 HD
BRANCH  15  21
ATOM     21  N   UNL     1       5.040   5.374  16.147  0.00  0.00    +0.000 N 
ATOM     22  C   UNL     1       6.515   5.411  16.259  0.00  0.00    +0.000 C 
ATOM     23  C   UNL     1       7.144   5.304  14.846  0.00  0.00    +0.000 C 
ATOM     24  N   UNL     1       6.723   4.081  14.119  0.00  0.00    +0.000 NA
ATOM     25  C   UNL     1       7.276   4.069  12.768  0.00  0.00    +0.000 C 
ATOM     26  C   UNL     1       5.243   4.026  14.076  0.00  0.00    +0.000 C 
ATOM     27  C   UNL     1       4.593   4.128  15.477  0.00  0.00    +0.000 C 
ENDBRANCH  15  21
ENDBRANCH   5  11
BRANCH   1  31
ATOM     28  C   UNL     1      -5.153  15.290  22.311  0.00  0.00    +0.000 A 
ATOM     29  C   UNL     1      -4.424  14.902  23.433  0.00  0.00    +0.000 A 
ATOM     30  C   UNL     1      -3.440  13.907  23.331  0.00  0.00    +0.000 A 
ATOM     31  C   UNL     1      -3.179  13.272  22.109  0.00  0.00    +0.000 A 
ATOM     32  C   UNL     1      -3.972  13.622  21.007  0.00  0.00    +0.000 A 
ATOM     33  C   UNL     1      -4.955  14.616  21.110  0.00  0.00    +0.000 A 
BRANCH  28  34
ATOM     34  O   UNL     1      -6.027  16.330  22.475  0.00  0.00    +0.000 OA
BRANCH  34  36
ATOM     35  C   UNL     1      -7.916  15.026  23.148  0.00  0.00    +0.000 C 
ATOM     36  C   UNL     1      -7.392  16.049  22.154  0.00  0.00    +0.000 C 
ENDBRANCH  34  36
ENDBRANCH  28  34
ENDBRANCH   1  31
TORSDOF 5
ENDMDL
MODEL 7
REMARK VINA RESULT:      -7.5      3.945     13.053
REMARK  Name = 
REMARK  7 active torsions:
REMARK  status: ('A' for Active; 'I' for Inactive)
REMARK    1  A    between atoms: C_1  and  C_2
REMARK    2  A    between atoms: C_2  and  O_3
REMARK    3  A    between atoms: O_3  and  C_4
REMARK    4  A    between atoms: C_7  and  C_8
REMARK    5  A    between atoms: C_12  and  C_13
REMARK    6  A    between atoms: C_17  and  N_18
REMARK    7  A    between atoms: N_21  and  C_22
REMARK                            x       y       z     vdW  Elec       q    Type
REMARK                         _______ _______ _______ _____ _____    ______ ____
ROOT
ATOM      1  C   UNL     1      -2.603  12.827  21.885  0.00  0.00    +0.000 A 
ATOM      2  N   UNL     1      -1.927  12.365  20.841  0.00  0.00    +0.000 NA
ATOM      3  C   UNL     1      -1.150  11.328  21.308  0.00  0.00    +0.000 A 
ATOM      4  C   UNL     1      -0.313  10.434  20.609  0.00  0.00    +0.000 A 
ATOM      5  C   UNL     1       0.307   9.381  21.309  0.00  0.00    +0.000 A 
ATOM      6  C   UNL     1       0.102   9.278  22.700  0.00  0.00    +0.000 A 
ATOM      7  C   UNL     1      -0.692  10.180  23.419  0.00  0.00    +0.000 A 
ATOM      8  C   UNL     1      -1.306  11.185  22.677  0.00  0.00    +0.000 A 
ATOM      9  N   UNL     1      -2.165  12.192  23.028  0.00  0.00    +0.000 N 
ATOM     10  H   UNL     1      -2.500  12.367  23.961  0.00  0.00    +0.000 HD
ENDROOT
BRANCH   5  11
ATOM     11  C   UNL     1       1.144   8.359  20.655  0.00  0.00    +0.000 A 
ATOM     12  N   UNL     1       1.738   8.506  19.479  0.00  0.00    +0.000 NA
ATOM     13  C   UNL     1       2.416   7.336  19.232  0.00  0.00    +0.000 A 
ATOM     14  C   UNL     1       3.226   6.981  18.138  0.00  0.00    +0.000 A 
ATOM     15  C   UNL     1       3.840   5.719  18.100  0.00  0.00    +0.000 A 
ATOM     16  C   UNL     1       3.568   4.821  19.152  0.00  0.00    +0.000 A 
ATOM     17  C   UNL     1       2.764   5.149  20.256  0.00  0.00    +0.000 A 
ATOM     18  C   UNL     1       2.222   6.431  20.267  0.00  0.00    +0.000 A 
ATOM     19  N   UNL     1       1.446   7.116  21.171  0.00  0.00    +0.000 N 
ATOM     20  H   UNL     1       1.157   6.768  22.072  0.00  0.00    +0.000 HD
BRANCH  15  21
ATOM     21  N   UNL     1       4.699   5.303  17.072  0.00  0.00    +0.000 N 
ATOM     22  C   UNL     1       4.481   3.974  16.459  0.00  0.00    +0.000 C 
ATOM     23  C   UNL     1       5.696   3.608  15.569  0.00  0.00    +0.000 C 
ATOM     24  N   UNL     1       5.960   4.614  14.511  0.00  0.00    +0.000 NA
ATOM     25  C   UNL     1       7.160   4.265  13.756  0.00  0.00    +0.000 C 
ATOM     26  C   UNL     1       6.109   5.949  15.137  0.00  0.00    +0.000 C 
ATOM     27  C   UNL     1       4.905   6.337  16.028  0.00  0.00    +0.000 C 
ENDBRANCH  15  21
ENDBRANCH   5  11
BRANCH   1  31
ATOM     28  C   UNL     1      -6.000  15.458  21.986  0.00  0.00    +0.000 A 
ATOM     29  C   UNL     1      -6.001  14.323  21.177  0.00  0.00    +0.000 A 
ATOM     30  C   UNL     1      -4.872  13.493  21.118  0.00  0.00    +0.000 A 
ATOM     31  C   UNL     1      -3.717  13.791  21.854  0.00  0.00    +0.000 A 
ATOM     32  C   UNL     1      -3.706  14.975  22.604  0.00  0.00    +0.000 A 
ATOM     33  C   UNL     1      -4.834  15.804  22.663  0.00  0.00    +0.000 A 
BRANCH  28  34
ATOM     34  O   UNL     1      -7.170  16.162  22.061  0.00  0.00    +0.000 OA
BRANCH  34  36
ATOM     35  C   UNL     1      -7.758  18.107  23.323  0.00  0.00    +0.000 C 
ATOM     36  C   UNL     1      -7.037  17.585  22.091  0.00  0.00    +0.000 C 
ENDBRANCH  34  36
ENDBRANCH  28  34
ENDBRANCH   1  31
TORSDOF 5
ENDMDL
MODEL 8
REMARK VINA RESULT:      -7.5      0.882      1.250
REMARK  Name = 
REMARK  7 active torsions:
REMARK  status: ('A' for Active; 'I' for Inactive)
REMARK    1  A    between atoms: C_1  and  C_2
REMARK    2  A    between atoms: C_2  and  O_3
REMARK    3  A    between atoms: O_3  and  C_4
REMARK    4  A    between atoms: C_7  and  C_8
REMARK    5  A    between atoms: C_12  and  C_13
REMARK    6  A    between atoms: C_17  and  N_18
REMARK    7  A    between atoms: N_21  and  C_22
REMARK                            x       y       z     vdW  Elec       q    Type
REMARK                         _______ _______ _______ _____ _____    ______ ____
ROOT
ATOM      1  C   UNL     1       2.898   7.207  18.232  0.00  0.00    +0.000 A 
ATOM      2  N   UNL     1       2.311   8.315  17.801  0.00  0.00    +0.000 NA
ATOM      3  C   UNL     1       1.652   8.854  18.883  0.00  0.00    +0.000 A 
ATOM      4  C   UNL     1       0.947  10.069  19.006  0.00  0.00    +0.000 A 
ATOM      5  C   UNL     1       0.441  10.447  20.264  0.00  0.00    +0.000 A 
ATOM      6  C   UNL     1       0.619   9.576  21.357  0.00  0.00    +0.000 A 
ATOM      7  C   UNL     1       1.279   8.346  21.247  0.00  0.00    +0.000 A 
ATOM      8  C   UNL     1       1.787   8.032  19.990  0.00  0.00    +0.000 A 
ATOM      9  N   UNL     1       2.509   6.962  19.532  0.00  0.00    +0.000 N 
ATOM     10  H   UNL     1       2.796   6.175  20.092  0.00  0.00    +0.000 HD
ENDROOT
BRANCH   5  11
ATOM     11  C   UNL     1      -0.250  11.728  20.504  0.00  0.00    +0.000 A 
ATOM     12  N   UNL     1      -1.319  11.880  21.271  0.00  0.00    +0.000 NA
ATOM     13  C   UNL     1      -1.647  13.214  21.230  0.00  0.00    +0.000 A 
ATOM     14  C   UNL     1      -2.681  13.906  21.887  0.00  0.00    +0.000 A 
ATOM     15  C   UNL     1      -2.823  15.291  21.707  0.00  0.00    +0.000 A 
ATOM     16  C   UNL     1      -1.943  15.934  20.814  0.00  0.00    +0.000 A 
ATOM     17  C   UNL     1      -0.903  15.269  20.145  0.00  0.00    +0.000 A 
ATOM     18  C   UNL     1      -0.775  13.906  20.400  0.00  0.00    +0.000 A 
ATOM     19  N   UNL     1       0.121  12.951  19.984  0.00  0.00    +0.000 N 
ATOM     20  H   UNL     1       0.926  13.123  19.402  0.00  0.00    +0.000 HD
BRANCH  15  21
ATOM     21  N   UNL     1      -3.795  16.065  22.360  0.00  0.00    +0.000 N 
ATOM     22  C   UNL     1      -4.339  15.581  23.648  0.00  0.00    +0.000 C 
ATOM     23  C   UNL     1      -5.582  16.424  24.035  0.00  0.00    +0.000 C 
ATOM     24  N   UNL     1      -5.288  17.876  24.123  0.00  0.00    +0.000 NA
ATOM     25  C   UNL     1      -6.506  18.631  24.407  0.00  0.00    +0.000 C 
ATOM     26  C   UNL     1      -4.683  18.328  22.848  0.00  0.00    +0.000 C 
ATOM     27  C   UNL     1      -3.438  17.502  22.444  0.00  0.00    +0.000 C 
ENDBRANCH  15  21
ENDBRANCH   5  11
BRANCH   1  31
ATOM     28  C   UNL     1       6.002   4.996  16.245  0.00  0.00    +0.000 A 
ATOM     29  C   UNL     1       5.623   6.257  15.790  0.00  0.00    +0.000 A 
ATOM     30  C   UNL     1       4.580   6.954  16.419  0.00  0.00    +0.000 A 
ATOM     31  C   UNL     1       3.888   6.396  17.502  0.00  0.00    +0.000 A 
ATOM     32  C   UNL     1       4.233   5.095  17.899  0.00  0.00    +0.000 A 
ATOM     33  C   UNL     1       5.275   4.400  17.271  0.00  0.00    +0.000 A 
BRANCH  28  34
ATOM     34  O   UNL     1       7.088   4.425  15.640  0.00  0.00    +0.000 OA
BRANCH  34  36
ATOM     35  C   UNL     1       6.235   3.828  13.486  0.00  0.00    +0.000 C 
ATOM     36  C   UNL     1       7.230   4.692  14.242  0.00  0.00    +0.000 C 
ENDBRANCH  34  36
ENDBRANCH  28  34
ENDBRANCH   1  31
TORSDOF 5
ENDMDL
MODEL 9
REMARK VINA RESULT:      -7.4      1.130      1.506
REMARK  Name = 
REMARK  7 active torsions:
REMARK  status: ('A' for Active; 'I' for Inactive)
REMARK    1  A    between atoms: C_1  and  C_2
REMARK    2  A    between atoms: C_2  and  O_3
REMARK    3  A    between atoms: O_3  and  C_4
REMARK    4  A    between atoms: C_7  and  C_8
REMARK    5  A    between atoms: C_12  and  C_13
REMARK    6  A    between atoms: C_17  and  N_18
REMARK    7  A    between atoms: N_21  and  C_22
REMARK                            x       y       z     vdW  Elec       q    Type
REMARK                         _______ _______ _______ _____ _____    ______ ____
ROOT
ATOM      1  C   UNL     1       3.187   6.797  18.161  0.00  0.00    +0.000 A 
ATOM      2  N   UNL     1       2.712   7.983  17.808  0.00  0.00    +0.000 NA
ATOM      3  C   UNL     1       1.990   8.450  18.884  0.00  0.00    +0.000 A 
ATOM      4  C   UNL     1       1.353   9.693  19.081  0.00  0.00    +0.000 A 
ATOM      5  C   UNL     1       0.756   9.971  20.326  0.00  0.00    +0.000 A 
ATOM      6  C   UNL     1       0.778   8.978  21.325  0.00  0.00    +0.000 A 
ATOM      7  C   UNL     1       1.368   7.723  21.135  0.00  0.00    +0.000 A 
ATOM      8  C   UNL     1       1.971   7.508  19.899  0.00  0.00    +0.000 A 
ATOM      9  N   UNL     1       2.665   6.443  19.388  0.00  0.00    +0.000 N 
ATOM     10  H   UNL     1       2.849   5.584  19.878  0.00  0.00    +0.000 HD
ENDROOT
BRANCH   5  11
ATOM     11  C   UNL     1       0.126  11.265  20.648  0.00  0.00    +0.000 A 
ATOM     12  N   UNL     1      -1.176  11.457  20.799  0.00  0.00    +0.000 NA
ATOM     13  C   UNL     1      -1.346  12.789  21.091  0.00  0.00    +0.000 A 
ATOM     14  C   UNL     1      -2.526  13.505  21.366  0.00  0.00    +0.000 A 
ATOM     15  C   UNL     1      -2.462  14.877  21.656  0.00  0.00    +0.000 A 
ATOM     16  C   UNL     1      -1.201  15.505  21.601  0.00  0.00    +0.000 A 
ATOM     17  C   UNL     1      -0.009  14.815  21.329  0.00  0.00    +0.000 A 
ATOM     18  C   UNL     1      -0.124  13.448  21.100  0.00  0.00    +0.000 A 
ATOM     19  N   UNL     1       0.794  12.454  20.854  0.00  0.00    +0.000 N 
ATOM     20  H   UNL     1       1.794  12.577  20.842  0.00  0.00    +0.000 HD
BRANCH  15  21
ATOM     21  N   UNL     1      -3.582  15.655  21.987  0.00  0.00    +0.000 N 
ATOM     22  C   UNL     1      -3.470  16.622  23.102  0.00  0.00    +0.000 C 
ATOM     23  C   UNL     1      -4.880  17.149  23.474  0.00  0.00    +0.000 C 
ATOM     24  N   UNL     1      -5.581  17.778  22.328  0.00  0.00    +0.000 NA
ATOM     25  C   UNL     1      -6.931  18.182  22.709  0.00  0.00    +0.000 C 
ATOM     26  C   UNL     1      -5.624  16.819  21.198  0.00  0.00    +0.000 C 
ATOM     27  C   UNL     1      -4.227  16.282  20.808  0.00  0.00    +0.000 C 
ENDBRANCH  15  21
ENDBRANCH   5  11
BRANCH   1  31
ATOM     28  C   UNL     1       5.942   4.505  15.788  0.00  0.00    +0.000 A 
ATOM     29  C   UNL     1       4.781   3.922  16.294  0.00  0.00    +0.000 A 
ATOM     30  C   UNL     1       3.909   4.666  17.102  0.00  0.00    +0.000 A 
ATOM     31  C   UNL     1       4.189   5.999  17.433  0.00  0.00    +0.000 A 
ATOM     32  C   UNL     1       5.398   6.546  16.978  0.00  0.00    +0.000 A 
ATOM     33  C   UNL     1       6.269   5.803  16.170  0.00  0.00    +0.000 A 
BRANCH  28  34
ATOM     34  O   UNL     1       6.690   3.743  14.933  0.00  0.00    +0.000 OA
BRANCH  34  36
ATOM     35  C   UNL     1       5.566   3.488  12.837  0.00  0.00    +0.000 C 
ATOM     36  C   UNL     1       6.705   4.176  13.570  0.00  0.00    +0.000 C 
ENDBRANCH  34  36
ENDBRANCH  28  34
ENDBRANCH   1  31
TORSDOF 5
ENDMDL
