MODEL 1
REMARK VINA RESULT:      -4.2      0.000      0.000
REMARK  Name = 
REMARK  0 active torsions:
REMARK  status: ('A' for Active; 'I' for Inactive)
REMARK                            x       y       z     vdW  Elec       q    Type
REMARK                         _______ _______ _______ _____ _____    ______ ____
ROOT
ATOM      1  I   UNL     1       2.984   6.894  18.213  0.00  0.00    +0.000 I 
ATOM      2  C   UNL     1       2.109   5.144  18.916  0.00  0.00    +0.000 A 
ATOM      3  C   UNL     1       1.876   4.985  20.283  0.00  0.00    +0.000 A 
ATOM      4  C   UNL     1       1.276   3.815  20.751  0.00  0.00    +0.000 A 
ATOM      5  C   UNL     1       0.912   2.809  19.855  0.00  0.00    +0.000 A 
ATOM      6  C   UNL     1       1.152   2.970  18.490  0.00  0.00    +0.000 A 
ATOM      7  C   UNL     1       1.753   4.138  18.017  0.00  0.00    +0.000 A 
ENDROOT
TORSDOF 0
ENDMDL
MODEL 2
REMARK VINA RESULT:      -4.2      0.015      1.829
REMARK  Name = 
REMARK  0 active torsions:
REMARK  status: ('A' for Active; 'I' for Inactive)
REMARK                            x       y       z     vdW  Elec       q    Type
REMARK                         _______ _______ _______ _____ _____    ______ ____
ROOT
ATOM      1  I   UNL     1       3.005   6.875  18.209  0.00  0.00    +0.000 I 
ATOM      2  C   UNL     1       2.101   5.140  18.914  0.00  0.00    +0.000 A 
ATOM      3  C   UNL     1       1.737   4.134  18.017  0.00  0.00    +0.000 A 
ATOM      4  C   UNL     1       1.143   2.964  18.495  0.00  0.00    +0.000 A 
ATOM      5  C   UNL     1       0.914   2.804  19.862  0.00  0.00    +0.000 A 
ATOM      6  C   UNL     1       1.274   3.815  20.754  0.00  0.00    +0.000 A 
ATOM      7  C   UNL     1       1.868   4.987  20.281  0.00  0.00    +0.000 A 
ENDROOT
TORSDOF 0
ENDMDL
MODEL 3
REMARK VINA RESULT:      -4.1      1.889      2.089
REMARK  Name = 
REMARK  0 active torsions:
REMARK  status: ('A' for Active; 'I' for Inactive)
REMARK                            x       y       z     vdW  Elec       q    Type
REMARK                         _______ _______ _______ _____ _____    ______ ____
ROOT
ATOM      1  I   UNL     1       4.083   4.051  17.402  0.00  0.00    +0.000 I 
ATOM      2  C   UNL     1       2.914   3.605  19.063  0.00  0.00    +0.000 A 
ATOM      3  C   UNL     1       3.482   2.941  20.152  0.00  0.00    +0.000 A 
ATOM      4  C   UNL     1       2.699   2.655  21.272  0.00  0.00    +0.000 A 
ATOM      5  C   UNL     1       1.356   3.031  21.301  0.00  0.00    +0.000 A 
ATOM      6  C   UNL     1       0.791   3.690  20.207  0.00  0.00    +0.000 A 
ATOM      7  C   UNL     1       1.570   3.977  19.085  0.00  0.00    +0.000 A 
ENDROOT
TORSDOF 0
ENDMDL
MODEL 4
REMARK VINA RESULT:      -4.1      1.882      2.288
REMARK  Name = 
REMARK  0 active torsions:
REMARK  status: ('A' for Active; 'I' for Inactive)
REMARK                            x       y       z     vdW  Elec       q    Type
REMARK                         _______ _______ _______ _____ _____    ______ ____
ROOT
ATOM      1  I   UNL     1       4.215   4.128  17.472  0.00  0.00    +0.000 I 
ATOM      2  C   UNL     1       2.996   3.690  19.098  0.00  0.00    +0.000 A 
ATOM      3  C   UNL     1       1.675   4.140  19.115  0.00  0.00    +0.000 A 
ATOM      4  C   UNL     1       0.854   3.833  20.202  0.00  0.00    +0.000 A 
ATOM      5  C   UNL     1       1.353   3.080  21.265  0.00  0.00    +0.000 A 
ATOM      6  C   UNL     1       2.677   2.637  21.246  0.00  0.00    +0.000 A 
ATOM      7  C   UNL     1       3.502   2.942  20.162  0.00  0.00    +0.000 A 
ENDROOT
TORSDOF 0
ENDMDL
MODEL 5
REMARK VINA RESULT:      -4.0      1.518      2.339
REMARK  Name = 
REMARK  0 active torsions:
REMARK  status: ('A' for Active; 'I' for Inactive)
REMARK                            x       y       z     vdW  Elec       q    Type
REMARK                         _______ _______ _______ _____ _____    ______ ____
ROOT
ATOM      1  I   UNL     1       4.430   4.104  17.130  0.00  0.00    +0.000 I 
ATOM      2  C   UNL     1       2.967   3.930  18.598  0.00  0.00    +0.000 A 
ATOM      3  C   UNL     1       1.879   3.080  18.393  0.00  0.00    +0.000 A 
ATOM      4  C   UNL     1       0.905   2.954  19.386  0.00  0.00    +0.000 A 
ATOM      5  C   UNL     1       1.021   3.674  20.575  0.00  0.00    +0.000 A 
ATOM      6  C   UNL     1       2.108   4.526  20.772  0.00  0.00    +0.000 A 
ATOM      7  C   UNL     1       3.084   4.657  19.782  0.00  0.00    +0.000 A 
ENDROOT
TORSDOF 0
ENDMDL
MODEL 6
REMARK VINA RESULT:      -4.0      1.461      1.599
REMARK  Name = 
REMARK  0 active torsions:
REMARK  status: ('A' for Active; 'I' for Inactive)
REMARK                            x       y       z     vdW  Elec       q    Type
REMARK                         _______ _______ _______ _____ _____    ______ ____
ROOT
ATOM      1  I   UNL     1       4.460   4.304  17.192  0.00  0.00    +0.000 I 
ATOM      2  C   UNL     1       2.979   4.018  18.623  0.00  0.00    +0.000 A 
ATOM      3  C   UNL     1       3.018   4.742  19.816  0.00  0.00    +0.000 A 
ATOM      4  C   UNL     1       2.015   4.558  20.770  0.00  0.00    +0.000 A 
ATOM      5  C   UNL     1       0.980   3.654  20.530  0.00  0.00    +0.000 A 
ATOM      6  C   UNL     1       0.948   2.928  19.339  0.00  0.00    +0.000 A 
ATOM      7  C   UNL     1       1.950   3.108  18.383  0.00  0.00    +0.000 A 
ENDROOT
TORSDOF 0
ENDMDL
MODEL 7
REMARK VINA RESULT:      -4.0      1.879      2.590
REMARK  Name = 
REMARK  0 active torsions:
REMARK  status: ('A' for Active; 'I' for Inactive)
REMARK                            x       y       z     vdW  Elec       q    Type
REMARK                         _______ _______ _______ _____ _____    ______ ____
ROOT
ATOM      1  I   UNL     1       4.981   5.944  16.966  0.00  0.00    +0.000 I 
ATOM      2  C   UNL     1       3.625   4.458  17.492  0.00  0.00    +0.000 A 
ATOM      3  C   UNL     1       4.027   3.121  17.494  0.00  0.00    +0.000 A 
ATOM      4  C   UNL     1       3.119   2.127  17.861  0.00  0.00    +0.000 A 
ATOM      5  C   UNL     1       1.816   2.469  18.224  0.00  0.00    +0.000 A 
ATOM      6  C   UNL     1       1.417   3.806  18.215  0.00  0.00    +0.000 A 
ATOM      7  C   UNL     1       2.322   4.804  17.848  0.00  0.00    +0.000 A 
ENDROOT
TORSDOF 0
ENDMDL
MODEL 8
REMARK VINA RESULT:      -3.9      1.859      2.349
REMARK  Name = 
REMARK  0 active torsions:
REMARK  status: ('A' for Active; 'I' for Inactive)
REMARK                            x       y       z     vdW  Elec       q    Type
REMARK                         _______ _______ _______ _____ _____    ______ ____
ROOT
ATOM      1  I   UNL     1       5.033   5.953  16.886  0.00  0.00    +0.000 I 
ATOM      2  C   UNL     1       3.649   4.516  17.473  0.00  0.00    +0.000 A 
ATOM      3  C   UNL     1       2.364   4.906  17.856  0.00  0.00    +0.000 A 
ATOM      4  C   UNL     1       1.433   3.938  18.236  0.00  0.00    +0.000 A 
ATOM      5  C   UNL     1       1.786   2.589  18.234  0.00  0.00    +0.000 A 
ATOM      6  C   UNL     1       3.073   2.204  17.856  0.00  0.00    +0.000 A 
ATOM      7  C   UNL     1       4.008   3.168  17.476  0.00  0.00    +0.000 A 
ENDROOT
TORSDOF 0
ENDMDL
MODEL 9
REMARK VINA RESULT:      -3.9      1.362      2.239
REMARK  Name = 
REMARK  0 active torsions:
REMARK  status: ('A' for Active; 'I' for Inactive)
REMARK                            x       y       z     vdW  Elec       q    Type
REMARK                         _______ _______ _______ _____ _____    ______ ____
ROOT
ATOM      1  I   UNL     1       4.983   5.047  18.794  0.00  0.00    +0.000 I 
ATOM      2  C   UNL     1       3.150   4.128  19.140  0.00  0.00    +0.000 A 
ATOM      3  C   UNL     1       2.714   3.109  18.291  0.00  0.00    +0.000 A 
ATOM      4  C   UNL     1       1.489   2.484  18.534  0.00  0.00    +0.000 A 
ATOM      5  C   UNL     1       0.707   2.877  19.620  0.00  0.00    +0.000 A 
ATOM      6  C   UNL     1       1.144   3.900  20.463  0.00  0.00    +0.000 A 
ATOM      7  C   UNL     1       2.367   4.529  20.223  0.00  0.00    +0.000 A 
ENDROOT
TORSDOF 0
ENDMDL
