MODEL 1
REMARK VINA RESULT:      -8.6      0.000      0.000
REMARK  Name = 
REMARK  3 active torsions:
REMARK  status: ('A' for Active; 'I' for Inactive)
REMARK    1  A    between atoms: C_10  and  N_11
REMARK    2  A    between atoms: C_14  and  C_15
REMARK    3  A    between atoms: C_18  and  C_19
REMARK                            x       y       z     vdW  Elec       q    Type
REMARK                         _______ _______ _______ _____ _____    ______ ____
ROOT
ATOM      1  N   UNL     1       4.257   5.719  18.007  0.00  0.00    +0.000 N 
ATOM      2  C   UNL     1       3.953   4.602  17.120  0.00  0.00    +0.000 C 
ATOM      3  C   UNL     1       5.067   3.564  17.229  0.00  0.00    +0.000 C 
ATOM      4  C   UNL     1       6.450   4.183  16.955  0.00  0.00    +0.000 C 
ATOM      5  C   UNL     1       6.668   5.392  17.882  0.00  0.00    +0.000 C 
ATOM      6  C   UNL     1       5.527   6.408  17.811  0.00  0.00    +0.000 C 
ENDROOT
BRANCH   1  16
ATOM      7  C   UNL     1       1.984   5.912  20.719  0.00  0.00    +0.000 A 
ATOM      8  N   UNL     1       1.425   7.127  20.654  0.00  0.00    +0.000 NA
ATOM      9  C   UNL     1       1.796   7.905  19.627  0.00  0.00    +0.000 A 
ATOM     10  N   UNL     1       1.219   9.145  19.495  0.00  0.00    +0.000 N 
ATOM     11  C   UNL     1       0.199   9.625  20.403  0.00  0.00    +0.000 C 
ATOM     12  C   UNL     1      -0.583  10.599  19.525  0.00  0.00    +0.000 C 
ATOM     13  C   UNL     1       0.488  11.214  18.633  0.00  0.00    +0.000 C 
ATOM     14  C   UNL     1       1.521  10.102  18.447  0.00  0.00    +0.000 C 
ATOM     15  C   UNL     1       2.731   7.447  18.716  0.00  0.00    +0.000 A 
ATOM     16  C   UNL     1       3.279   6.185  18.861  0.00  0.00    +0.000 A 
ATOM     17  N   UNL     1       2.881   5.398  19.871  0.00  0.00    +0.000 NA
ENDBRANCH   1  16
BRANCH   4  18
ATOM     18  C   UNL     1       6.625   4.529  15.509  0.00  0.00    +0.000 A 
ATOM     19  N   UNL     1       7.539   5.410  15.080  0.00  0.00    +0.000 NA
ATOM     20  O   UNL     1       7.471   5.286  13.690  0.00  0.00    +0.000 OA
ATOM     21  C   UNL     1       6.509   4.352  13.429  0.00  0.00    +0.000 A 
ATOM     22  N   UNL     1       5.926   3.902  14.515  0.00  0.00    +0.000 NA
BRANCH  21  23
ATOM     23  C   UNL     1       6.196   3.832  12.034  0.00  0.00    +0.000 C 
ATOM     24  C   UNL     1       6.132   2.323  11.857  0.00  0.00    +0.000 C 
ATOM     25  C   UNL     1       4.881   3.129  11.774  0.00  0.00    +0.000 C 
ENDBRANCH  21  23
ENDBRANCH   4  18
TORSDOF 3
ENDMDL
MODEL 2
REMARK VINA RESULT:      -7.9      3.224      8.631
REMARK  Name = 
REMARK  3 active torsions:
REMARK  status: ('A' for Active; 'I' for Inactive)
REMARK    1  A    between atoms: C_10  and  N_11
REMARK    2  A    between atoms: C_14  and  C_15
REMARK    3  A    between atoms: C_18  and  C_19
REMARK                            x       y       z     vdW  Elec       q    Type
REMARK                         _______ _______ _______ _____ _____    ______ ____
ROOT
ATOM      1  N   UNL     1       1.851   8.265  19.382  0.00  0.00    +0.000 N 
ATOM      2  C   UNL     1       1.460   8.674  20.726  0.00  0.00    +0.000 C 
ATOM      3  C   UNL     1       0.034   9.218  20.685  0.00  0.00    +0.000 C 
ATOM      4  C   UNL     1      -0.112  10.351  19.652  0.00  0.00    +0.000 C 
ATOM      5  C   UNL     1       0.381   9.864  18.278  0.00  0.00    +0.000 C 
ATOM      6  C   UNL     1       1.790   9.271  18.329  0.00  0.00    +0.000 C 
ENDROOT
BRANCH   1  16
ATOM      7  C   UNL     1       2.637   4.836  19.810  0.00  0.00    +0.000 A 
ATOM      8  N   UNL     1       3.433   4.504  18.785  0.00  0.00    +0.000 NA
ATOM      9  C   UNL     1       3.757   5.486  17.932  0.00  0.00    +0.000 A 
ATOM     10  N   UNL     1       4.604   5.202  16.888  0.00  0.00    +0.000 N 
ATOM     11  C   UNL     1       5.188   3.892  16.698  0.00  0.00    +0.000 C 
ATOM     12  C   UNL     1       6.484   4.219  15.962  0.00  0.00    +0.000 C 
ATOM     13  C   UNL     1       6.105   5.403  15.081  0.00  0.00    +0.000 C 
ATOM     14  C   UNL     1       5.038   6.152  15.880  0.00  0.00    +0.000 C 
ATOM     15  C   UNL     1       3.252   6.760  18.122  0.00  0.00    +0.000 A 
ATOM     16  C   UNL     1       2.419   7.022  19.195  0.00  0.00    +0.000 A 
ATOM     17  N   UNL     1       2.124   6.045  20.065  0.00  0.00    +0.000 NA
ENDBRANCH   1  16
BRANCH   4  18
ATOM     18  C   UNL     1       0.579  11.601  20.101  0.00  0.00    +0.000 A 
ATOM     19  N   UNL     1       1.033  11.769  21.351  0.00  0.00    +0.000 NA
ATOM     20  O   UNL     1       1.746  12.968  21.270  0.00  0.00    +0.000 OA
ATOM     21  C   UNL     1       1.633  13.403  19.980  0.00  0.00    +0.000 A 
ATOM     22  N   UNL     1       0.879  12.623  19.242  0.00  0.00    +0.000 NA
BRANCH  21  23
ATOM     23  C   UNL     1       2.361  14.622  19.435  0.00  0.00    +0.000 C 
ATOM     24  C   UNL     1       3.854  14.480  19.185  0.00  0.00    +0.000 C 
ATOM     25  C   UNL     1       2.922  14.593  18.029  0.00  0.00    +0.000 C 
ENDBRANCH  21  23
ENDBRANCH   4  18
TORSDOF 3
ENDMDL
MODEL 3
REMARK VINA RESULT:      -7.5      3.637      8.366
REMARK  Name = 
REMARK  3 active torsions:
REMARK  status: ('A' for Active; 'I' for Inactive)
REMARK    1  A    between atoms: C_10  and  N_11
REMARK    2  A    between atoms: C_14  and  C_15
REMARK    3  A    between atoms: C_18  and  C_19
REMARK                            x       y       z     vdW  Elec       q    Type
REMARK                         _______ _______ _______ _____ _____    ______ ____
ROOT
ATOM      1  N   UNL     1       1.538   8.301  19.458  0.00  0.00    +0.000 N 
ATOM      2  C   UNL     1       1.370   8.957  18.166  0.00  0.00    +0.000 C 
ATOM      3  C   UNL     1       1.664  10.446  18.322  0.00  0.00    +0.000 C 
ATOM      4  C   UNL     1       0.804  11.083  19.428  0.00  0.00    +0.000 C 
ATOM      5  C   UNL     1       0.985  10.298  20.740  0.00  0.00    +0.000 C 
ATOM      6  C   UNL     1       0.740   8.798  20.572  0.00  0.00    +0.000 C 
ENDROOT
BRANCH   1  16
ATOM      7  C   UNL     1       2.647   5.073  20.408  0.00  0.00    +0.000 A 
ATOM      8  N   UNL     1       3.704   4.796  19.633  0.00  0.00    +0.000 NA
ATOM      9  C   UNL     1       4.090   5.755  18.779  0.00  0.00    +0.000 A 
ATOM     10  N   UNL     1       5.194   5.533  17.991  0.00  0.00    +0.000 N 
ATOM     11  C   UNL     1       5.975   4.318  18.078  0.00  0.00    +0.000 C 
ATOM     12  C   UNL     1       7.355   4.789  17.627  0.00  0.00    +0.000 C 
ATOM     13  C   UNL     1       7.047   5.836  16.565  0.00  0.00    +0.000 C 
ATOM     14  C   UNL     1       5.728   6.465  17.016  0.00  0.00    +0.000 C 
ATOM     15  C   UNL     1       3.389   6.946  18.715  0.00  0.00    +0.000 A 
ATOM     16  C   UNL     1       2.295   7.151  19.536  0.00  0.00    +0.000 A 
ATOM     17  N   UNL     1       1.932   6.202  20.412  0.00  0.00    +0.000 NA
ENDBRANCH   1  16
BRANCH   4  18
ATOM     18  C   UNL     1      -0.632  11.193  19.018  0.00  0.00    +0.000 A 
ATOM     19  N   UNL     1      -1.435  12.176  19.448  0.00  0.00    +0.000 NA
ATOM     20  O   UNL     1      -2.595  11.992  18.691  0.00  0.00    +0.000 OA
ATOM     21  C   UNL     1      -2.372  10.903  17.895  0.00  0.00    +0.000 A 
ATOM     22  N   UNL     1      -1.201  10.350  18.104  0.00  0.00    +0.000 NA
BRANCH  21  23
ATOM     23  C   UNL     1      -3.345  10.427  16.828  0.00  0.00    +0.000 C 
ATOM     24  C   UNL     1      -3.231  11.066  15.453  0.00  0.00    +0.000 C 
ATOM     25  C   UNL     1      -2.829   9.644  15.640  0.00  0.00    +0.000 C 
ENDBRANCH  21  23
ENDBRANCH   4  18
TORSDOF 3
ENDMDL
MODEL 4
REMARK VINA RESULT:      -7.5      2.874      4.523
REMARK  Name = 
REMARK  3 active torsions:
REMARK  status: ('A' for Active; 'I' for Inactive)
REMARK    1  A    between atoms: C_10  and  N_11
REMARK    2  A    between atoms: C_14  and  C_15
REMARK    3  A    between atoms: C_18  and  C_19
REMARK                            x       y       z     vdW  Elec       q    Type
REMARK                         _______ _______ _______ _____ _____    ______ ____
ROOT
ATOM      1  N   UNL     1       1.726   7.284  20.327  0.00  0.00    +0.000 N 
ATOM      2  C   UNL     1       2.470   7.428  19.081  0.00  0.00    +0.000 C 
ATOM      3  C   UNL     1       2.092   6.286  18.141  0.00  0.00    +0.000 C 
ATOM      4  C   UNL     1       2.302   4.912  18.804  0.00  0.00    +0.000 C 
ATOM      5  C   UNL     1       1.541   4.861  20.141  0.00  0.00    +0.000 C 
ATOM      6  C   UNL     1       1.881   6.035  21.062  0.00  0.00    +0.000 C 
ENDROOT
BRANCH   1  16
ATOM      7  C   UNL     1       0.637   9.795  22.577  0.00  0.00    +0.000 A 
ATOM      8  N   UNL     1      -0.158  10.612  21.872  0.00  0.00    +0.000 NA
ATOM      9  C   UNL     1      -0.373  10.281  20.591  0.00  0.00    +0.000 A 
ATOM     10  N   UNL     1      -1.213  11.066  19.838  0.00  0.00    +0.000 N 
ATOM     11  C   UNL     1      -1.902  12.213  20.389  0.00  0.00    +0.000 C 
ATOM     12  C   UNL     1      -3.146  12.297  19.508  0.00  0.00    +0.000 C 
ATOM     13  C   UNL     1      -2.644  11.857  18.139  0.00  0.00    +0.000 C 
ATOM     14  C   UNL     1      -1.538  10.845  18.441  0.00  0.00    +0.000 C 
ATOM     15  C   UNL     1       0.234   9.159  20.055  0.00  0.00    +0.000 A 
ATOM     16  C   UNL     1       1.058   8.375  20.843  0.00  0.00    +0.000 A 
ATOM     17  N   UNL     1       1.245   8.691  22.133  0.00  0.00    +0.000 NA
ENDBRANCH   1  16
BRANCH   4  18
ATOM     18  C   UNL     1       3.755   4.588  18.958  0.00  0.00    +0.000 A 
ATOM     19  N   UNL     1       4.190   3.496  19.602  0.00  0.00    +0.000 NA
ATOM     20  O   UNL     1       5.564   3.504  19.347  0.00  0.00    +0.000 OA
ATOM     21  C   UNL     1       5.813   4.612  18.588  0.00  0.00    +0.000 A 
ATOM     22  N   UNL     1       4.740   5.335  18.372  0.00  0.00    +0.000 NA
BRANCH  21  23
ATOM     23  C   UNL     1       7.174   4.937  17.992  0.00  0.00    +0.000 C 
ATOM     24  C   UNL     1       7.370   4.644  16.513  0.00  0.00    +0.000 C 
ATOM     25  C   UNL     1       7.303   6.056  16.982  0.00  0.00    +0.000 C 
ENDBRANCH  21  23
ENDBRANCH   4  18
TORSDOF 3
ENDMDL
MODEL 5
REMARK VINA RESULT:      -7.5      1.047      1.278
REMARK  Name = 
REMARK  3 active torsions:
REMARK  status: ('A' for Active; 'I' for Inactive)
REMARK    1  A    between atoms: C_10  and  N_11
REMARK    2  A    between atoms: C_14  and  C_15
REMARK    3  A    between atoms: C_18  and  C_19
REMARK                            x       y       z     vdW  Elec       q    Type
REMARK                         _______ _______ _______ _____ _____    ______ ____
ROOT
ATOM      1  N   UNL     1       4.010   6.207  18.276  0.00  0.00    +0.000 N 
ATOM      2  C   UNL     1       4.631   4.911  18.524  0.00  0.00    +0.000 C 
ATOM      3  C   UNL     1       6.148   5.075  18.510  0.00  0.00    +0.000 C 
ATOM      4  C   UNL     1       6.637   5.729  17.205  0.00  0.00    +0.000 C 
ATOM      5  C   UNL     1       5.891   7.056  16.980  0.00  0.00    +0.000 C 
ATOM      6  C   UNL     1       4.371   6.900  17.045  0.00  0.00    +0.000 C 
ENDROOT
BRANCH   1  16
ATOM      7  C   UNL     1       1.657   6.312  20.923  0.00  0.00    +0.000 A 
ATOM      8  N   UNL     1       1.067   7.512  20.853  0.00  0.00    +0.000 NA
ATOM      9  C   UNL     1       1.446   8.310  19.844  0.00  0.00    +0.000 A 
ATOM     10  N   UNL     1       0.839   9.535  19.706  0.00  0.00    +0.000 N 
ATOM     11  C   UNL     1      -0.219   9.979  20.588  0.00  0.00    +0.000 C 
ATOM     12  C   UNL     1      -1.001  10.940  19.697  0.00  0.00    +0.000 C 
ATOM     13  C   UNL     1       0.077  11.593  18.842  0.00  0.00    +0.000 C 
ATOM     14  C   UNL     1       1.145  10.511  18.676  0.00  0.00    +0.000 C 
ATOM     15  C   UNL     1       2.418   7.886  18.956  0.00  0.00    +0.000 A 
ATOM     16  C   UNL     1       2.996   6.639  19.106  0.00  0.00    +0.000 A 
ATOM     17  N   UNL     1       2.591   5.831  20.097  0.00  0.00    +0.000 NA
ENDBRANCH   1  16
BRANCH   4  18
ATOM     18  C   UNL     1       6.515   4.797  16.040  0.00  0.00    +0.000 A 
ATOM     19  N   UNL     1       6.031   3.552  16.156  0.00  0.00    +0.000 NA
ATOM     20  O   UNL     1       5.931   3.126  14.829  0.00  0.00    +0.000 OA
ATOM     21  C   UNL     1       6.382   4.157  14.053  0.00  0.00    +0.000 A 
ATOM     22  N   UNL     1       6.801   5.181  14.759  0.00  0.00    +0.000 NA
BRANCH  21  23
ATOM     23  C   UNL     1       6.334   4.151  12.534  0.00  0.00    +0.000 C 
ATOM     24  C   UNL     1       6.952   2.955  11.827  0.00  0.00    +0.000 C 
ATOM     25  C   UNL     1       5.473   3.135  11.815  0.00  0.00    +0.000 C 
ENDBRANCH  21  23
ENDBRANCH   4  18
TORSDOF 3
ENDMDL
MODEL 6
REMARK VINA RESULT:      -7.4      4.410      9.197
REMARK  Name = 
REMARK  3 active torsions:
REMARK  status: ('A' for Active; 'I' for Inactive)
REMARK    1  A    between atoms: C_10  and  N_11
REMARK    2  A    between atoms: C_14  and  C_15
REMARK    3  A    between atoms: C_18  and  C_19
REMARK                            x       y       z     vdW  Elec       q    Type
REMARK                         _______ _______ _______ _____ _____    ______ ____
ROOT
ATOM      1  N   UNL     1       1.504   9.006  19.366  0.00  0.00    +0.000 N 
ATOM      2  C   UNL     1       1.221   9.212  20.782  0.00  0.00    +0.000 C 
ATOM      3  C   UNL     1      -0.268   9.498  20.954  0.00  0.00    +0.000 C 
ATOM      4  C   UNL     1      -0.725  10.680  20.079  0.00  0.00    +0.000 C 
ATOM      5  C   UNL     1      -0.333  10.418  18.613  0.00  0.00    +0.000 C 
ATOM      6  C   UNL     1       1.150  10.080  18.447  0.00  0.00    +0.000 C 
ENDROOT
BRANCH   1  16
ATOM      7  C   UNL     1       3.763   6.938  17.583  0.00  0.00    +0.000 A 
ATOM      8  N   UNL     1       3.815   5.777  18.250  0.00  0.00    +0.000 NA
ATOM      9  C   UNL     1       3.022   5.667  19.326  0.00  0.00    +0.000 A 
ATOM     10  N   UNL     1       3.010   4.480  20.019  0.00  0.00    +0.000 N 
ATOM     11  C   UNL     1       3.793   3.335  19.607  0.00  0.00    +0.000 C 
ATOM     12  C   UNL     1       2.975   2.170  20.158  0.00  0.00    +0.000 C 
ATOM     13  C   UNL     1       2.410   2.715  21.462  0.00  0.00    +0.000 C 
ATOM     14  C   UNL     1       2.217   4.210  21.204  0.00  0.00    +0.000 C 
ATOM     15  C   UNL     1       2.225   6.730  19.709  0.00  0.00    +0.000 A 
ATOM     16  C   UNL     1       2.241   7.906  18.980  0.00  0.00    +0.000 A 
ATOM     17  N   UNL     1       3.010   8.001  17.885  0.00  0.00    +0.000 NA
ENDBRANCH   1  16
BRANCH   4  18
ATOM     18  C   UNL     1      -0.197  11.984  20.590  0.00  0.00    +0.000 A 
ATOM     19  N   UNL     1       0.015  12.218  21.893  0.00  0.00    +0.000 NA
ATOM     20  O   UNL     1       0.662  13.457  21.891  0.00  0.00    +0.000 OA
ATOM     21  C   UNL     1       0.756  13.845  20.584  0.00  0.00    +0.000 A 
ATOM     22  N   UNL     1       0.192  12.996  19.757  0.00  0.00    +0.000 NA
BRANCH  21  23
ATOM     23  C   UNL     1       1.500  15.090  20.127  0.00  0.00    +0.000 C 
ATOM     24  C   UNL     1       2.986  14.944  19.845  0.00  0.00    +0.000 C 
ATOM     25  C   UNL     1       2.041  15.164  18.715  0.00  0.00    +0.000 C 
ENDBRANCH  21  23
ENDBRANCH   4  18
TORSDOF 3
ENDMDL
MODEL 7
REMARK VINA RESULT:      -7.4      2.947      4.587
REMARK  Name = 
REMARK  3 active torsions:
REMARK  status: ('A' for Active; 'I' for Inactive)
REMARK    1  A    between atoms: C_10  and  N_11
REMARK    2  A    between atoms: C_14  and  C_15
REMARK    3  A    between atoms: C_18  and  C_19
REMARK                            x       y       z     vdW  Elec       q    Type
REMARK                         _______ _______ _______ _____ _____    ______ ____
ROOT
ATOM      1  N   UNL     1       1.632   7.384  20.320  0.00  0.00    +0.000 N 
ATOM      2  C   UNL     1       2.426   7.542  19.107  0.00  0.00    +0.000 C 
ATOM      3  C   UNL     1       2.075   6.421  18.133  0.00  0.00    +0.000 C 
ATOM      4  C   UNL     1       2.244   5.033  18.778  0.00  0.00    +0.000 C 
ATOM      5  C   UNL     1       1.429   4.967  20.082  0.00  0.00    +0.000 C 
ATOM      6  C   UNL     1       1.745   6.120  21.037  0.00  0.00    +0.000 C 
ENDROOT
BRANCH   1  16
ATOM      7  C   UNL     1      -0.317   9.420  22.468  0.00  0.00    +0.000 A 
ATOM      8  N   UNL     1      -0.302  10.649  21.936  0.00  0.00    +0.000 NA
ATOM      9  C   UNL     1       0.358  10.794  20.778  0.00  0.00    +0.000 A 
ATOM     10  N   UNL     1       0.368  12.027  20.172  0.00  0.00    +0.000 N 
ATOM     11  C   UNL     1      -0.340  13.164  20.720  0.00  0.00    +0.000 C 
ATOM     12  C   UNL     1      -0.636  13.992  19.472  0.00  0.00    +0.000 C 
ATOM     13  C   UNL     1       0.588  13.766  18.594  0.00  0.00    +0.000 C 
ATOM     14  C   UNL     1       1.043  12.345  18.927  0.00  0.00    +0.000 C 
ATOM     15  C   UNL     1       1.000   9.709  20.208  0.00  0.00    +0.000 A 
ATOM     16  C   UNL     1       0.955   8.473  20.828  0.00  0.00    +0.000 A 
ATOM     17  N   UNL     1       0.266   8.325  21.969  0.00  0.00    +0.000 NA
ENDBRANCH   1  16
BRANCH   4  18
ATOM     18  C   UNL     1       3.686   4.691  18.983  0.00  0.00    +0.000 A 
ATOM     19  N   UNL     1       4.084   3.568  19.598  0.00  0.00    +0.000 NA
ATOM     20  O   UNL     1       5.468   3.575  19.407  0.00  0.00    +0.000 OA
ATOM     21  C   UNL     1       5.760   4.714  18.710  0.00  0.00    +0.000 A 
ATOM     22  N   UNL     1       4.702   5.455  18.477  0.00  0.00    +0.000 NA
BRANCH  21  23
ATOM     23  C   UNL     1       7.148   5.052  18.192  0.00  0.00    +0.000 C 
ATOM     24  C   UNL     1       7.467   4.658  16.759  0.00  0.00    +0.000 C 
ATOM     25  C   UNL     1       7.311   6.098  17.109  0.00  0.00    +0.000 C 
ENDBRANCH  21  23
ENDBRANCH   4  18
TORSDOF 3
ENDMDL
MODEL 8
REMARK VINA RESULT:      -7.4      4.055      8.947
REMARK  Name = 
REMARK  3 active torsions:
REMARK  status: ('A' for Active; 'I' for Inactive)
REMARK    1  A    between atoms: C_10  and  N_11
REMARK    2  A    between atoms: C_14  and  C_15
REMARK    3  A    between atoms: C_18  and  C_19
REMARK                            x       y       z     vdW  Elec       q    Type
REMARK                         _______ _______ _______ _____ _____    ______ ____
ROOT
ATOM      1  N   UNL     1       1.808   8.681  18.897  0.00  0.00    +0.000 N 
ATOM      2  C   UNL     1       1.628   8.820  20.338  0.00  0.00    +0.000 C 
ATOM      3  C   UNL     1       0.148   9.043  20.634  0.00  0.00    +0.000 C 
ATOM      4  C   UNL     1      -0.416  10.239  19.846  0.00  0.00    +0.000 C 
ATOM      5  C   UNL     1      -0.131  10.049  18.345  0.00  0.00    +0.000 C 
ATOM      6  C   UNL     1       1.346   9.775  18.053  0.00  0.00    +0.000 C 
ENDROOT
BRANCH   1  16
ATOM      7  C   UNL     1       4.318   6.844  17.198  0.00  0.00    +0.000 A 
ATOM      8  N   UNL     1       4.126   5.559  17.520  0.00  0.00    +0.000 NA
ATOM      9  C   UNL     1       3.078   5.289  18.312  0.00  0.00    +0.000 A 
ATOM     10  N   UNL     1       2.815   3.980  18.637  0.00  0.00    +0.000 N 
ATOM     11  C   UNL     1       3.606   2.881  18.126  0.00  0.00    +0.000 C 
ATOM     12  C   UNL     1       2.605   1.729  18.137  0.00  0.00    +0.000 C 
ATOM     13  C   UNL     1       1.756   2.005  19.372  0.00  0.00    +0.000 C 
ATOM     14  C   UNL     1       1.729   3.529  19.488  0.00  0.00    +0.000 C 
ATOM     15  C   UNL     1       2.275   6.318  18.772  0.00  0.00    +0.000 A 
ATOM     16  C   UNL     1       2.551   7.624  18.411  0.00  0.00    +0.000 A 
ATOM     17  N   UNL     1       3.580   7.887  17.592  0.00  0.00    +0.000 NA
ENDBRANCH   1  16
BRANCH   4  18
ATOM     18  C   UNL     1       0.103  11.542  20.369  0.00  0.00    +0.000 A 
ATOM     19  N   UNL     1       0.373  11.745  21.666  0.00  0.00    +0.000 NA
ATOM     20  O   UNL     1       0.989  13.000  21.669  0.00  0.00    +0.000 OA
ATOM     21  C   UNL     1       1.009  13.427  20.371  0.00  0.00    +0.000 A 
ATOM     22  N   UNL     1       0.426  12.587  19.548  0.00  0.00    +0.000 NA
BRANCH  21  23
ATOM     23  C   UNL     1       1.698  14.703  19.915  0.00  0.00    +0.000 C 
ATOM     24  C   UNL     1       3.207  14.650  19.741  0.00  0.00    +0.000 C 
ATOM     25  C   UNL     1       2.332  14.763  18.541  0.00  0.00    +0.000 C 
ENDBRANCH  21  23
ENDBRANCH   4  18
TORSDOF 3
ENDMDL
MODEL 9
REMARK VINA RESULT:      -7.3      3.117      4.898
REMARK  Name = 
REMARK  3 active torsions:
REMARK  status: ('A' for Active; 'I' for Inactive)
REMARK    1  A    between atoms: C_10  and  N_11
REMARK    2  A    between atoms: C_14  and  C_15
REMARK    3  A    between atoms: C_18  and  C_19
REMARK                            x       y       z     vdW  Elec       q    Type
REMARK                         _______ _______ _______ _____ _____    ______ ____
ROOT
ATOM      1  N   UNL     1       2.006   7.746  19.369  0.00  0.00    +0.000 N 
ATOM      2  C   UNL     1       2.574   7.187  18.148  0.00  0.00    +0.000 C 
ATOM      3  C   UNL     1       2.009   5.785  17.933  0.00  0.00    +0.000 C 
ATOM      4  C   UNL     1       2.238   4.886  19.162  0.00  0.00    +0.000 C 
ATOM      5  C   UNL     1       1.670   5.572  20.417  0.00  0.00    +0.000 C 
ATOM      6  C   UNL     1       2.197   6.996  20.604  0.00  0.00    +0.000 C 
ENDROOT
BRANCH   1  16
ATOM      7  C   UNL     1       1.125  10.993  18.255  0.00  0.00    +0.000 A 
ATOM      8  N   UNL     1       0.334  11.513  19.202  0.00  0.00    +0.000 NA
ATOM      9  C   UNL     1       0.118  10.755  20.287  0.00  0.00    +0.000 A 
ATOM     10  N   UNL     1      -0.654  11.262  21.304  0.00  0.00    +0.000 N 
ATOM     11  C   UNL     1      -1.212  12.597  21.262  0.00  0.00    +0.000 C 
ATOM     12  C   UNL     1      -1.329  12.945  22.744  0.00  0.00    +0.000 C 
ATOM     13  C   UNL     1      -1.683  11.615  23.396  0.00  0.00    +0.000 C 
ATOM     14  C   UNL     1      -0.985  10.564  22.533  0.00  0.00    +0.000 C 
ATOM     15  C   UNL     1       0.684   9.495  20.373  0.00  0.00    +0.000 A 
ATOM     16  C   UNL     1       1.475   9.019  19.344  0.00  0.00    +0.000 A 
ATOM     17  N   UNL     1       1.715   9.793  18.275  0.00  0.00    +0.000 NA
ENDBRANCH   1  16
BRANCH   4  18
ATOM     18  C   UNL     1       3.679   4.513  19.313  0.00  0.00    +0.000 A 
ATOM     19  N   UNL     1       4.074   3.303  19.735  0.00  0.00    +0.000 NA
ATOM     20  O   UNL     1       5.459   3.340  19.553  0.00  0.00    +0.000 OA
ATOM     21  C   UNL     1       5.754   4.578  19.054  0.00  0.00    +0.000 A 
ATOM     22  N   UNL     1       4.697   5.348  18.944  0.00  0.00    +0.000 NA
BRANCH  21  23
ATOM     23  C   UNL     1       7.145   4.996  18.605  0.00  0.00    +0.000 C 
ATOM     24  C   UNL     1       7.539   4.661  17.175  0.00  0.00    +0.000 C 
ATOM     25  C   UNL     1       7.301   6.080  17.560  0.00  0.00    +0.000 C 
ENDBRANCH  21  23
ENDBRANCH   4  18
TORSDOF 3
ENDMDL
