MODEL 1
REMARK VINA RESULT:      -7.3      0.000      0.000
REMARK  Name = 
REMARK  4 active torsions:
REMARK  status: ('A' for Active; 'I' for Inactive)
REMARK    1  A    between atoms: C_3  and  O_4
REMARK    2  A    between atoms: O_4  and  C_5
REMARK    3  A    between atoms: C_15  and  O_16
REMARK    4  A    between atoms: C_17  and  O_18
REMARK                            x       y       z     vdW  Elec       q    Type
REMARK                         _______ _______ _______ _____ _____    ______ ____
ROOT
ATOM      1  O   UNL     1       2.963   6.448  17.779  0.00  0.00    +0.000 OA
ATOM      2  C   UNL     1       3.592   5.518  18.271  0.00  0.00    +0.000 A 
ATOM      3  C   UNL     1       4.978   5.181  17.846  0.00  0.00    +0.000 A 
ATOM      4  C   UNL     1       5.577   4.149  18.462  0.00  0.00    +0.000 A 
ATOM      5  O   UNL     1       5.079   3.421  19.514  0.00  0.00    +0.000 OA
ATOM      6  C   UNL     1       3.788   3.673  19.901  0.00  0.00    +0.000 A 
ATOM      7  C   UNL     1       3.248   2.873  20.903  0.00  0.00    +0.000 A 
ATOM      8  C   UNL     1       1.923   3.042  21.293  0.00  0.00    +0.000 A 
ATOM      9  C   UNL     1       1.127   4.022  20.711  0.00  0.00    +0.000 A 
ATOM     10  C   UNL     1       1.672   4.848  19.725  0.00  0.00    +0.000 A 
ATOM     11  C   UNL     1       3.002   4.669  19.321  0.00  0.00    +0.000 A 
ENDROOT
BRANCH   7  12
ATOM     12  O   UNL     1       3.982   1.898  21.526  0.00  0.00    +0.000 OA
ATOM     13  H   UNL     1       3.860   2.025  22.485  0.00  0.00    +0.000 HD
ENDBRANCH   7  12
BRANCH   8  14
ATOM     14  O   UNL     1       1.388   2.233  22.253  0.00  0.00    +0.000 OA
ATOM     15  H   UNL     1       0.820   1.603  21.766  0.00  0.00    +0.000 HD
ENDBRANCH   8  14
BRANCH   3  16
ATOM     16  O   UNL     1       5.508   5.909  16.792  0.00  0.00    +0.000 OA
BRANCH  16  17
ATOM     17  C   UNL     1       5.801   5.293  15.598  0.00  0.00    +0.000 A 
ATOM     18  C   UNL     1       7.117   5.432  15.139  0.00  0.00    +0.000 A 
ATOM     19  C   UNL     1       7.505   4.822  13.943  0.00  0.00    +0.000 A 
ATOM     20  C   UNL     1       6.579   4.081  13.220  0.00  0.00    +0.000 A 
ATOM     21  F   UNL     1       6.947   3.507  12.067  0.00  0.00    +0.000 F 
ATOM     22  C   UNL     1       5.278   3.916  13.680  0.00  0.00    +0.000 A 
ATOM     23  C   UNL     1       4.894   4.503  14.885  0.00  0.00    +0.000 A 
ENDBRANCH  16  17
ENDBRANCH   3  16
TORSDOF 4
ENDMDL
MODEL 2
REMARK VINA RESULT:      -7.3      5.254      7.642
REMARK  Name = 
REMARK  4 active torsions:
REMARK  status: ('A' for Active; 'I' for Inactive)
REMARK    1  A    between atoms: C_3  and  O_4
REMARK    2  A    between atoms: O_4  and  C_5
REMARK    3  A    between atoms: C_15  and  O_16
REMARK    4  A    between atoms: C_17  and  O_18
REMARK                            x       y       z     vdW  Elec       q    Type
REMARK                         _______ _______ _______ _____ _____    ______ ____
ROOT
ATOM      1  O   UNL     1       1.182   8.267  21.752  0.00  0.00    +0.000 OA
ATOM      2  C   UNL     1       1.106   8.763  20.635  0.00  0.00    +0.000 A 
ATOM      3  C   UNL     1       1.794   8.175  19.453  0.00  0.00    +0.000 A 
ATOM      4  C   UNL     1       1.629   8.795  18.273  0.00  0.00    +0.000 A 
ATOM      5  O   UNL     1       0.816   9.872  18.019  0.00  0.00    +0.000 OA
ATOM      6  C   UNL     1       0.203  10.467  19.091  0.00  0.00    +0.000 A 
ATOM      7  C   UNL     1      -0.545  11.615  18.850  0.00  0.00    +0.000 A 
ATOM      8  C   UNL     1      -1.138  12.297  19.907  0.00  0.00    +0.000 A 
ATOM      9  C   UNL     1      -1.015  11.835  21.213  0.00  0.00    +0.000 A 
ATOM     10  C   UNL     1      -0.289  10.668  21.459  0.00  0.00    +0.000 A 
ATOM     11  C   UNL     1       0.321   9.988  20.395  0.00  0.00    +0.000 A 
ENDROOT
BRANCH   7  12
ATOM     12  O   UNL     1      -0.716  12.115  17.586  0.00  0.00    +0.000 OA
ATOM     13  H   UNL     1      -0.100  12.866  17.495  0.00  0.00    +0.000 HD
ENDBRANCH   7  12
BRANCH   8  14
ATOM     14  O   UNL     1      -1.844  13.440  19.670  0.00  0.00    +0.000 OA
ATOM     15  H   UNL     1      -2.775  13.151  19.588  0.00  0.00    +0.000 HD
ENDBRANCH   8  14
BRANCH   3  16
ATOM     16  O   UNL     1       2.613   7.081  19.682  0.00  0.00    +0.000 OA
BRANCH  16  17
ATOM     17  C   UNL     1       2.179   5.811  19.384  0.00  0.00    +0.000 A 
ATOM     18  C   UNL     1       1.588   5.099  20.435  0.00  0.00    +0.000 A 
ATOM     19  C   UNL     1       1.102   3.807  20.215  0.00  0.00    +0.000 A 
ATOM     20  C   UNL     1       1.209   3.242  18.950  0.00  0.00    +0.000 A 
ATOM     21  F   UNL     1       0.755   1.999  18.741  0.00  0.00    +0.000 F 
ATOM     22  C   UNL     1       1.771   3.950  17.894  0.00  0.00    +0.000 A 
ATOM     23  C   UNL     1       2.235   5.248  18.105  0.00  0.00    +0.000 A 
ENDBRANCH  16  17
ENDBRANCH   3  16
TORSDOF 4
ENDMDL
MODEL 3
REMARK VINA RESULT:      -7.2      0.130      1.064
REMARK  Name = 
REMARK  4 active torsions:
REMARK  status: ('A' for Active; 'I' for Inactive)
REMARK    1  A    between atoms: C_3  and  O_4
REMARK    2  A    between atoms: O_4  and  C_5
REMARK    3  A    between atoms: C_15  and  O_16
REMARK    4  A    between atoms: C_17  and  O_18
REMARK                            x       y       z     vdW  Elec       q    Type
REMARK                         _______ _______ _______ _____ _____    ______ ____
ROOT
ATOM      1  O   UNL     1       2.789   6.362  17.736  0.00  0.00    +0.000 OA
ATOM      2  C   UNL     1       3.473   5.465  18.213  0.00  0.00    +0.000 A 
ATOM      3  C   UNL     1       4.859   5.185  17.748  0.00  0.00    +0.000 A 
ATOM      4  C   UNL     1       5.521   4.185  18.352  0.00  0.00    +0.000 A 
ATOM      5  O   UNL     1       5.088   3.444  19.423  0.00  0.00    +0.000 OA
ATOM      6  C   UNL     1       3.800   3.643  19.849  0.00  0.00    +0.000 A 
ATOM      7  C   UNL     1       3.327   2.827  20.872  0.00  0.00    +0.000 A 
ATOM      8  C   UNL     1       2.008   2.941  21.302  0.00  0.00    +0.000 A 
ATOM      9  C   UNL     1       1.152   3.881  20.738  0.00  0.00    +0.000 A 
ATOM     10  C   UNL     1       1.630   4.722  19.731  0.00  0.00    +0.000 A 
ATOM     11  C   UNL     1       2.954   4.598  19.287  0.00  0.00    +0.000 A 
ENDROOT
BRANCH   7  12
ATOM     12  O   UNL     1       4.122   1.890  21.477  0.00  0.00    +0.000 OA
ATOM     13  H   UNL     1       3.899   1.030  21.075  0.00  0.00    +0.000 HD
ENDBRANCH   7  12
BRANCH   8  14
ATOM     14  O   UNL     1       1.538   2.117  22.283  0.00  0.00    +0.000 OA
ATOM     15  H   UNL     1       0.930   1.502  21.827  0.00  0.00    +0.000 HD
ENDBRANCH   8  14
BRANCH   3  16
ATOM     16  O   UNL     1       5.324   5.927  16.674  0.00  0.00    +0.000 OA
BRANCH  16  17
ATOM     17  C   UNL     1       5.795   5.298  15.545  0.00  0.00    +0.000 A 
ATOM     18  C   UNL     1       4.865   4.528  14.835  0.00  0.00    +0.000 A 
ATOM     19  C   UNL     1       5.254   3.870  13.666  0.00  0.00    +0.000 A 
ATOM     20  C   UNL     1       6.564   3.987  13.218  0.00  0.00    +0.000 A 
ATOM     21  F   UNL     1       6.941   3.346  12.103  0.00  0.00    +0.000 F 
ATOM     22  C   UNL     1       7.488   4.769  13.901  0.00  0.00    +0.000 A 
ATOM     23  C   UNL     1       7.095   5.447  15.055  0.00  0.00    +0.000 A 
ENDBRANCH  16  17
ENDBRANCH   3  16
TORSDOF 4
ENDMDL
MODEL 4
REMARK VINA RESULT:      -7.2      5.296      7.674
REMARK  Name = 
REMARK  4 active torsions:
REMARK  status: ('A' for Active; 'I' for Inactive)
REMARK    1  A    between atoms: C_3  and  O_4
REMARK    2  A    between atoms: O_4  and  C_5
REMARK    3  A    between atoms: C_15  and  O_16
REMARK    4  A    between atoms: C_17  and  O_18
REMARK                            x       y       z     vdW  Elec       q    Type
REMARK                         _______ _______ _______ _____ _____    ______ ____
ROOT
ATOM      1  O   UNL     1       1.270   8.382  21.644  0.00  0.00    +0.000 OA
ATOM      2  C   UNL     1       1.148   8.864  20.525  0.00  0.00    +0.000 A 
ATOM      3  C   UNL     1       1.792   8.266  19.324  0.00  0.00    +0.000 A 
ATOM      4  C   UNL     1       1.579   8.871  18.145  0.00  0.00    +0.000 A 
ATOM      5  O   UNL     1       0.752   9.942  17.910  0.00  0.00    +0.000 OA
ATOM      6  C   UNL     1       0.179  10.547  18.998  0.00  0.00    +0.000 A 
ATOM      7  C   UNL     1      -0.583  11.689  18.773  0.00  0.00    +0.000 A 
ATOM      8  C   UNL     1      -1.138  12.381  19.845  0.00  0.00    +0.000 A 
ATOM      9  C   UNL     1      -0.961  11.935  21.150  0.00  0.00    +0.000 A 
ATOM     10  C   UNL     1      -0.221  10.773  21.381  0.00  0.00    +0.000 A 
ATOM     11  C   UNL     1       0.349  10.083  20.302  0.00  0.00    +0.000 A 
ENDROOT
BRANCH   7  12
ATOM     12  O   UNL     1      -0.806  12.173  17.511  0.00  0.00    +0.000 OA
ATOM     13  H   UNL     1      -1.527  12.827  17.584  0.00  0.00    +0.000 HD
ENDBRANCH   7  12
BRANCH   8  14
ATOM     14  O   UNL     1      -1.857  13.519  19.622  0.00  0.00    +0.000 OA
ATOM     15  H   UNL     1      -1.587  13.820  18.732  0.00  0.00    +0.000 HD
ENDBRANCH   8  14
BRANCH   3  16
ATOM     16  O   UNL     1       2.625   7.177  19.533  0.00  0.00    +0.000 OA
BRANCH  16  17
ATOM     17  C   UNL     1       2.142   5.896  19.405  0.00  0.00    +0.000 A 
ATOM     18  C   UNL     1       2.228   5.330  18.127  0.00  0.00    +0.000 A 
ATOM     19  C   UNL     1       1.777   4.025  17.912  0.00  0.00    +0.000 A 
ATOM     20  C   UNL     1       1.247   3.300  18.972  0.00  0.00    +0.000 A 
ATOM     21  F   UNL     1       0.803   2.053  18.764  0.00  0.00    +0.000 F 
ATOM     22  C   UNL     1       1.180   3.844  20.249  0.00  0.00    +0.000 A 
ATOM     23  C   UNL     1       1.652   5.138  20.472  0.00  0.00    +0.000 A 
ENDBRANCH  16  17
ENDBRANCH   3  16
TORSDOF 4
ENDMDL
MODEL 5
REMARK VINA RESULT:      -7.0      5.747      7.871
REMARK  Name = 
REMARK  4 active torsions:
REMARK  status: ('A' for Active; 'I' for Inactive)
REMARK    1  A    between atoms: C_3  and  O_4
REMARK    2  A    between atoms: O_4  and  C_5
REMARK    3  A    between atoms: C_15  and  O_16
REMARK    4  A    between atoms: C_17  and  O_18
REMARK                            x       y       z     vdW  Elec       q    Type
REMARK                         _______ _______ _______ _____ _____    ______ ____
ROOT
ATOM      1  O   UNL     1       2.126   9.382  17.372  0.00  0.00    +0.000 OA
ATOM      2  C   UNL     1       1.946   8.797  18.433  0.00  0.00    +0.000 A 
ATOM      3  C   UNL     1       1.122   9.373  19.530  0.00  0.00    +0.000 A 
ATOM      4  C   UNL     1       0.982   8.638  20.646  0.00  0.00    +0.000 A 
ATOM      5  O   UNL     1       1.447   7.362  20.852  0.00  0.00    +0.000 OA
ATOM      6  C   UNL     1       2.248   6.819  19.881  0.00  0.00    +0.000 A 
ATOM      7  C   UNL     1       2.798   5.565  20.128  0.00  0.00    +0.000 A 
ATOM      8  C   UNL     1       3.668   4.991  19.207  0.00  0.00    +0.000 A 
ATOM      9  C   UNL     1       3.985   5.643  18.021  0.00  0.00    +0.000 A 
ATOM     10  C   UNL     1       3.413   6.890  17.754  0.00  0.00    +0.000 A 
ATOM     11  C   UNL     1       2.547   7.475  18.687  0.00  0.00    +0.000 A 
ENDROOT
BRANCH   7  12
ATOM     12  O   UNL     1       2.517   4.863  21.271  0.00  0.00    +0.000 OA
ATOM     13  H   UNL     1       3.366   4.512  21.600  0.00  0.00    +0.000 HD
ENDBRANCH   7  12
BRANCH   8  14
ATOM     14  O   UNL     1       4.231   3.775  19.468  0.00  0.00    +0.000 OA
ATOM     15  H   UNL     1       3.571   3.120  19.167  0.00  0.00    +0.000 HD
ENDBRANCH   8  14
BRANCH   3  16
ATOM     16  O   UNL     1       0.633  10.656  19.343  0.00  0.00    +0.000 OA
BRANCH  16  17
ATOM     17  C   UNL     1      -0.672  10.854  18.958  0.00  0.00    +0.000 A 
ATOM     18  C   UNL     1      -1.370  11.861  19.636  0.00  0.00    +0.000 A 
ATOM     19  C   UNL     1      -2.695  12.141  19.295  0.00  0.00    +0.000 A 
ATOM     20  C   UNL     1      -3.310  11.416  18.282  0.00  0.00    +0.000 A 
ATOM     21  F   UNL     1      -4.585  11.676  17.963  0.00  0.00    +0.000 F 
ATOM     22  C   UNL     1      -2.618  10.432  17.586  0.00  0.00    +0.000 A 
ATOM     23  C   UNL     1      -1.287  10.166  17.908  0.00  0.00    +0.000 A 
ENDBRANCH  16  17
ENDBRANCH   3  16
TORSDOF 4
ENDMDL
MODEL 6
REMARK VINA RESULT:      -7.0      5.198      7.370
REMARK  Name = 
REMARK  4 active torsions:
REMARK  status: ('A' for Active; 'I' for Inactive)
REMARK    1  A    between atoms: C_3  and  O_4
REMARK    2  A    between atoms: O_4  and  C_5
REMARK    3  A    between atoms: C_15  and  O_16
REMARK    4  A    between atoms: C_17  and  O_18
REMARK                            x       y       z     vdW  Elec       q    Type
REMARK                         _______ _______ _______ _____ _____    ______ ____
ROOT
ATOM      1  O   UNL     1       1.884   8.704  17.810  0.00  0.00    +0.000 OA
ATOM      2  C   UNL     1       1.459   8.826  18.953  0.00  0.00    +0.000 A 
ATOM      3  C   UNL     1       1.858   7.908  20.054  0.00  0.00    +0.000 A 
ATOM      4  C   UNL     1       1.340   8.144  21.270  0.00  0.00    +0.000 A 
ATOM      5  O   UNL     1       0.545   9.203  21.632  0.00  0.00    +0.000 OA
ATOM      6  C   UNL     1       0.120  10.042  20.635  0.00  0.00    +0.000 A 
ATOM      7  C   UNL     1      -0.763  11.060  20.982  0.00  0.00    +0.000 A 
ATOM      8  C   UNL     1      -1.276  11.904  20.002  0.00  0.00    +0.000 A 
ATOM      9  C   UNL     1      -0.902  11.762  18.670  0.00  0.00    +0.000 A 
ATOM     10  C   UNL     1       0.006  10.760  18.319  0.00  0.00    +0.000 A 
ATOM     11  C   UNL     1       0.513   9.901  19.304  0.00  0.00    +0.000 A 
ENDROOT
BRANCH   7  12
ATOM     12  O   UNL     1      -1.161  11.262  22.277  0.00  0.00    +0.000 OA
ATOM     13  H   UNL     1      -0.411  11.681  22.739  0.00  0.00    +0.000 HD
ENDBRANCH   7  12
BRANCH   8  14
ATOM     14  O   UNL     1      -2.166  12.881  20.342  0.00  0.00    +0.000 OA
ATOM     15  H   UNL     1      -2.595  13.138  19.501  0.00  0.00    +0.000 HD
ENDBRANCH   8  14
BRANCH   3  16
ATOM     16  O   UNL     1       2.669   6.836  19.717  0.00  0.00    +0.000 OA
BRANCH  16  17
ATOM     17  C   UNL     1       2.125   5.592  19.500  0.00  0.00    +0.000 A 
ATOM     18  C   UNL     1       2.179   5.116  18.185  0.00  0.00    +0.000 A 
ATOM     19  C   UNL     1       1.665   3.853  17.879  0.00  0.00    +0.000 A 
ATOM     20  C   UNL     1       1.104   3.080  18.888  0.00  0.00    +0.000 A 
ATOM     21  F   UNL     1       0.600   1.874  18.594  0.00  0.00    +0.000 F 
ATOM     22  C   UNL     1       1.068   3.533  20.201  0.00  0.00    +0.000 A 
ATOM     23  C   UNL     1       1.602   4.783  20.514  0.00  0.00    +0.000 A 
ENDBRANCH  16  17
ENDBRANCH   3  16
TORSDOF 4
ENDMDL
MODEL 7
REMARK VINA RESULT:      -6.9      4.578      6.033
REMARK  Name = 
REMARK  4 active torsions:
REMARK  status: ('A' for Active; 'I' for Inactive)
REMARK    1  A    between atoms: C_3  and  O_4
REMARK    2  A    between atoms: O_4  and  C_5
REMARK    3  A    between atoms: C_15  and  O_16
REMARK    4  A    between atoms: C_17  and  O_18
REMARK                            x       y       z     vdW  Elec       q    Type
REMARK                         _______ _______ _______ _____ _____    ______ ____
ROOT
ATOM      1  O   UNL     1       1.946   9.415  17.513  0.00  0.00    +0.000 OA
ATOM      2  C   UNL     1       1.731   8.910  18.609  0.00  0.00    +0.000 A 
ATOM      3  C   UNL     1       2.293   7.590  19.002  0.00  0.00    +0.000 A 
ATOM      4  C   UNL     1       2.003   7.139  20.233  0.00  0.00    +0.000 A 
ATOM      5  O   UNL     1       1.310   7.810  21.210  0.00  0.00    +0.000 OA
ATOM      6  C   UNL     1       0.740   9.009  20.869  0.00  0.00    +0.000 A 
ATOM      7  C   UNL     1      -0.042   9.646  21.828  0.00  0.00    +0.000 A 
ATOM      8  C   UNL     1      -0.696  10.834  21.517  0.00  0.00    +0.000 A 
ATOM      9  C   UNL     1      -0.566  11.414  20.261  0.00  0.00    +0.000 A 
ATOM     10  C   UNL     1       0.240  10.794  19.303  0.00  0.00    +0.000 A 
ATOM     11  C   UNL     1       0.889   9.590  19.610  0.00  0.00    +0.000 A 
ENDROOT
BRANCH   7  12
ATOM     12  O   UNL     1      -0.202   9.134  23.089  0.00  0.00    +0.000 OA
ATOM     13  H   UNL     1      -0.631   9.830  23.621  0.00  0.00    +0.000 HD
ENDBRANCH   7  12
BRANCH   8  14
ATOM     14  O   UNL     1      -1.488  11.439  22.450  0.00  0.00    +0.000 OA
ATOM     15  H   UNL     1      -0.976  11.398  23.283  0.00  0.00    +0.000 HD
ENDBRANCH   8  14
BRANCH   3  16
ATOM     16  O   UNL     1       3.004   6.896  18.035  0.00  0.00    +0.000 OA
BRANCH  16  17
ATOM     17  C   UNL     1       3.007   5.520  18.027  0.00  0.00    +0.000 A 
ATOM     18  C   UNL     1       4.226   4.905  18.339  0.00  0.00    +0.000 A 
ATOM     19  C   UNL     1       4.314   3.511  18.372  0.00  0.00    +0.000 A 
ATOM     20  C   UNL     1       3.187   2.747  18.093  0.00  0.00    +0.000 A 
ATOM     21  F   UNL     1       3.273   1.410  18.112  0.00  0.00    +0.000 F 
ATOM     22  C   UNL     1       1.967   3.348  17.807  0.00  0.00    +0.000 A 
ATOM     23  C   UNL     1       1.870   4.740  17.798  0.00  0.00    +0.000 A 
ENDBRANCH  16  17
ENDBRANCH   3  16
TORSDOF 4
ENDMDL
MODEL 8
REMARK VINA RESULT:      -6.9      5.168      7.354
REMARK  Name = 
REMARK  4 active torsions:
REMARK  status: ('A' for Active; 'I' for Inactive)
REMARK    1  A    between atoms: C_3  and  O_4
REMARK    2  A    between atoms: O_4  and  C_5
REMARK    3  A    between atoms: C_15  and  O_16
REMARK    4  A    between atoms: C_17  and  O_18
REMARK                            x       y       z     vdW  Elec       q    Type
REMARK                         _______ _______ _______ _____ _____    ______ ____
ROOT
ATOM      1  O   UNL     1       1.930   8.631  17.805  0.00  0.00    +0.000 OA
ATOM      2  C   UNL     1       1.497   8.772  18.942  0.00  0.00    +0.000 A 
ATOM      3  C   UNL     1       1.906   7.885  20.065  0.00  0.00    +0.000 A 
ATOM      4  C   UNL     1       1.379   8.140  21.274  0.00  0.00    +0.000 A 
ATOM      5  O   UNL     1       0.565   9.193  21.609  0.00  0.00    +0.000 OA
ATOM      6  C   UNL     1       0.132  10.004  20.591  0.00  0.00    +0.000 A 
ATOM      7  C   UNL     1      -0.769  11.015  20.912  0.00  0.00    +0.000 A 
ATOM      8  C   UNL     1      -1.290  11.828  19.911  0.00  0.00    +0.000 A 
ATOM      9  C   UNL     1      -0.908  11.663  18.585  0.00  0.00    +0.000 A 
ATOM     10  C   UNL     1       0.017  10.668  18.260  0.00  0.00    +0.000 A 
ATOM     11  C   UNL     1       0.533   9.839  19.266  0.00  0.00    +0.000 A 
ENDROOT
BRANCH   7  12
ATOM     12  O   UNL     1      -1.176  11.239  22.201  0.00  0.00    +0.000 OA
ATOM     13  H   UNL     1      -2.074  11.619  22.149  0.00  0.00    +0.000 HD
ENDBRANCH   7  12
BRANCH   8  14
ATOM     14  O   UNL     1      -2.198  12.798  20.226  0.00  0.00    +0.000 OA
ATOM     15  H   UNL     1      -2.058  13.502  19.561  0.00  0.00    +0.000 HD
ENDBRANCH   8  14
BRANCH   3  16
ATOM     16  O   UNL     1       2.735   6.819  19.756  0.00  0.00    +0.000 OA
BRANCH  16  17
ATOM     17  C   UNL     1       2.202   5.599  19.410  0.00  0.00    +0.000 A 
ATOM     18  C   UNL     1       1.626   4.861  20.452  0.00  0.00    +0.000 A 
ATOM     19  C   UNL     1       1.045   3.619  20.186  0.00  0.00    +0.000 A 
ATOM     20  C   UNL     1       1.043   3.127  18.886  0.00  0.00    +0.000 A 
ATOM     21  F   UNL     1       0.497   1.931  18.632  0.00  0.00    +0.000 F 
ATOM     22  C   UNL     1       1.590   3.864  17.842  0.00  0.00    +0.000 A 
ATOM     23  C   UNL     1       2.149   5.115  18.100  0.00  0.00    +0.000 A 
ENDBRANCH  16  17
ENDBRANCH   3  16
TORSDOF 4
ENDMDL
MODEL 9
REMARK VINA RESULT:      -6.9      2.127      2.878
REMARK  Name = 
REMARK  4 active torsions:
REMARK  status: ('A' for Active; 'I' for Inactive)
REMARK    1  A    between atoms: C_3  and  O_4
REMARK    2  A    between atoms: O_4  and  C_5
REMARK    3  A    between atoms: C_15  and  O_16
REMARK    4  A    between atoms: C_17  and  O_18
REMARK                            x       y       z     vdW  Elec       q    Type
REMARK                         _______ _______ _______ _____ _____    ______ ____
ROOT
ATOM      1  O   UNL     1       5.222   7.376  15.497  0.00  0.00    +0.000 OA
ATOM      2  C   UNL     1       5.308   6.547  16.395  0.00  0.00    +0.000 A 
ATOM      3  C   UNL     1       6.358   5.492  16.408  0.00  0.00    +0.000 A 
ATOM      4  C   UNL     1       6.366   4.644  17.450  0.00  0.00    +0.000 A 
ATOM      5  O   UNL     1       5.559   4.700  18.560  0.00  0.00    +0.000 OA
ATOM      6  C   UNL     1       4.552   5.630  18.561  0.00  0.00    +0.000 A 
ATOM      7  C   UNL     1       3.674   5.628  19.640  0.00  0.00    +0.000 A 
ATOM      8  C   UNL     1       2.596   6.507  19.666  0.00  0.00    +0.000 A 
ATOM      9  C   UNL     1       2.390   7.414  18.632  0.00  0.00    +0.000 A 
ATOM     10  C   UNL     1       3.284   7.442  17.559  0.00  0.00    +0.000 A 
ATOM     11  C   UNL     1       4.362   6.547  17.526  0.00  0.00    +0.000 A 
ENDROOT
BRANCH   7  12
ATOM     12  O   UNL     1       3.827   4.768  20.696  0.00  0.00    +0.000 OA
ATOM     13  H   UNL     1       3.109   4.112  20.630  0.00  0.00    +0.000 HD
ENDBRANCH   7  12
BRANCH   8  14
ATOM     14  O   UNL     1       1.719   6.479  20.711  0.00  0.00    +0.000 OA
ATOM     15  H   UNL     1       1.729   5.553  21.026  0.00  0.00    +0.000 HD
ENDBRANCH   8  14
BRANCH   3  16
ATOM     16  O   UNL     1       7.192   5.420  15.304  0.00  0.00    +0.000 OA
BRANCH  16  17
ATOM     17  C   UNL     1       6.813   4.707  14.191  0.00  0.00    +0.000 A 
ATOM     18  C   UNL     1       5.574   4.058  14.266  0.00  0.00    +0.000 A 
ATOM     19  C   UNL     1       5.104   3.326  13.173  0.00  0.00    +0.000 A 
ATOM     20  C   UNL     1       5.872   3.250  12.018  0.00  0.00    +0.000 A 
ATOM     21  F   UNL     1       5.427   2.538  10.974  0.00  0.00    +0.000 F 
ATOM     22  C   UNL     1       7.091   3.911  11.924  0.00  0.00    +0.000 A 
ATOM     23  C   UNL     1       7.552   4.663  13.005  0.00  0.00    +0.000 A 
ENDBRANCH  16  17
ENDBRANCH   3  16
TORSDOF 4
ENDMDL
