MODEL 1
REMARK VINA RESULT:      -7.6      0.000      0.000
REMARK  Name = 
REMARK  4 active torsions:
REMARK  status: ('A' for Active; 'I' for Inactive)
REMARK    1  A    between atoms: C_1  and  O_2
REMARK    2  A    between atoms: O_2  and  C_3
REMARK    3  A    between atoms: N_5  and  C_6
REMARK    4  A    between atoms: C_7  and  C_8
REMARK                            x       y       z     vdW  Elec       q    Type
REMARK                         _______ _______ _______ _____ _____    ______ ____
ROOT
ATOM      1  C   UNL     1       2.511   6.810  19.612  0.00  0.00    +0.000 A 
ATOM      2  C   UNL     1       2.947   6.980  18.312  0.00  0.00    +0.000 A 
ATOM      3  N   UNL     1       2.509   8.177  17.801  0.00  0.00    +0.000 NA
ATOM      4  C   UNL     1       1.794   8.731  18.752  0.00  0.00    +0.000 A 
ATOM      5  C   UNL     1       1.114   9.982  18.800  0.00  0.00    +0.000 A 
ATOM      6  C   UNL     1       0.500  10.366  19.936  0.00  0.00    +0.000 A 
ATOM      7  C   UNL     1       0.513   9.531  21.128  0.00  0.00    +0.000 A 
ATOM      8  C   UNL     1       1.133   8.341  21.083  0.00  0.00    +0.000 A 
ATOM      9  N   UNL     1       1.753   7.936  19.898  0.00  0.00    +0.000 N 
ENDROOT
BRANCH   2  10
ATOM     10  C   UNL     1       3.732   6.034  17.534  0.00  0.00    +0.000 A 
ATOM     11  C   UNL     1       3.411   4.669  17.506  0.00  0.00    +0.000 A 
ATOM     12  C   UNL     1       4.189   3.769  16.775  0.00  0.00    +0.000 A 
ATOM     13  C   UNL     1       5.275   4.233  16.037  0.00  0.00    +0.000 A 
ATOM     14  C   UNL     1       5.583   5.593  16.027  0.00  0.00    +0.000 A 
ATOM     15  C   UNL     1       4.811   6.492  16.769  0.00  0.00    +0.000 A 
ENDBRANCH   2  10
BRANCH   1  18
ATOM     16  C   UNL     1       1.938   4.726  20.763  0.00  0.00    +0.000 C 
ATOM     17  O   UNL     1       0.780   4.755  20.389  0.00  0.00    +0.000 OA
ATOM     18  N   UNL     1       2.854   5.759  20.445  0.00  0.00    +0.000 N 
ATOM     19  H   UNL     1       3.837   5.547  20.581  0.00  0.00    +0.000 HD
BRANCH  16  21
ATOM     20  C   UNL     1       1.764   2.572  21.642  0.00  0.00    +0.000 C 
ATOM     21  O   UNL     1       2.569   3.727  21.419  0.00  0.00    +0.000 OA
ENDBRANCH  16  21
ENDBRANCH   1  18
TORSDOF 3
ENDMDL
MODEL 2
REMARK VINA RESULT:      -7.5      0.085      1.081
REMARK  Name = 
REMARK  4 active torsions:
REMARK  status: ('A' for Active; 'I' for Inactive)
REMARK    1  A    between atoms: C_1  and  O_2
REMARK    2  A    between atoms: O_2  and  C_3
REMARK    3  A    between atoms: N_5  and  C_6
REMARK    4  A    between atoms: C_7  and  C_8
REMARK                            x       y       z     vdW  Elec       q    Type
REMARK                         _______ _______ _______ _____ _____    ______ ____
ROOT
ATOM      1  C   UNL     1       2.481   6.851  19.652  0.00  0.00    +0.000 A 
ATOM      2  C   UNL     1       2.929   7.014  18.356  0.00  0.00    +0.000 A 
ATOM      3  N   UNL     1       2.486   8.203  17.830  0.00  0.00    +0.000 NA
ATOM      4  C   UNL     1       1.757   8.758  18.769  0.00  0.00    +0.000 A 
ATOM      5  C   UNL     1       1.065  10.004  18.799  0.00  0.00    +0.000 A 
ATOM      6  C   UNL     1       0.437  10.393  19.925  0.00  0.00    +0.000 A 
ATOM      7  C   UNL     1       0.446   9.569  21.125  0.00  0.00    +0.000 A 
ATOM      8  C   UNL     1       1.076   8.383  21.096  0.00  0.00    +0.000 A 
ATOM      9  N   UNL     1       1.711   7.973  19.921  0.00  0.00    +0.000 N 
ENDROOT
BRANCH   2  10
ATOM     10  C   UNL     1       3.729   6.068  17.594  0.00  0.00    +0.000 A 
ATOM     11  C   UNL     1       4.898   6.470  16.932  0.00  0.00    +0.000 A 
ATOM     12  C   UNL     1       5.643   5.556  16.184  0.00  0.00    +0.000 A 
ATOM     13  C   UNL     1       5.243   4.223  16.119  0.00  0.00    +0.000 A 
ATOM     14  C   UNL     1       4.102   3.804  16.803  0.00  0.00    +0.000 A 
ATOM     15  C   UNL     1       3.351   4.721  17.542  0.00  0.00    +0.000 A 
ENDBRANCH   2  10
BRANCH   1  18
ATOM     16  C   UNL     1       1.921   4.762  20.800  0.00  0.00    +0.000 C 
ATOM     17  O   UNL     1       0.772   4.768  20.401  0.00  0.00    +0.000 OA
ATOM     18  N   UNL     1       2.825   5.811  20.498  0.00  0.00    +0.000 N 
ATOM     19  H   UNL     1       3.808   5.618  20.657  0.00  0.00    +0.000 HD
BRANCH  16  21
ATOM     20  C   UNL     1       1.796   2.580  21.617  0.00  0.00    +0.000 C 
ATOM     21  O   UNL     1       2.556   3.778  21.476  0.00  0.00    +0.000 OA
ENDBRANCH  16  21
ENDBRANCH   1  18
TORSDOF 3
ENDMDL
MODEL 3
REMARK VINA RESULT:      -7.5      3.792      5.529
REMARK  Name = 
REMARK  4 active torsions:
REMARK  status: ('A' for Active; 'I' for Inactive)
REMARK    1  A    between atoms: C_1  and  O_2
REMARK    2  A    between atoms: O_2  and  C_3
REMARK    3  A    between atoms: N_5  and  C_6
REMARK    4  A    between atoms: C_7  and  C_8
REMARK                            x       y       z     vdW  Elec       q    Type
REMARK                         _______ _______ _______ _____ _____    ______ ____
ROOT
ATOM      1  C   UNL     1       4.372   3.973  17.830  0.00  0.00    +0.000 A 
ATOM      2  C   UNL     1       4.733   5.035  18.637  0.00  0.00    +0.000 A 
ATOM      3  N   UNL     1       3.786   5.257  19.608  0.00  0.00    +0.000 NA
ATOM      4  C   UNL     1       2.843   4.369  19.395  0.00  0.00    +0.000 A 
ATOM      5  C   UNL     1       1.631   4.109  20.097  0.00  0.00    +0.000 A 
ATOM      6  C   UNL     1       0.850   3.078  19.724  0.00  0.00    +0.000 A 
ATOM      7  C   UNL     1       1.213   2.210  18.613  0.00  0.00    +0.000 A 
ATOM      8  C   UNL     1       2.343   2.464  17.932  0.00  0.00    +0.000 A 
ATOM      9  N   UNL     1       3.143   3.546  18.309  0.00  0.00    +0.000 N 
ENDROOT
BRANCH   2  10
ATOM     10  C   UNL     1       5.922   5.861  18.497  0.00  0.00    +0.000 A 
ATOM     11  C   UNL     1       7.091   5.585  19.221  0.00  0.00    +0.000 A 
ATOM     12  C   UNL     1       8.216   6.402  19.094  0.00  0.00    +0.000 A 
ATOM     13  C   UNL     1       8.193   7.483  18.217  0.00  0.00    +0.000 A 
ATOM     14  C   UNL     1       7.049   7.746  17.463  0.00  0.00    +0.000 A 
ATOM     15  C   UNL     1       5.919   6.935  17.599  0.00  0.00    +0.000 A 
ENDBRANCH   2  10
BRANCH   1  18
ATOM     16  C   UNL     1       5.307   4.078  15.569  0.00  0.00    +0.000 C 
ATOM     17  O   UNL     1       4.704   5.096  15.290  0.00  0.00    +0.000 OA
ATOM     18  N   UNL     1       5.147   3.430  16.820  0.00  0.00    +0.000 N 
ATOM     19  H   UNL     1       5.850   2.741  17.064  0.00  0.00    +0.000 HD
BRANCH  16  21
ATOM     20  C   UNL     1       6.236   3.773  13.451  0.00  0.00    +0.000 C 
ATOM     21  O   UNL     1       6.261   3.456  14.840  0.00  0.00    +0.000 OA
ENDBRANCH  16  21
ENDBRANCH   1  18
TORSDOF 3
ENDMDL
MODEL 4
REMARK VINA RESULT:      -7.5      3.785      5.560
REMARK  Name = 
REMARK  4 active torsions:
REMARK  status: ('A' for Active; 'I' for Inactive)
REMARK    1  A    between atoms: C_1  and  O_2
REMARK    2  A    between atoms: O_2  and  C_3
REMARK    3  A    between atoms: N_5  and  C_6
REMARK    4  A    between atoms: C_7  and  C_8
REMARK                            x       y       z     vdW  Elec       q    Type
REMARK                         _______ _______ _______ _____ _____    ______ ____
ROOT
ATOM      1  C   UNL     1       4.351   3.966  17.828  0.00  0.00    +0.000 A 
ATOM      2  C   UNL     1       4.707   5.038  18.624  0.00  0.00    +0.000 A 
ATOM      3  N   UNL     1       3.760   5.264  19.593  0.00  0.00    +0.000 NA
ATOM      4  C   UNL     1       2.822   4.370  19.390  0.00  0.00    +0.000 A 
ATOM      5  C   UNL     1       1.611   4.111  20.095  0.00  0.00    +0.000 A 
ATOM      6  C   UNL     1       0.835   3.072  19.733  0.00  0.00    +0.000 A 
ATOM      7  C   UNL     1       1.202   2.195  18.630  0.00  0.00    +0.000 A 
ATOM      8  C   UNL     1       2.330   2.448  17.947  0.00  0.00    +0.000 A 
ATOM      9  N   UNL     1       3.124   3.537  18.312  0.00  0.00    +0.000 N 
ENDROOT
BRANCH   2  10
ATOM     10  C   UNL     1       5.892   5.868  18.475  0.00  0.00    +0.000 A 
ATOM     11  C   UNL     1       5.907   6.967  17.605  0.00  0.00    +0.000 A 
ATOM     12  C   UNL     1       7.060   7.740  17.454  0.00  0.00    +0.000 A 
ATOM     13  C   UNL     1       8.199   7.440  18.198  0.00  0.00    +0.000 A 
ATOM     14  C   UNL     1       8.185   6.371  19.094  0.00  0.00    +0.000 A 
ATOM     15  C   UNL     1       7.034   5.591  19.236  0.00  0.00    +0.000 A 
ENDBRANCH   2  10
BRANCH   1  18
ATOM     16  C   UNL     1       5.300   4.062  15.573  0.00  0.00    +0.000 C 
ATOM     17  O   UNL     1       4.706   5.084  15.289  0.00  0.00    +0.000 OA
ATOM     18  N   UNL     1       5.129   3.417  16.823  0.00  0.00    +0.000 N 
ATOM     19  H   UNL     1       5.826   2.723  17.072  0.00  0.00    +0.000 HD
BRANCH  16  21
ATOM     20  C   UNL     1       6.250   3.762  13.463  0.00  0.00    +0.000 C 
ATOM     21  O   UNL     1       6.254   3.433  14.850  0.00  0.00    +0.000 OA
ENDBRANCH  16  21
ENDBRANCH   1  18
TORSDOF 3
ENDMDL
MODEL 5
REMARK VINA RESULT:      -7.5      2.585      4.792
REMARK  Name = 
REMARK  4 active torsions:
REMARK  status: ('A' for Active; 'I' for Inactive)
REMARK    1  A    between atoms: C_1  and  O_2
REMARK    2  A    between atoms: O_2  and  C_3
REMARK    3  A    between atoms: N_5  and  C_6
REMARK    4  A    between atoms: C_7  and  C_8
REMARK                            x       y       z     vdW  Elec       q    Type
REMARK                         _______ _______ _______ _____ _____    ______ ____
ROOT
ATOM      1  C   UNL     1       3.359   5.209  19.263  0.00  0.00    +0.000 A 
ATOM      2  C   UNL     1       4.510   4.858  18.585  0.00  0.00    +0.000 A 
ATOM      3  N   UNL     1       4.423   3.574  18.103  0.00  0.00    +0.000 NA
ATOM      4  C   UNL     1       3.254   3.125  18.494  0.00  0.00    +0.000 A 
ATOM      5  C   UNL     1       2.613   1.873  18.270  0.00  0.00    +0.000 A 
ATOM      6  C   UNL     1       1.359   1.673  18.719  0.00  0.00    +0.000 A 
ATOM      7  C   UNL     1       0.632   2.712  19.433  0.00  0.00    +0.000 A 
ATOM      8  C   UNL     1       1.238   3.887  19.668  0.00  0.00    +0.000 A 
ATOM      9  N   UNL     1       2.546   4.086  19.218  0.00  0.00    +0.000 N 
ENDROOT
BRANCH   2  10
ATOM     10  C   UNL     1       5.694   5.684  18.410  0.00  0.00    +0.000 A 
ATOM     11  C   UNL     1       6.836   5.499  19.203  0.00  0.00    +0.000 A 
ATOM     12  C   UNL     1       7.957   6.316  19.040  0.00  0.00    +0.000 A 
ATOM     13  C   UNL     1       7.957   7.305  18.059  0.00  0.00    +0.000 A 
ATOM     14  C   UNL     1       6.841   7.475  17.239  0.00  0.00    +0.000 A 
ATOM     15  C   UNL     1       5.716   6.664  17.411  0.00  0.00    +0.000 A 
ENDBRANCH   2  10
BRANCH   1  18
ATOM     16  C   UNL     1       2.380   7.443  19.048  0.00  0.00    +0.000 C 
ATOM     17  O   UNL     1       2.059   7.268  17.887  0.00  0.00    +0.000 OA
ATOM     18  N   UNL     1       3.083   6.460  19.788  0.00  0.00    +0.000 N 
ATOM     19  H   UNL     1       3.098   6.579  20.795  0.00  0.00    +0.000 HD
BRANCH  16  21
ATOM     20  C   UNL     1       1.318   8.137  21.005  0.00  0.00    +0.000 C 
ATOM     21  O   UNL     1       2.065   8.489  19.843  0.00  0.00    +0.000 OA
ENDBRANCH  16  21
ENDBRANCH   1  18
TORSDOF 3
ENDMDL
MODEL 6
REMARK VINA RESULT:      -7.5      1.526      5.205
REMARK  Name = 
REMARK  4 active torsions:
REMARK  status: ('A' for Active; 'I' for Inactive)
REMARK    1  A    between atoms: C_1  and  O_2
REMARK    2  A    between atoms: O_2  and  C_3
REMARK    3  A    between atoms: N_5  and  C_6
REMARK    4  A    between atoms: C_7  and  C_8
REMARK                            x       y       z     vdW  Elec       q    Type
REMARK                         _______ _______ _______ _____ _____    ______ ____
ROOT
ATOM      1  C   UNL     1       3.184   5.470  18.270  0.00  0.00    +0.000 A 
ATOM      2  C   UNL     1       3.100   6.846  18.182  0.00  0.00    +0.000 A 
ATOM      3  N   UNL     1       3.977   7.332  17.243  0.00  0.00    +0.000 NA
ATOM      4  C   UNL     1       4.613   6.285  16.774  0.00  0.00    +0.000 A 
ATOM      5  C   UNL     1       5.616   6.175  15.768  0.00  0.00    +0.000 A 
ATOM      6  C   UNL     1       6.068   4.960  15.403  0.00  0.00    +0.000 A 
ATOM      7  C   UNL     1       5.554   3.742  16.013  0.00  0.00    +0.000 A 
ATOM      8  C   UNL     1       4.625   3.839  16.978  0.00  0.00    +0.000 A 
ATOM      9  N   UNL     1       4.171   5.102  17.368  0.00  0.00    +0.000 N 
ENDROOT
BRANCH   2  10
ATOM     10  C   UNL     1       2.244   7.711  18.978  0.00  0.00    +0.000 A 
ATOM     11  C   UNL     1       1.985   7.438  20.329  0.00  0.00    +0.000 A 
ATOM     12  C   UNL     1       1.141   8.264  21.075  0.00  0.00    +0.000 A 
ATOM     13  C   UNL     1       0.575   9.391  20.484  0.00  0.00    +0.000 A 
ATOM     14  C   UNL     1       0.855   9.695  19.151  0.00  0.00    +0.000 A 
ATOM     15  C   UNL     1       1.690   8.861  18.403  0.00  0.00    +0.000 A 
ENDBRANCH   2  10
BRANCH   1  18
ATOM     16  C   UNL     1       1.333   3.881  18.482  0.00  0.00    +0.000 C 
ATOM     17  O   UNL     1       1.049   3.946  17.301  0.00  0.00    +0.000 OA
ATOM     18  N   UNL     1       2.372   4.662  19.047  0.00  0.00    +0.000 N 
ATOM     19  H   UNL     1       2.702   4.379  19.963  0.00  0.00    +0.000 HD
BRANCH  16  21
ATOM     20  C   UNL     1       1.234   3.322  20.745  0.00  0.00    +0.000 C 
ATOM     21  O   UNL     1       0.826   3.037  19.409  0.00  0.00    +0.000 OA
ENDBRANCH  16  21
ENDBRANCH   1  18
TORSDOF 3
ENDMDL
MODEL 7
REMARK VINA RESULT:      -7.5      1.599      5.319
REMARK  Name = 
REMARK  4 active torsions:
REMARK  status: ('A' for Active; 'I' for Inactive)
REMARK    1  A    between atoms: C_1  and  O_2
REMARK    2  A    between atoms: O_2  and  C_3
REMARK    3  A    between atoms: N_5  and  C_6
REMARK    4  A    between atoms: C_7  and  C_8
REMARK                            x       y       z     vdW  Elec       q    Type
REMARK                         _______ _______ _______ _____ _____    ______ ____
ROOT
ATOM      1  C   UNL     1       3.364   5.399  18.082  0.00  0.00    +0.000 A 
ATOM      2  C   UNL     1       3.275   6.772  17.958  0.00  0.00    +0.000 A 
ATOM      3  N   UNL     1       4.154   7.236  17.010  0.00  0.00    +0.000 NA
ATOM      4  C   UNL     1       4.795   6.179  16.570  0.00  0.00    +0.000 A 
ATOM      5  C   UNL     1       5.802   6.046  15.571  0.00  0.00    +0.000 A 
ATOM      6  C   UNL     1       6.259   4.824  15.239  0.00  0.00    +0.000 A 
ATOM      7  C   UNL     1       5.747   3.620  15.879  0.00  0.00    +0.000 A 
ATOM      8  C   UNL     1       4.815   3.740  16.838  0.00  0.00    +0.000 A 
ATOM      9  N   UNL     1       4.355   5.010  17.194  0.00  0.00    +0.000 N 
ENDROOT
BRANCH   2  10
ATOM     10  C   UNL     1       2.414   7.654  18.729  0.00  0.00    +0.000 A 
ATOM     11  C   UNL     1       1.816   8.781  18.147  0.00  0.00    +0.000 A 
ATOM     12  C   UNL     1       1.011   9.633  18.906  0.00  0.00    +0.000 A 
ATOM     13  C   UNL     1       0.771   9.346  20.248  0.00  0.00    +0.000 A 
ATOM     14  C   UNL     1       1.329   8.208  20.829  0.00  0.00    +0.000 A 
ATOM     15  C   UNL     1       2.144   7.363  20.072  0.00  0.00    +0.000 A 
ENDBRANCH   2  10
BRANCH   1  18
ATOM     16  C   UNL     1       1.418   3.937  18.355  0.00  0.00    +0.000 C 
ATOM     17  O   UNL     1       1.053   4.090  17.205  0.00  0.00    +0.000 OA
ATOM     18  N   UNL     1       2.552   4.608  18.877  0.00  0.00    +0.000 N 
ATOM     19  H   UNL     1       2.926   4.249  19.749  0.00  0.00    +0.000 HD
BRANCH  16  21
ATOM     20  C   UNL     1       1.109   3.494  20.625  0.00  0.00    +0.000 C 
ATOM     21  O   UNL     1       0.918   3.081  19.274  0.00  0.00    +0.000 OA
ENDBRANCH  16  21
ENDBRANCH   1  18
TORSDOF 3
ENDMDL
MODEL 8
REMARK VINA RESULT:      -7.5      2.587      4.836
REMARK  Name = 
REMARK  4 active torsions:
REMARK  status: ('A' for Active; 'I' for Inactive)
REMARK    1  A    between atoms: C_1  and  O_2
REMARK    2  A    between atoms: O_2  and  C_3
REMARK    3  A    between atoms: N_5  and  C_6
REMARK    4  A    between atoms: C_7  and  C_8
REMARK                            x       y       z     vdW  Elec       q    Type
REMARK                         _______ _______ _______ _____ _____    ______ ____
ROOT
ATOM      1  C   UNL     1       3.348   5.210  19.262  0.00  0.00    +0.000 A 
ATOM      2  C   UNL     1       4.500   4.863  18.583  0.00  0.00    +0.000 A 
ATOM      3  N   UNL     1       4.418   3.577  18.106  0.00  0.00    +0.000 NA
ATOM      4  C   UNL     1       3.252   3.123  18.501  0.00  0.00    +0.000 A 
ATOM      5  C   UNL     1       2.617   1.866  18.283  0.00  0.00    +0.000 A 
ATOM      6  C   UNL     1       1.365   1.662  18.735  0.00  0.00    +0.000 A 
ATOM      7  C   UNL     1       0.634   2.700  19.447  0.00  0.00    +0.000 A 
ATOM      8  C   UNL     1       1.235   3.879  19.676  0.00  0.00    +0.000 A 
ATOM      9  N   UNL     1       2.541   4.083  19.223  0.00  0.00    +0.000 N 
ENDROOT
BRANCH   2  10
ATOM     10  C   UNL     1       5.679   5.694  18.402  0.00  0.00    +0.000 A 
ATOM     11  C   UNL     1       5.714   6.711  17.437  0.00  0.00    +0.000 A 
ATOM     12  C   UNL     1       6.863   7.484  17.258  0.00  0.00    +0.000 A 
ATOM     13  C   UNL     1       7.976   7.269  18.066  0.00  0.00    +0.000 A 
ATOM     14  C   UNL     1       7.941   6.285  19.055  0.00  0.00    +0.000 A 
ATOM     15  C   UNL     1       6.795   5.504  19.225  0.00  0.00    +0.000 A 
ENDBRANCH   2  10
BRANCH   1  18
ATOM     16  C   UNL     1       2.381   7.448  19.030  0.00  0.00    +0.000 C 
ATOM     17  O   UNL     1       2.082   7.275  17.864  0.00  0.00    +0.000 OA
ATOM     18  N   UNL     1       3.067   6.461  19.782  0.00  0.00    +0.000 N 
ATOM     19  H   UNL     1       3.063   6.580  20.789  0.00  0.00    +0.000 HD
BRANCH  16  21
ATOM     20  C   UNL     1       1.338   8.137  20.999  0.00  0.00    +0.000 C 
ATOM     21  O   UNL     1       2.055   8.495  19.820  0.00  0.00    +0.000 OA
ENDBRANCH  16  21
ENDBRANCH   1  18
TORSDOF 3
ENDMDL
MODEL 9
REMARK VINA RESULT:      -7.3      2.611      5.475
REMARK  Name = 
REMARK  4 active torsions:
REMARK  status: ('A' for Active; 'I' for Inactive)
REMARK    1  A    between atoms: C_1  and  O_2
REMARK    2  A    between atoms: O_2  and  C_3
REMARK    3  A    between atoms: N_5  and  C_6
REMARK    4  A    between atoms: C_7  and  C_8
REMARK                            x       y       z     vdW  Elec       q    Type
REMARK                         _______ _______ _______ _____ _____    ______ ____
ROOT
ATOM      1  C   UNL     1       4.255   6.010  18.142  0.00  0.00    +0.000 A 
ATOM      2  C   UNL     1       4.164   4.873  18.921  0.00  0.00    +0.000 A 
ATOM      3  N   UNL     1       5.399   4.506  19.398  0.00  0.00    +0.000 NA
ATOM      4  C   UNL     1       6.245   5.380  18.907  0.00  0.00    +0.000 A 
ATOM      5  C   UNL     1       7.653   5.514  19.078  0.00  0.00    +0.000 A 
ATOM      6  C   UNL     1       8.299   6.556  18.520  0.00  0.00    +0.000 A 
ATOM      7  C   UNL     1       7.591   7.561  17.740  0.00  0.00    +0.000 A 
ATOM      8  C   UNL     1       6.267   7.428  17.555  0.00  0.00    +0.000 A 
ATOM      9  N   UNL     1       5.602   6.336  18.119  0.00  0.00    +0.000 N 
ENDROOT
BRANCH   2  10
ATOM     10  C   UNL     1       2.957   4.110  19.197  0.00  0.00    +0.000 A 
ATOM     11  C   UNL     1       2.451   3.186  18.272  0.00  0.00    +0.000 A 
ATOM     12  C   UNL     1       1.276   2.479  18.540  0.00  0.00    +0.000 A 
ATOM     13  C   UNL     1       0.617   2.665  19.753  0.00  0.00    +0.000 A 
ATOM     14  C   UNL     1       1.132   3.554  20.698  0.00  0.00    +0.000 A 
ATOM     15  C   UNL     1       2.300   4.270  20.423  0.00  0.00    +0.000 A 
ENDBRANCH   2  10
BRANCH   1  18
ATOM     16  C   UNL     1       2.369   7.555  18.364  0.00  0.00    +0.000 C 
ATOM     17  O   UNL     1       2.512   7.669  19.567  0.00  0.00    +0.000 OA
ATOM     18  N   UNL     1       3.186   6.694  17.590  0.00  0.00    +0.000 N 
ATOM     19  H   UNL     1       3.166   6.837  16.586  0.00  0.00    +0.000 HD
BRANCH  16  21
ATOM     20  C   UNL     1       1.225   9.562  18.033  0.00  0.00    +0.000 C 
ATOM     21  O   UNL     1       1.533   8.252  17.562  0.00  0.00    +0.000 OA
ENDBRANCH  16  21
ENDBRANCH   1  18
TORSDOF 3
ENDMDL
