MODEL 1
REMARK VINA RESULT:      -8.9      0.000      0.000
REMARK  Name = 
REMARK  8 active torsions:
REMARK  status: ('A' for Active; 'I' for Inactive)
REMARK    1  A    between atoms: C_1  and  C_2
REMARK    2  A    between atoms: C_2  and  C_3
REMARK    3  A    between atoms: C_4  and  C_5
REMARK    4  A    between atoms: N_14  and  N_15
REMARK    5  A    between atoms: C_16  and  C_18
REMARK    6  A    between atoms: C_18  and  N_19
REMARK    7  A    between atoms: N_19  and  C_20
REMARK    8  A    between atoms: C_23  and  C_24
REMARK                            x       y       z     vdW  Elec       q    Type
REMARK                         _______ _______ _______ _____ _____    ______ ____
ROOT
ATOM      1  C   UNL     1       1.464   2.635  21.777  0.00  0.00    +0.000 C 
ATOM      2  C   UNL     1       2.200   3.281  20.621  0.00  0.00    +0.000 C 
ATOM      3  N   UNL     1       3.063   2.522  20.010  0.00  0.00    +0.000 NA
ENDROOT
BRANCH   3   4
ATOM      4  N   UNL     1       3.817   3.021  18.976  0.00  0.00    +0.000 N 
ATOM      5  C   UNL     1       3.365   3.084  17.655  0.00  0.00    +0.000 C 
ATOM      6  O   UNL     1       2.283   2.659  17.243  0.00  0.00    +0.000 OA
ATOM      7  H   UNL     1       4.409   3.796  19.269  0.00  0.00    +0.000 HD
BRANCH   5   8
ATOM      8  C   UNL     1       4.347   3.802  16.734  0.00  0.00    +0.000 C 
BRANCH   8   9
ATOM      9  N   UNL     1       5.643   3.858  17.396  0.00  0.00    +0.000 N 
ATOM     10  H   UNL     1       6.271   3.095  17.165  0.00  0.00    +0.000 HD
BRANCH   9  11
ATOM     11  C   UNL     1       6.271   5.076  17.622  0.00  0.00    +0.000 A 
ATOM     12  C   UNL     1       7.364   5.225  18.483  0.00  0.00    +0.000 A 
ATOM     13  C   UNL     1       8.008   6.459  18.620  0.00  0.00    +0.000 A 
ATOM     14  C   UNL     1       7.578   7.566  17.889  0.00  0.00    +0.000 A 
ATOM     15  C   UNL     1       8.262   8.895  18.027  0.00  0.00    +0.000 C 
ATOM     16  C   UNL     1       6.499   7.421  17.016  0.00  0.00    +0.000 A 
ATOM     17  C   UNL     1       5.865   6.190  16.876  0.00  0.00    +0.000 A 
ENDBRANCH   9  11
ENDBRANCH   8   9
ENDBRANCH   5   8
ENDBRANCH   3   4
BRANCH   2  18
ATOM     18  C   UNL     1       1.808   4.665  20.219  0.00  0.00    +0.000 C 
ATOM     19  C   UNL     1       2.647   5.708  20.282  0.00  0.00    +0.000 C 
BRANCH  19  20
ATOM     20  C   UNL     1       2.247   6.996  19.712  0.00  0.00    +0.000 A 
ATOM     21  C   UNL     1       2.508   7.277  18.352  0.00  0.00    +0.000 A 
ATOM     22  C   UNL     1       2.119   8.499  17.787  0.00  0.00    +0.000 A 
ATOM     23  C   UNL     1       1.477   9.405  18.605  0.00  0.00    +0.000 A 
ATOM     24  C   UNL     1       1.210   9.124  19.926  0.00  0.00    +0.000 A 
ATOM     25  C   UNL     1       1.576   7.930  20.507  0.00  0.00    +0.000 A 
ATOM     26  O   UNL     1       0.564  10.143  20.553  0.00  0.00    +0.000 OA
ATOM     27  C   UNL     1       0.513  11.121  19.495  0.00  0.00    +0.000 C 
ATOM     28  O   UNL     1       1.036  10.638  18.240  0.00  0.00    +0.000 OA
ENDBRANCH  19  20
ENDBRANCH   2  18
TORSDOF 6
ENDMDL
MODEL 2
REMARK VINA RESULT:      -8.5      3.852      5.862
REMARK  Name = 
REMARK  8 active torsions:
REMARK  status: ('A' for Active; 'I' for Inactive)
REMARK    1  A    between atoms: C_1  and  C_2
REMARK    2  A    between atoms: C_2  and  C_3
REMARK    3  A    between atoms: C_4  and  C_5
REMARK    4  A    between atoms: N_14  and  N_15
REMARK    5  A    between atoms: C_16  and  C_18
REMARK    6  A    between atoms: C_18  and  N_19
REMARK    7  A    between atoms: N_19  and  C_20
REMARK    8  A    between atoms: C_23  and  C_24
REMARK                            x       y       z     vdW  Elec       q    Type
REMARK                         _______ _______ _______ _____ _____    ______ ____
ROOT
ATOM      1  C   UNL     1       6.165   3.886  13.700  0.00  0.00    +0.000 C 
ATOM      2  C   UNL     1       6.168   4.741  14.951  0.00  0.00    +0.000 C 
ATOM      3  N   UNL     1       7.155   5.584  15.053  0.00  0.00    +0.000 NA
ENDROOT
BRANCH   3   4
ATOM      4  N   UNL     1       7.276   6.378  16.167  0.00  0.00    +0.000 N 
ATOM      5  C   UNL     1       7.721   5.904  17.404  0.00  0.00    +0.000 C 
ATOM      6  O   UNL     1       8.000   4.733  17.668  0.00  0.00    +0.000 OA
ATOM      7  H   UNL     1       7.567   7.326  15.935  0.00  0.00    +0.000 HD
BRANCH   5   8
ATOM      8  C   UNL     1       7.888   7.019  18.432  0.00  0.00    +0.000 C 
BRANCH   8   9
ATOM      9  N   UNL     1       7.677   8.296  17.765  0.00  0.00    +0.000 N 
ATOM     10  H   UNL     1       6.735   8.442  17.416  0.00  0.00    +0.000 HD
BRANCH   9  11
ATOM     11  C   UNL     1       8.310   9.446  18.219  0.00  0.00    +0.000 A 
ATOM     12  C   UNL     1       9.180   9.457  19.315  0.00  0.00    +0.000 A 
ATOM     13  C   UNL     1       9.852  10.626  19.687  0.00  0.00    +0.000 A 
ATOM     14  C   UNL     1       9.673  11.805  18.964  0.00  0.00    +0.000 A 
ATOM     15  C   UNL     1      10.389  13.066  19.354  0.00  0.00    +0.000 C 
ATOM     16  C   UNL     1       8.820  11.797  17.860  0.00  0.00    +0.000 A 
ATOM     17  C   UNL     1       8.160  10.631  17.486  0.00  0.00    +0.000 A 
ENDBRANCH   9  11
ENDBRANCH   8   9
ENDBRANCH   5   8
ENDBRANCH   3   4
BRANCH   2  18
ATOM     18  C   UNL     1       5.010   4.627  15.887  0.00  0.00    +0.000 C 
ATOM     19  C   UNL     1       4.828   3.576  16.699  0.00  0.00    +0.000 C 
BRANCH  19  20
ATOM     20  C   UNL     1       3.768   3.613  17.707  0.00  0.00    +0.000 A 
ATOM     21  C   UNL     1       2.514   4.181  17.393  0.00  0.00    +0.000 A 
ATOM     22  C   UNL     1       1.484   4.212  18.342  0.00  0.00    +0.000 A 
ATOM     23  C   UNL     1       1.743   3.668  19.583  0.00  0.00    +0.000 A 
ATOM     24  C   UNL     1       2.961   3.102  19.884  0.00  0.00    +0.000 A 
ATOM     25  C   UNL     1       3.990   3.053  18.969  0.00  0.00    +0.000 A 
ATOM     26  O   UNL     1       3.009   2.617  21.153  0.00  0.00    +0.000 OA
ATOM     27  C   UNL     1       1.706   3.002  21.637  0.00  0.00    +0.000 C 
ATOM     28  O   UNL     1       0.876   3.615  20.629  0.00  0.00    +0.000 OA
ENDBRANCH  19  20
ENDBRANCH   2  18
TORSDOF 6
ENDMDL
MODEL 3
REMARK VINA RESULT:      -8.0      3.202      7.619
REMARK  Name = 
REMARK  8 active torsions:
REMARK  status: ('A' for Active; 'I' for Inactive)
REMARK    1  A    between atoms: C_1  and  C_2
REMARK    2  A    between atoms: C_2  and  C_3
REMARK    3  A    between atoms: C_4  and  C_5
REMARK    4  A    between atoms: N_14  and  N_15
REMARK    5  A    between atoms: C_16  and  C_18
REMARK    6  A    between atoms: C_18  and  N_19
REMARK    7  A    between atoms: N_19  and  C_20
REMARK    8  A    between atoms: C_23  and  C_24
REMARK                            x       y       z     vdW  Elec       q    Type
REMARK                         _______ _______ _______ _____ _____    ______ ____
ROOT
ATOM      1  C   UNL     1       1.444   3.724  20.506  0.00  0.00    +0.000 C 
ATOM      2  C   UNL     1       1.842   5.160  20.235  0.00  0.00    +0.000 C 
ATOM      3  N   UNL     1       1.291   6.051  21.008  0.00  0.00    +0.000 NA
ENDROOT
BRANCH   3   4
ATOM      4  N   UNL     1       1.550   7.387  20.820  0.00  0.00    +0.000 N 
ATOM      5  C   UNL     1       0.654   8.401  21.172  0.00  0.00    +0.000 C 
ATOM      6  O   UNL     1      -0.477   8.235  21.631  0.00  0.00    +0.000 OA
ATOM      7  H   UNL     1       2.534   7.612  20.953  0.00  0.00    +0.000 HD
BRANCH   5   8
ATOM      8  C   UNL     1       1.244   9.795  20.978  0.00  0.00    +0.000 C 
BRANCH   8   9
ATOM      9  N   UNL     1       1.065  10.182  19.585  0.00  0.00    +0.000 N 
ATOM     10  H   UNL     1       1.681   9.710  18.931  0.00  0.00    +0.000 HD
BRANCH   9  11
ATOM     11  C   UNL     1      -0.199  10.466  19.086  0.00  0.00    +0.000 A 
ATOM     12  C   UNL     1      -1.044  11.430  19.648  0.00  0.00    +0.000 A 
ATOM     13  C   UNL     1      -2.279  11.732  19.063  0.00  0.00    +0.000 A 
ATOM     14  C   UNL     1      -2.687  11.083  17.899  0.00  0.00    +0.000 A 
ATOM     15  C   UNL     1      -4.010  11.399  17.262  0.00  0.00    +0.000 C 
ATOM     16  C   UNL     1      -1.843  10.133  17.324  0.00  0.00    +0.000 A 
ATOM     17  C   UNL     1      -0.612   9.840  17.902  0.00  0.00    +0.000 A 
ENDBRANCH   9  11
ENDBRANCH   8   9
ENDBRANCH   5   8
ENDBRANCH   3   4
BRANCH   2  18
ATOM     18  C   UNL     1       2.891   5.420  19.203  0.00  0.00    +0.000 C 
ATOM     19  C   UNL     1       4.161   5.015  19.335  0.00  0.00    +0.000 C 
BRANCH  19  20
ATOM     20  C   UNL     1       5.087   5.155  18.211  0.00  0.00    +0.000 A 
ATOM     21  C   UNL     1       6.261   5.927  18.356  0.00  0.00    +0.000 A 
ATOM     22  C   UNL     1       7.165   6.060  17.294  0.00  0.00    +0.000 A 
ATOM     23  C   UNL     1       6.866   5.412  16.114  0.00  0.00    +0.000 A 
ATOM     24  C   UNL     1       5.728   4.648  15.979  0.00  0.00    +0.000 A 
ATOM     25  C   UNL     1       4.825   4.495  17.007  0.00  0.00    +0.000 A 
ATOM     26  O   UNL     1       5.623   4.088  14.744  0.00  0.00    +0.000 OA
ATOM     27  C   UNL     1       6.789   4.640  14.098  0.00  0.00    +0.000 C 
ATOM     28  O   UNL     1       7.613   5.432  14.979  0.00  0.00    +0.000 OA
ENDBRANCH  19  20
ENDBRANCH   2  18
TORSDOF 6
ENDMDL
MODEL 4
REMARK VINA RESULT:      -7.7      0.820      1.258
REMARK  Name = 
REMARK  8 active torsions:
REMARK  status: ('A' for Active; 'I' for Inactive)
REMARK    1  A    between atoms: C_1  and  C_2
REMARK    2  A    between atoms: C_2  and  C_3
REMARK    3  A    between atoms: C_4  and  C_5
REMARK    4  A    between atoms: N_14  and  N_15
REMARK    5  A    between atoms: C_16  and  C_18
REMARK    6  A    between atoms: C_18  and  N_19
REMARK    7  A    between atoms: N_19  and  C_20
REMARK    8  A    between atoms: C_23  and  C_24
REMARK                            x       y       z     vdW  Elec       q    Type
REMARK                         _______ _______ _______ _____ _____    ______ ____
ROOT
ATOM      1  C   UNL     1       2.162   3.710  21.698  0.00  0.00    +0.000 C 
ATOM      2  C   UNL     1       2.931   4.108  20.456  0.00  0.00    +0.000 C 
ATOM      3  N   UNL     1       3.667   3.173  19.926  0.00  0.00    +0.000 NA
ENDROOT
BRANCH   3   4
ATOM      4  N   UNL     1       4.439   3.440  18.822  0.00  0.00    +0.000 N 
ATOM      5  C   UNL     1       3.972   3.324  17.510  0.00  0.00    +0.000 C 
ATOM      6  O   UNL     1       2.855   2.922  17.177  0.00  0.00    +0.000 OA
ATOM      7  H   UNL     1       5.093   4.204  18.984  0.00  0.00    +0.000 HD
BRANCH   5   8
ATOM      8  C   UNL     1       4.990   3.806  16.482  0.00  0.00    +0.000 C 
BRANCH   8   9
ATOM      9  N   UNL     1       6.289   3.912  17.133  0.00  0.00    +0.000 N 
ATOM     10  H   UNL     1       6.953   3.190  16.874  0.00  0.00    +0.000 HD
BRANCH   9  11
ATOM     11  C   UNL     1       6.854   5.154  17.388  0.00  0.00    +0.000 A 
ATOM     12  C   UNL     1       6.609   6.283  16.597  0.00  0.00    +0.000 A 
ATOM     13  C   UNL     1       7.143   7.530  16.938  0.00  0.00    +0.000 A 
ATOM     14  C   UNL     1       7.926   7.674  18.083  0.00  0.00    +0.000 A 
ATOM     15  C   UNL     1       8.504   9.007  18.460  0.00  0.00    +0.000 C 
ATOM     16  C   UNL     1       8.161   6.557  18.885  0.00  0.00    +0.000 A 
ATOM     17  C   UNL     1       7.621   5.320  18.549  0.00  0.00    +0.000 A 
ENDBRANCH   9  11
ENDBRANCH   8   9
ENDBRANCH   5   8
ENDBRANCH   3   4
BRANCH   2  18
ATOM     18  C   UNL     1       2.704   5.472  19.891  0.00  0.00    +0.000 C 
ATOM     19  C   UNL     1       1.664   6.242  20.239  0.00  0.00    +0.000 C 
BRANCH  19  20
ATOM     20  C   UNL     1       1.601   7.628  19.775  0.00  0.00    +0.000 A 
ATOM     21  C   UNL     1       1.903   7.938  18.431  0.00  0.00    +0.000 A 
ATOM     22  C   UNL     1       1.834   9.258  17.967  0.00  0.00    +0.000 A 
ATOM     23  C   UNL     1       1.461  10.233  18.868  0.00  0.00    +0.000 A 
ATOM     24  C   UNL     1       1.152   9.929  20.175  0.00  0.00    +0.000 A 
ATOM     25  C   UNL     1       1.206   8.639  20.657  0.00  0.00    +0.000 A 
ATOM     26  O   UNL     1       0.801  11.027  20.895  0.00  0.00    +0.000 OA
ATOM     27  C   UNL     1       0.987  12.065  19.911  0.00  0.00    +0.000 C 
ATOM     28  O   UNL     1       1.348  11.562  18.607  0.00  0.00    +0.000 OA
ENDBRANCH  19  20
ENDBRANCH   2  18
TORSDOF 6
ENDMDL
MODEL 5
REMARK VINA RESULT:      -7.7      2.779      4.576
REMARK  Name = 
REMARK  8 active torsions:
REMARK  status: ('A' for Active; 'I' for Inactive)
REMARK    1  A    between atoms: C_1  and  C_2
REMARK    2  A    between atoms: C_2  and  C_3
REMARK    3  A    between atoms: C_4  and  C_5
REMARK    4  A    between atoms: N_14  and  N_15
REMARK    5  A    between atoms: C_16  and  C_18
REMARK    6  A    between atoms: C_18  and  N_19
REMARK    7  A    between atoms: N_19  and  C_20
REMARK    8  A    between atoms: C_23  and  C_24
REMARK                            x       y       z     vdW  Elec       q    Type
REMARK                         _______ _______ _______ _____ _____    ______ ____
ROOT
ATOM      1  C   UNL     1       3.751   4.017  17.070  0.00  0.00    +0.000 C 
ATOM      2  C   UNL     1       4.526   5.105  17.785  0.00  0.00    +0.000 C 
ATOM      3  N   UNL     1       5.816   5.087  17.604  0.00  0.00    +0.000 NA
ENDROOT
BRANCH   3   4
ATOM      4  N   UNL     1       6.618   6.002  18.241  0.00  0.00    +0.000 N 
ATOM      5  C   UNL     1       7.533   6.820  17.572  0.00  0.00    +0.000 C 
ATOM      6  O   UNL     1       7.777   6.789  16.364  0.00  0.00    +0.000 OA
ATOM      7  H   UNL     1       6.155   6.432  19.039  0.00  0.00    +0.000 HD
BRANCH   5   8
ATOM      8  C   UNL     1       8.197   7.834  18.498  0.00  0.00    +0.000 C 
BRANCH   8   9
ATOM      9  N   UNL     1       8.244   9.120  17.816  0.00  0.00    +0.000 N 
ATOM     10  H   UNL     1       7.433   9.325  17.242  0.00  0.00    +0.000 HD
BRANCH   9  11
ATOM     11  C   UNL     1       8.811  10.228  18.432  0.00  0.00    +0.000 A 
ATOM     12  C   UNL     1       8.817  11.503  17.857  0.00  0.00    +0.000 A 
ATOM     13  C   UNL     1       9.336  12.602  18.550  0.00  0.00    +0.000 A 
ATOM     14  C   UNL     1       9.849  12.448  19.837  0.00  0.00    +0.000 A 
ATOM     15  C   UNL     1      10.408  13.620  20.591  0.00  0.00    +0.000 C 
ATOM     16  C   UNL     1       9.832  11.182  20.424  0.00  0.00    +0.000 A 
ATOM     17  C   UNL     1       9.307  10.092  19.736  0.00  0.00    +0.000 A 
ENDBRANCH   9  11
ENDBRANCH   8   9
ENDBRANCH   5   8
ENDBRANCH   3   4
BRANCH   2  18
ATOM     18  C   UNL     1       3.759   6.147  18.531  0.00  0.00    +0.000 C 
ATOM     19  C   UNL     1       3.054   7.110  17.921  0.00  0.00    +0.000 C 
BRANCH  19  20
ATOM     20  C   UNL     1       2.192   7.989  18.712  0.00  0.00    +0.000 A 
ATOM     21  C   UNL     1       1.961   7.709  20.077  0.00  0.00    +0.000 A 
ATOM     22  C   UNL     1       1.149   8.548  20.852  0.00  0.00    +0.000 A 
ATOM     23  C   UNL     1       0.593   9.648  20.233  0.00  0.00    +0.000 A 
ATOM     24  C   UNL     1       0.831   9.928  18.906  0.00  0.00    +0.000 A 
ATOM     25  C   UNL     1       1.628   9.124  18.122  0.00  0.00    +0.000 A 
ATOM     26  O   UNL     1       0.199  11.059  18.493  0.00  0.00    +0.000 OA
ATOM     27  C   UNL     1      -0.516  11.422  19.692  0.00  0.00    +0.000 C 
ATOM     28  O   UNL     1      -0.223  10.565  20.816  0.00  0.00    +0.000 OA
ENDBRANCH  19  20
ENDBRANCH   2  18
TORSDOF 6
ENDMDL
MODEL 6
REMARK VINA RESULT:      -7.6      3.418      7.847
REMARK  Name = 
REMARK  8 active torsions:
REMARK  status: ('A' for Active; 'I' for Inactive)
REMARK    1  A    between atoms: C_1  and  C_2
REMARK    2  A    between atoms: C_2  and  C_3
REMARK    3  A    between atoms: C_4  and  C_5
REMARK    4  A    between atoms: N_14  and  N_15
REMARK    5  A    between atoms: C_16  and  C_18
REMARK    6  A    between atoms: C_18  and  N_19
REMARK    7  A    between atoms: N_19  and  C_20
REMARK    8  A    between atoms: C_23  and  C_24
REMARK                            x       y       z     vdW  Elec       q    Type
REMARK                         _______ _______ _______ _____ _____    ______ ____
ROOT
ATOM      1  C   UNL     1       1.745   4.270  21.168  0.00  0.00    +0.000 C 
ATOM      2  C   UNL     1       1.872   5.657  20.575  0.00  0.00    +0.000 C 
ATOM      3  N   UNL     1       1.216   6.596  21.195  0.00  0.00    +0.000 NA
ENDROOT
BRANCH   3   4
ATOM      4  N   UNL     1       1.227   7.883  20.716  0.00  0.00    +0.000 N 
ATOM      5  C   UNL     1       0.439   8.909  21.246  0.00  0.00    +0.000 C 
ATOM      6  O   UNL     1      -0.389   8.786  22.150  0.00  0.00    +0.000 OA
ATOM      7  H   UNL     1       2.151   8.167  20.395  0.00  0.00    +0.000 HD
BRANCH   5   8
ATOM      8  C   UNL     1       0.744  10.264  20.616  0.00  0.00    +0.000 C 
BRANCH   8   9
ATOM      9  N   UNL     1       0.547  10.159  19.177  0.00  0.00    +0.000 N 
ATOM     10  H   UNL     1       1.022   9.376  18.740  0.00  0.00    +0.000 HD
BRANCH   9  11
ATOM     11  C   UNL     1      -0.674  10.488  18.603  0.00  0.00    +0.000 A 
ATOM     12  C   UNL     1      -1.188   9.839  17.475  0.00  0.00    +0.000 A 
ATOM     13  C   UNL     1      -2.457  10.156  16.979  0.00  0.00    +0.000 A 
ATOM     14  C   UNL     1      -3.241  11.123  17.609  0.00  0.00    +0.000 A 
ATOM     15  C   UNL     1      -4.605  11.472  17.086  0.00  0.00    +0.000 C 
ATOM     16  C   UNL     1      -2.742  11.762  18.744  0.00  0.00    +0.000 A 
ATOM     17  C   UNL     1      -1.483  11.438  19.240  0.00  0.00    +0.000 A 
ENDBRANCH   9  11
ENDBRANCH   8   9
ENDBRANCH   5   8
ENDBRANCH   3   4
BRANCH   2  18
ATOM     18  C   UNL     1       2.802   5.851  19.422  0.00  0.00    +0.000 C 
ATOM     19  C   UNL     1       3.509   4.850  18.880  0.00  0.00    +0.000 C 
BRANCH  19  20
ATOM     20  C   UNL     1       4.266   5.082  17.649  0.00  0.00    +0.000 A 
ATOM     21  C   UNL     1       4.485   6.400  17.192  0.00  0.00    +0.000 A 
ATOM     22  C   UNL     1       5.219   6.640  16.023  0.00  0.00    +0.000 A 
ATOM     23  C   UNL     1       5.717   5.546  15.346  0.00  0.00    +0.000 A 
ATOM     24  C   UNL     1       5.516   4.262  15.800  0.00  0.00    +0.000 A 
ATOM     25  C   UNL     1       4.803   3.997  16.949  0.00  0.00    +0.000 A 
ATOM     26  O   UNL     1       6.094   3.331  14.996  0.00  0.00    +0.000 OA
ATOM     27  C   UNL     1       6.624   4.170  13.949  0.00  0.00    +0.000 C 
ATOM     28  O   UNL     1       6.440   5.580  14.196  0.00  0.00    +0.000 OA
ENDBRANCH  19  20
ENDBRANCH   2  18
TORSDOF 6
ENDMDL
MODEL 7
REMARK VINA RESULT:      -7.6      0.750      1.209
REMARK  Name = 
REMARK  8 active torsions:
REMARK  status: ('A' for Active; 'I' for Inactive)
REMARK    1  A    between atoms: C_1  and  C_2
REMARK    2  A    between atoms: C_2  and  C_3
REMARK    3  A    between atoms: C_4  and  C_5
REMARK    4  A    between atoms: N_14  and  N_15
REMARK    5  A    between atoms: C_16  and  C_18
REMARK    6  A    between atoms: C_18  and  N_19
REMARK    7  A    between atoms: N_19  and  C_20
REMARK    8  A    between atoms: C_23  and  C_24
REMARK                            x       y       z     vdW  Elec       q    Type
REMARK                         _______ _______ _______ _____ _____    ______ ____
ROOT
ATOM      1  C   UNL     1       2.051   3.105  22.059  0.00  0.00    +0.000 C 
ATOM      2  C   UNL     1       2.797   3.412  20.777  0.00  0.00    +0.000 C 
ATOM      3  N   UNL     1       3.499   2.431  20.287  0.00  0.00    +0.000 NA
ENDROOT
BRANCH   3   4
ATOM      4  N   UNL     1       4.249   2.615  19.151  0.00  0.00    +0.000 N 
ATOM      5  C   UNL     1       3.742   2.447  17.859  0.00  0.00    +0.000 C 
ATOM      6  O   UNL     1       2.605   2.067  17.576  0.00  0.00    +0.000 OA
ATOM      7  H   UNL     1       4.931   3.363  19.256  0.00  0.00    +0.000 HD
BRANCH   5   8
ATOM      8  C   UNL     1       4.747   2.841  16.781  0.00  0.00    +0.000 C 
BRANCH   8   9
ATOM      9  N   UNL     1       4.489   4.221  16.393  0.00  0.00    +0.000 N 
ATOM     10  H   UNL     1       3.512   4.494  16.420  0.00  0.00    +0.000 HD
BRANCH   9  11
ATOM     11  C   UNL     1       5.381   5.230  16.730  0.00  0.00    +0.000 A 
ATOM     12  C   UNL     1       5.109   6.589  16.532  0.00  0.00    +0.000 A 
ATOM     13  C   UNL     1       6.010   7.571  16.957  0.00  0.00    +0.000 A 
ATOM     14  C   UNL     1       7.196   7.214  17.598  0.00  0.00    +0.000 A 
ATOM     15  C   UNL     1       8.170   8.259  18.058  0.00  0.00    +0.000 C 
ATOM     16  C   UNL     1       7.466   5.862  17.813  0.00  0.00    +0.000 A 
ATOM     17  C   UNL     1       6.565   4.887  17.397  0.00  0.00    +0.000 A 
ENDBRANCH   9  11
ENDBRANCH   8   9
ENDBRANCH   5   8
ENDBRANCH   3   4
BRANCH   2  18
ATOM     18  C   UNL     1       2.585   4.746  20.138  0.00  0.00    +0.000 C 
ATOM     19  C   UNL     1       1.803   5.694  20.671  0.00  0.00    +0.000 C 
BRANCH  19  20
ATOM     20  C   UNL     1       1.779   7.032  20.078  0.00  0.00    +0.000 A 
ATOM     21  C   UNL     1       2.229   7.225  18.753  0.00  0.00    +0.000 A 
ATOM     22  C   UNL     1       2.199   8.497  18.166  0.00  0.00    +0.000 A 
ATOM     23  C   UNL     1       1.717   9.541  18.927  0.00  0.00    +0.000 A 
ATOM     24  C   UNL     1       1.266   9.349  20.214  0.00  0.00    +0.000 A 
ATOM     25  C   UNL     1       1.278   8.110  20.814  0.00  0.00    +0.000 A 
ATOM     26  O   UNL     1       0.825  10.500  20.786  0.00  0.00    +0.000 OA
ATOM     27  C   UNL     1       1.111  11.449  19.738  0.00  0.00    +0.000 C 
ATOM     28  O   UNL     1       1.621  10.839  18.534  0.00  0.00    +0.000 OA
ENDBRANCH  19  20
ENDBRANCH   2  18
TORSDOF 6
ENDMDL
MODEL 8
REMARK VINA RESULT:      -7.5      3.240      5.134
REMARK  Name = 
REMARK  8 active torsions:
REMARK  status: ('A' for Active; 'I' for Inactive)
REMARK    1  A    between atoms: C_1  and  C_2
REMARK    2  A    between atoms: C_2  and  C_3
REMARK    3  A    between atoms: C_4  and  C_5
REMARK    4  A    between atoms: N_14  and  N_15
REMARK    5  A    between atoms: C_16  and  C_18
REMARK    6  A    between atoms: C_18  and  N_19
REMARK    7  A    between atoms: N_19  and  C_20
REMARK    8  A    between atoms: C_23  and  C_24
REMARK                            x       y       z     vdW  Elec       q    Type
REMARK                         _______ _______ _______ _____ _____    ______ ____
ROOT
ATOM      1  C   UNL     1       4.270   4.570  17.181  0.00  0.00    +0.000 C 
ATOM      2  C   UNL     1       4.891   5.946  17.305  0.00  0.00    +0.000 C 
ATOM      3  N   UNL     1       6.040   6.099  16.710  0.00  0.00    +0.000 NA
ENDROOT
BRANCH   3   4
ATOM      4  N   UNL     1       6.711   7.294  16.796  0.00  0.00    +0.000 N 
ATOM      5  C   UNL     1       7.677   7.566  17.769  0.00  0.00    +0.000 C 
ATOM      6  O   UNL     1       8.005   6.813  18.688  0.00  0.00    +0.000 OA
ATOM      7  H   UNL     1       6.890   7.703  15.881  0.00  0.00    +0.000 HD
BRANCH   5   8
ATOM      8  C   UNL     1       8.358   8.914  17.557  0.00  0.00    +0.000 C 
BRANCH   8   9
ATOM      9  N   UNL     1       8.595   9.522  18.859  0.00  0.00    +0.000 N 
ATOM     10  H   UNL     1       8.660   8.864  19.629  0.00  0.00    +0.000 HD
BRANCH   9  11
ATOM     11  C   UNL     1       9.413  10.638  18.982  0.00  0.00    +0.000 A 
ATOM     12  C   UNL     1       9.563  11.591  17.968  0.00  0.00    +0.000 A 
ATOM     13  C   UNL     1      10.340  12.737  18.168  0.00  0.00    +0.000 A 
ATOM     14  C   UNL     1      10.974  12.957  19.390  0.00  0.00    +0.000 A 
ATOM     15  C   UNL     1      11.810  14.183  19.617  0.00  0.00    +0.000 C 
ATOM     16  C   UNL     1      10.815  12.019  20.411  0.00  0.00    +0.000 A 
ATOM     17  C   UNL     1      10.034  10.885  20.213  0.00  0.00    +0.000 A 
ENDBRANCH   9  11
ENDBRANCH   8   9
ENDBRANCH   5   8
ENDBRANCH   3   4
BRANCH   2  18
ATOM     18  C   UNL     1       4.106   7.017  17.989  0.00  0.00    +0.000 C 
ATOM     19  C   UNL     1       2.780   7.147  17.855  0.00  0.00    +0.000 C 
BRANCH  19  20
ATOM     20  C   UNL     1       2.058   8.111  18.687  0.00  0.00    +0.000 A 
ATOM     21  C   UNL     1       1.548   9.297  18.113  0.00  0.00    +0.000 A 
ATOM     22  C   UNL     1       0.843  10.223  18.893  0.00  0.00    +0.000 A 
ATOM     23  C   UNL     1       0.668   9.931  20.229  0.00  0.00    +0.000 A 
ATOM     24  C   UNL     1       1.153   8.769  20.785  0.00  0.00    +0.000 A 
ATOM     25  C   UNL     1       1.845   7.838  20.041  0.00  0.00    +0.000 A 
ATOM     26  O   UNL     1       0.869   8.668  22.110  0.00  0.00    +0.000 OA
ATOM     27  C   UNL     1       0.207   9.929  22.340  0.00  0.00    +0.000 C 
ATOM     28  O   UNL     1       0.023  10.708  21.139  0.00  0.00    +0.000 OA
ENDBRANCH  19  20
ENDBRANCH   2  18
TORSDOF 6
ENDMDL
MODEL 9
REMARK VINA RESULT:      -7.4      2.645      3.790
REMARK  Name = 
REMARK  8 active torsions:
REMARK  status: ('A' for Active; 'I' for Inactive)
REMARK    1  A    between atoms: C_1  and  C_2
REMARK    2  A    between atoms: C_2  and  C_3
REMARK    3  A    between atoms: C_4  and  C_5
REMARK    4  A    between atoms: N_14  and  N_15
REMARK    5  A    between atoms: C_16  and  C_18
REMARK    6  A    between atoms: C_18  and  N_19
REMARK    7  A    between atoms: N_19  and  C_20
REMARK    8  A    between atoms: C_23  and  C_24
REMARK                            x       y       z     vdW  Elec       q    Type
REMARK                         _______ _______ _______ _____ _____    ______ ____
ROOT
ATOM      1  C   UNL     1       2.826   2.570  19.521  0.00  0.00    +0.000 C 
ATOM      2  C   UNL     1       3.378   3.774  18.787  0.00  0.00    +0.000 C 
ATOM      3  N   UNL     1       4.457   3.562  18.090  0.00  0.00    +0.000 NA
ENDROOT
BRANCH   3   4
ATOM      4  N   UNL     1       5.065   4.595  17.421  0.00  0.00    +0.000 N 
ATOM      5  C   UNL     1       6.434   4.868  17.505  0.00  0.00    +0.000 C 
ATOM      6  O   UNL     1       7.244   4.270  18.216  0.00  0.00    +0.000 OA
ATOM      7  H   UNL     1       4.644   4.765  16.509  0.00  0.00    +0.000 HD
BRANCH   5   8
ATOM      8  C   UNL     1       6.867   5.985  16.561  0.00  0.00    +0.000 C 
BRANCH   8   9
ATOM      9  N   UNL     1       7.577   5.390  15.437  0.00  0.00    +0.000 N 
ATOM     10  H   UNL     1       8.471   4.972  15.674  0.00  0.00    +0.000 HD
BRANCH   9  11
ATOM     11  C   UNL     1       6.883   4.739  14.426  0.00  0.00    +0.000 A 
ATOM     12  C   UNL     1       5.545   4.347  14.546  0.00  0.00    +0.000 A 
ATOM     13  C   UNL     1       4.869   3.761  13.471  0.00  0.00    +0.000 A 
ATOM     14  C   UNL     1       5.515   3.565  12.251  0.00  0.00    +0.000 A 
ATOM     15  C   UNL     1       4.799   2.937  11.090  0.00  0.00    +0.000 C 
ATOM     16  C   UNL     1       6.844   3.968  12.119  0.00  0.00    +0.000 A 
ATOM     17  C   UNL     1       7.512   4.559  13.187  0.00  0.00    +0.000 A 
ENDBRANCH   9  11
ENDBRANCH   8   9
ENDBRANCH   5   8
ENDBRANCH   3   4
BRANCH   2  18
ATOM     18  C   UNL     1       2.599   5.048  18.833  0.00  0.00    +0.000 C 
ATOM     19  C   UNL     1       3.074   6.173  19.383  0.00  0.00    +0.000 C 
BRANCH  19  20
ATOM     20  C   UNL     1       2.325   7.423  19.239  0.00  0.00    +0.000 A 
ATOM     21  C   UNL     1       2.241   8.055  17.979  0.00  0.00    +0.000 A 
ATOM     22  C   UNL     1       1.516   9.243  17.821  0.00  0.00    +0.000 A 
ATOM     23  C   UNL     1       0.893   9.764  18.936  0.00  0.00    +0.000 A 
ATOM     24  C   UNL     1       0.963   9.140  20.161  0.00  0.00    +0.000 A 
ATOM     25  C   UNL     1       1.664   7.968  20.344  0.00  0.00    +0.000 A 
ATOM     26  O   UNL     1       0.275   9.809  21.124  0.00  0.00    +0.000 OA
ATOM     27  C   UNL     1      -0.180  10.958  20.381  0.00  0.00    +0.000 C 
ATOM     28  O   UNL     1       0.158  10.906  18.979  0.00  0.00    +0.000 OA
ENDBRANCH  19  20
ENDBRANCH   2  18
TORSDOF 6
ENDMDL
