MODEL 1
REMARK VINA RESULT:      -7.6      0.000      0.000
REMARK  Name = 
REMARK  4 active torsions:
REMARK  status: ('A' for Active; 'I' for Inactive)
REMARK    1  A    between atoms: C_1  and  O_2
REMARK    2  A    between atoms: O_2  and  C_3
REMARK    3  A    between atoms: C_9  and  N_10
REMARK    4  A    between atoms: C_11  and  C_13
REMARK                            x       y       z     vdW  Elec       q    Type
REMARK                         _______ _______ _______ _____ _____    ______ ____
ROOT
ATOM      1  C   UNL     1       1.947   8.122  18.433  0.00  0.00    +0.000 A 
ATOM      2  C   UNL     1       3.024   8.663  17.716  0.00  0.00    +0.000 A 
ATOM      3  C   UNL     1       4.030   7.844  17.186  0.00  0.00    +0.000 A 
ATOM      4  C   UNL     1       3.951   6.469  17.378  0.00  0.00    +0.000 A 
ATOM      5  C   UNL     1       2.880   5.935  18.092  0.00  0.00    +0.000 A 
ATOM      6  C   UNL     1       1.875   6.743  18.620  0.00  0.00    +0.000 A 
ATOM      7  C   UNL     1       2.935   4.448  18.180  0.00  0.00    +0.000 C 
ATOM      8  C   UNL     1       4.218   4.087  17.411  0.00  0.00    +0.000 C 
ATOM      9  C   UNL     1       4.911   5.398  16.911  0.00  0.00    +0.000 C 
ATOM     10  C   UNL     1       5.053   5.391  15.373  0.00  0.00    +0.000 C 
ATOM     11  C   UNL     1       6.057   4.343  14.886  0.00  0.00    +0.000 C 
ATOM     12  C   UNL     1       7.422   4.519  15.546  0.00  0.00    +0.000 C 
ATOM     13  C   UNL     1       7.323   4.549  17.068  0.00  0.00    +0.000 C 
ATOM     14  C   UNL     1       6.303   5.581  17.555  0.00  0.00    +0.000 C 
ENDROOT
BRANCH   7  15
ATOM     15  N   UNL     1       2.974   4.003  19.554  0.00  0.00    +0.000 N 
ATOM     16  C   UNL     1       1.872   3.407  20.154  0.00  0.00    +0.000 C 
ATOM     17  O   UNL     1       0.803   3.275  19.554  0.00  0.00    +0.000 OA
ATOM     18  H   UNL     1       3.866   3.997  20.040  0.00  0.00    +0.000 HD
BRANCH  16  19
ATOM     19  C   UNL     1       2.089   2.957  21.614  0.00  0.00    +0.000 C 
ATOM     20  F   UNL     1       2.356   4.014  22.438  0.00  0.00    +0.000 F 
ATOM     21  F   UNL     1       0.998   2.335  22.136  0.00  0.00    +0.000 F 
ATOM     22  F   UNL     1       3.136   2.097  21.745  0.00  0.00    +0.000 F 
ENDBRANCH  16  19
ENDBRANCH   7  15
BRANCH   1  24
ATOM     23  C   UNL     1       0.963   9.203  20.305  0.00  0.00    +0.000 C 
ATOM     24  O   UNL     1       1.034   9.033  18.893  0.00  0.00    +0.000 OA
ENDBRANCH   1  24
TORSDOF 3
ENDMDL
MODEL 2
REMARK VINA RESULT:      -7.3      3.540      5.852
REMARK  Name = 
REMARK  4 active torsions:
REMARK  status: ('A' for Active; 'I' for Inactive)
REMARK    1  A    between atoms: C_1  and  O_2
REMARK    2  A    between atoms: O_2  and  C_3
REMARK    3  A    between atoms: C_9  and  N_10
REMARK    4  A    between atoms: C_11  and  C_13
REMARK                            x       y       z     vdW  Elec       q    Type
REMARK                         _______ _______ _______ _____ _____    ______ ____
ROOT
ATOM      1  C   UNL     1       6.357   6.702  17.392  0.00  0.00    +0.000 A 
ATOM      2  C   UNL     1       6.479   5.435  17.982  0.00  0.00    +0.000 A 
ATOM      3  C   UNL     1       5.359   4.745  18.461  0.00  0.00    +0.000 A 
ATOM      4  C   UNL     1       4.104   5.333  18.343  0.00  0.00    +0.000 A 
ATOM      5  C   UNL     1       3.986   6.591  17.757  0.00  0.00    +0.000 A 
ATOM      6  C   UNL     1       5.095   7.283  17.277  0.00  0.00    +0.000 A 
ATOM      7  C   UNL     1       2.572   7.059  17.685  0.00  0.00    +0.000 C 
ATOM      8  C   UNL     1       1.776   5.907  18.322  0.00  0.00    +0.000 C 
ATOM      9  C   UNL     1       2.765   4.787  18.788  0.00  0.00    +0.000 C 
ATOM     10  C   UNL     1       2.438   3.444  18.098  0.00  0.00    +0.000 C 
ATOM     11  C   UNL     1       1.107   2.855  18.573  0.00  0.00    +0.000 C 
ATOM     12  C   UNL     1       1.069   2.696  20.090  0.00  0.00    +0.000 C 
ATOM     13  C   UNL     1       1.404   3.998  20.810  0.00  0.00    +0.000 C 
ATOM     14  C   UNL     1       2.723   4.601  20.321  0.00  0.00    +0.000 C 
ENDROOT
BRANCH   7  15
ATOM     15  N   UNL     1       2.395   8.306  18.392  0.00  0.00    +0.000 N 
ATOM     16  C   UNL     1       1.343   9.165  18.093  0.00  0.00    +0.000 C 
ATOM     17  O   UNL     1       0.548   8.919  17.184  0.00  0.00    +0.000 OA
ATOM     18  H   UNL     1       2.963   8.487  19.214  0.00  0.00    +0.000 HD
BRANCH  16  19
ATOM     19  C   UNL     1       1.275  10.438  18.964  0.00  0.00    +0.000 C 
ATOM     20  F   UNL     1       0.077  11.080  18.831  0.00  0.00    +0.000 F 
ATOM     21  F   UNL     1       1.418  10.170  20.290  0.00  0.00    +0.000 F 
ATOM     22  F   UNL     1       2.234  11.347  18.637  0.00  0.00    +0.000 F 
ENDBRANCH  16  19
ENDBRANCH   7  15
BRANCH   1  24
ATOM     23  C   UNL     1       7.971   8.423  17.665  0.00  0.00    +0.000 C 
ATOM     24  O   UNL     1       7.530   7.264  16.965  0.00  0.00    +0.000 OA
ENDBRANCH   1  24
TORSDOF 3
ENDMDL
MODEL 3
REMARK VINA RESULT:      -7.1      3.654      5.574
REMARK  Name = 
REMARK  4 active torsions:
REMARK  status: ('A' for Active; 'I' for Inactive)
REMARK    1  A    between atoms: C_1  and  O_2
REMARK    2  A    between atoms: O_2  and  C_3
REMARK    3  A    between atoms: C_9  and  N_10
REMARK    4  A    between atoms: C_11  and  C_13
REMARK                            x       y       z     vdW  Elec       q    Type
REMARK                         _______ _______ _______ _____ _____    ______ ____
ROOT
ATOM      1  C   UNL     1       2.646   8.754  17.897  0.00  0.00    +0.000 A 
ATOM      2  C   UNL     1       1.514   8.412  18.651  0.00  0.00    +0.000 A 
ATOM      3  C   UNL     1       1.381   7.143  19.228  0.00  0.00    +0.000 A 
ATOM      4  C   UNL     1       2.396   6.210  19.046  0.00  0.00    +0.000 A 
ATOM      5  C   UNL     1       3.519   6.553  18.296  0.00  0.00    +0.000 A 
ATOM      6  C   UNL     1       3.659   7.813  17.720  0.00  0.00    +0.000 A 
ATOM      7  C   UNL     1       4.519   5.449  18.225  0.00  0.00    +0.000 C 
ATOM      8  C   UNL     1       3.872   4.321  19.048  0.00  0.00    +0.000 C 
ATOM      9  C   UNL     1       2.471   4.790  19.562  0.00  0.00    +0.000 C 
ATOM     10  C   UNL     1       2.408   4.739  21.105  0.00  0.00    +0.000 C 
ATOM     11  C   UNL     1       2.436   3.305  21.641  0.00  0.00    +0.000 C 
ATOM     12  C   UNL     1       1.324   2.454  21.035  0.00  0.00    +0.000 C 
ATOM     13  C   UNL     1       1.340   2.492  19.510  0.00  0.00    +0.000 C 
ATOM     14  C   UNL     1       1.336   3.925  18.972  0.00  0.00    +0.000 C 
ENDROOT
BRANCH   7  15
ATOM     15  N   UNL     1       4.772   5.056  16.858  0.00  0.00    +0.000 N 
ATOM     16  C   UNL     1       6.057   5.064  16.328  0.00  0.00    +0.000 C 
ATOM     17  O   UNL     1       7.025   5.450  16.988  0.00  0.00    +0.000 OA
ATOM     18  H   UNL     1       4.020   4.632  16.323  0.00  0.00    +0.000 HD
BRANCH  16  19
ATOM     19  C   UNL     1       6.162   4.583  14.865  0.00  0.00    +0.000 C 
ATOM     20  F   UNL     1       6.246   3.222  14.783  0.00  0.00    +0.000 F 
ATOM     21  F   UNL     1       5.083   4.943  14.120  0.00  0.00    +0.000 F 
ATOM     22  F   UNL     1       7.263   5.072  14.232  0.00  0.00    +0.000 F 
ENDBRANCH  16  19
ENDBRANCH   7  15
BRANCH   1  24
ATOM     23  C   UNL     1       1.961  11.014  18.152  0.00  0.00    +0.000 C 
ATOM     24  O   UNL     1       2.650  10.026  17.392  0.00  0.00    +0.000 OA
ENDBRANCH   1  24
TORSDOF 3
ENDMDL
MODEL 4
REMARK VINA RESULT:      -7.1      3.104      4.843
REMARK  Name = 
REMARK  4 active torsions:
REMARK  status: ('A' for Active; 'I' for Inactive)
REMARK    1  A    between atoms: C_1  and  O_2
REMARK    2  A    between atoms: O_2  and  C_3
REMARK    3  A    between atoms: C_9  and  N_10
REMARK    4  A    between atoms: C_11  and  C_13
REMARK                            x       y       z     vdW  Elec       q    Type
REMARK                         _______ _______ _______ _____ _____    ______ ____
ROOT
ATOM      1  C   UNL     1       1.818   3.494  19.567  0.00  0.00    +0.000 A 
ATOM      2  C   UNL     1       2.468   2.536  18.775  0.00  0.00    +0.000 A 
ATOM      3  C   UNL     1       3.513   2.894  17.913  0.00  0.00    +0.000 A 
ATOM      4  C   UNL     1       3.907   4.226  17.849  0.00  0.00    +0.000 A 
ATOM      5  C   UNL     1       3.258   5.174  18.636  0.00  0.00    +0.000 A 
ATOM      6  C   UNL     1       2.220   4.826  19.497  0.00  0.00    +0.000 A 
ATOM      7  C   UNL     1       3.823   6.544  18.466  0.00  0.00    +0.000 C 
ATOM      8  C   UNL     1       4.949   6.346  17.435  0.00  0.00    +0.000 C 
ATOM      9  C   UNL     1       4.994   4.843  16.997  0.00  0.00    +0.000 C 
ATOM     10  C   UNL     1       6.377   4.226  17.299  0.00  0.00    +0.000 C 
ATOM     11  C   UNL     1       7.481   4.808  16.412  0.00  0.00    +0.000 C 
ATOM     12  C   UNL     1       7.147   4.666  14.930  0.00  0.00    +0.000 C 
ATOM     13  C   UNL     1       5.779   5.250  14.592  0.00  0.00    +0.000 C 
ATOM     14  C   UNL     1       4.677   4.686  15.493  0.00  0.00    +0.000 C 
ENDROOT
BRANCH   7  15
ATOM     15  N   UNL     1       2.817   7.474  18.008  0.00  0.00    +0.000 N 
ATOM     16  C   UNL     1       2.074   8.236  18.903  0.00  0.00    +0.000 C 
ATOM     17  O   UNL     1       2.212   8.115  20.122  0.00  0.00    +0.000 OA
ATOM     18  H   UNL     1       2.754   7.677  17.015  0.00  0.00    +0.000 HD
BRANCH  16  19
ATOM     19  C   UNL     1       1.067   9.207  18.252  0.00  0.00    +0.000 C 
ATOM     20  F   UNL     1       0.103   9.606  19.134  0.00  0.00    +0.000 F 
ATOM     21  F   UNL     1       1.659  10.343  17.795  0.00  0.00    +0.000 F 
ATOM     22  F   UNL     1       0.411   8.649  17.197  0.00  0.00    +0.000 F 
ENDBRANCH  16  19
ENDBRANCH   7  15
BRANCH   1  24
ATOM     23  C   UNL     1       1.186   2.631  21.688  0.00  0.00    +0.000 C 
ATOM     24  O   UNL     1       0.816   3.010  20.366  0.00  0.00    +0.000 OA
ENDBRANCH   1  24
TORSDOF 3
ENDMDL
MODEL 5
REMARK VINA RESULT:      -6.5      4.268      8.191
REMARK  Name = 
REMARK  4 active torsions:
REMARK  status: ('A' for Active; 'I' for Inactive)
REMARK    1  A    between atoms: C_1  and  O_2
REMARK    2  A    between atoms: O_2  and  C_3
REMARK    3  A    between atoms: C_9  and  N_10
REMARK    4  A    between atoms: C_11  and  C_13
REMARK                            x       y       z     vdW  Elec       q    Type
REMARK                         _______ _______ _______ _____ _____    ______ ____
ROOT
ATOM      1  C   UNL     1      -2.515  10.016  16.799  0.00  0.00    +0.000 A 
ATOM      2  C   UNL     1      -3.399  10.780  17.574  0.00  0.00    +0.000 A 
ATOM      3  C   UNL     1      -2.966  11.446  18.727  0.00  0.00    +0.000 A 
ATOM      4  C   UNL     1      -1.631  11.344  19.103  0.00  0.00    +0.000 A 
ATOM      5  C   UNL     1      -0.755  10.583  18.332  0.00  0.00    +0.000 A 
ATOM      6  C   UNL     1      -1.178   9.919  17.182  0.00  0.00    +0.000 A 
ATOM      7  C   UNL     1       0.639  10.604  18.859  0.00  0.00    +0.000 C 
ATOM      8  C   UNL     1       0.541  11.499  20.108  0.00  0.00    +0.000 C 
ATOM      9  C   UNL     1      -0.942  11.962  20.299  0.00  0.00    +0.000 C 
ATOM     10  C   UNL     1      -1.042  13.504  20.282  0.00  0.00    +0.000 C 
ATOM     11  C   UNL     1      -0.389  14.143  21.510  0.00  0.00    +0.000 C 
ATOM     12  C   UNL     1      -0.966  13.587  22.809  0.00  0.00    +0.000 C 
ATOM     13  C   UNL     1      -0.902  12.064  22.859  0.00  0.00    +0.000 C 
ATOM     14  C   UNL     1      -1.534  11.424  21.621  0.00  0.00    +0.000 C 
ENDROOT
BRANCH   7  15
ATOM     15  N   UNL     1       1.102   9.272  19.174  0.00  0.00    +0.000 N 
ATOM     16  C   UNL     1       1.963   8.586  18.326  0.00  0.00    +0.000 C 
ATOM     17  O   UNL     1       2.331   9.067  17.253  0.00  0.00    +0.000 OA
ATOM     18  H   UNL     1       0.907   8.892  20.096  0.00  0.00    +0.000 HD
BRANCH  16  19
ATOM     19  C   UNL     1       2.392   7.189  18.825  0.00  0.00    +0.000 C 
ATOM     20  F   UNL     1       1.815   6.190  18.093  0.00  0.00    +0.000 F 
ATOM     21  F   UNL     1       3.735   6.996  18.741  0.00  0.00    +0.000 F 
ATOM     22  F   UNL     1       2.038   6.966  20.120  0.00  0.00    +0.000 F 
ENDBRANCH  16  19
ENDBRANCH   7  15
BRANCH   1  24
ATOM     23  C   UNL     1      -3.458  10.285  14.635  0.00  0.00    +0.000 C 
ATOM     24  O   UNL     1      -3.068   9.420  15.697  0.00  0.00    +0.000 OA
ENDBRANCH   1  24
TORSDOF 3
ENDMDL
MODEL 6
REMARK VINA RESULT:      -6.5      4.218      5.706
REMARK  Name = 
REMARK  4 active torsions:
REMARK  status: ('A' for Active; 'I' for Inactive)
REMARK    1  A    between atoms: C_1  and  O_2
REMARK    2  A    between atoms: O_2  and  C_3
REMARK    3  A    between atoms: C_9  and  N_10
REMARK    4  A    between atoms: C_11  and  C_13
REMARK                            x       y       z     vdW  Elec       q    Type
REMARK                         _______ _______ _______ _____ _____    ______ ____
ROOT
ATOM      1  C   UNL     1       2.859   8.295  17.605  0.00  0.00    +0.000 A 
ATOM      2  C   UNL     1       1.855   7.568  18.261  0.00  0.00    +0.000 A 
ATOM      3  C   UNL     1       2.029   6.215  18.580  0.00  0.00    +0.000 A 
ATOM      4  C   UNL     1       3.222   5.589  18.238  0.00  0.00    +0.000 A 
ATOM      5  C   UNL     1       4.217   6.315  17.585  0.00  0.00    +0.000 A 
ATOM      6  C   UNL     1       4.053   7.660  17.266  0.00  0.00    +0.000 A 
ATOM      7  C   UNL     1       5.438   5.501  17.319  0.00  0.00    +0.000 C 
ATOM      8  C   UNL     1       5.086   4.119  17.898  0.00  0.00    +0.000 C 
ATOM      9  C   UNL     1       3.630   4.152  18.471  0.00  0.00    +0.000 C 
ATOM     10  C   UNL     1       3.625   3.793  19.974  0.00  0.00    +0.000 C 
ATOM     11  C   UNL     1       3.990   2.327  20.224  0.00  0.00    +0.000 C 
ATOM     12  C   UNL     1       3.082   1.379  19.447  0.00  0.00    +0.000 C 
ATOM     13  C   UNL     1       3.046   1.710  17.959  0.00  0.00    +0.000 C 
ATOM     14  C   UNL     1       2.703   3.180  17.707  0.00  0.00    +0.000 C 
ENDROOT
BRANCH   7  15
ATOM     15  N   UNL     1       5.734   5.445  15.906  0.00  0.00    +0.000 N 
ATOM     16  C   UNL     1       6.918   4.890  15.435  0.00  0.00    +0.000 C 
ATOM     17  O   UNL     1       7.781   4.465  16.205  0.00  0.00    +0.000 OA
ATOM     18  H   UNL     1       5.002   5.685  15.243  0.00  0.00    +0.000 HD
BRANCH  16  19
ATOM     19  C   UNL     1       7.064   4.875  13.899  0.00  0.00    +0.000 C 
ATOM     20  F   UNL     1       6.080   5.598  13.287  0.00  0.00    +0.000 F 
ATOM     21  F   UNL     1       8.244   5.409  13.483  0.00  0.00    +0.000 F 
ATOM     22  F   UNL     1       6.993   3.618  13.380  0.00  0.00    +0.000 F 
ENDBRANCH  16  19
ENDBRANCH   7  15
BRANCH   1  24
ATOM     23  C   UNL     1       1.660  10.238  18.261  0.00  0.00    +0.000 C 
ATOM     24  O   UNL     1       2.561   9.608  17.356  0.00  0.00    +0.000 OA
ENDBRANCH   1  24
TORSDOF 3
ENDMDL
MODEL 7
REMARK VINA RESULT:      -6.3      3.389      5.558
REMARK  Name = 
REMARK  4 active torsions:
REMARK  status: ('A' for Active; 'I' for Inactive)
REMARK    1  A    between atoms: C_1  and  O_2
REMARK    2  A    between atoms: O_2  and  C_3
REMARK    3  A    between atoms: C_9  and  N_10
REMARK    4  A    between atoms: C_11  and  C_13
REMARK                            x       y       z     vdW  Elec       q    Type
REMARK                         _______ _______ _______ _____ _____    ______ ____
ROOT
ATOM      1  C   UNL     1       6.532   6.706  17.591  0.00  0.00    +0.000 A 
ATOM      2  C   UNL     1       6.786   5.781  18.613  0.00  0.00    +0.000 A 
ATOM      3  C   UNL     1       5.756   5.018  19.177  0.00  0.00    +0.000 A 
ATOM      4  C   UNL     1       4.458   5.187  18.706  0.00  0.00    +0.000 A 
ATOM      5  C   UNL     1       4.208   6.108  17.691  0.00  0.00    +0.000 A 
ATOM      6  C   UNL     1       5.228   6.869  17.125  0.00  0.00    +0.000 A 
ATOM      7  C   UNL     1       2.773   6.141  17.288  0.00  0.00    +0.000 C 
ATOM      8  C   UNL     1       2.115   5.095  18.205  0.00  0.00    +0.000 C 
ATOM      9  C   UNL     1       3.196   4.488  19.160  0.00  0.00    +0.000 C 
ATOM     10  C   UNL     1       3.293   2.957  18.975  0.00  0.00    +0.000 C 
ATOM     11  C   UNL     1       2.041   2.230  19.474  0.00  0.00    +0.000 C 
ATOM     12  C   UNL     1       1.731   2.572  20.928  0.00  0.00    +0.000 C 
ATOM     13  C   UNL     1       1.644   4.077  21.157  0.00  0.00    +0.000 C 
ATOM     14  C   UNL     1       2.885   4.808  20.639  0.00  0.00    +0.000 C 
ENDROOT
BRANCH   7  15
ATOM     15  N   UNL     1       2.209   7.459  17.465  0.00  0.00    +0.000 N 
ATOM     16  C   UNL     1       2.066   8.023  18.727  0.00  0.00    +0.000 C 
ATOM     17  O   UNL     1       2.373   7.405  19.748  0.00  0.00    +0.000 OA
ATOM     18  H   UNL     1       2.048   8.036  16.644  0.00  0.00    +0.000 HD
BRANCH  16  19
ATOM     19  C   UNL     1       1.480   9.451  18.740  0.00  0.00    +0.000 C 
ATOM     20  F   UNL     1       2.307  10.346  18.123  0.00  0.00    +0.000 F 
ATOM     21  F   UNL     1       0.284   9.529  18.096  0.00  0.00    +0.000 F 
ATOM     22  F   UNL     1       1.282   9.922  20.002  0.00  0.00    +0.000 F 
ENDBRANCH  16  19
ENDBRANCH   7  15
BRANCH   1  24
ATOM     23  C   UNL     1       8.008   8.548  17.853  0.00  0.00    +0.000 C 
ATOM     24  O   UNL     1       7.628   7.383  17.128  0.00  0.00    +0.000 OA
ENDBRANCH   1  24
TORSDOF 3
ENDMDL
MODEL 8
REMARK VINA RESULT:      -6.3      5.001      9.026
REMARK  Name = 
REMARK  4 active torsions:
REMARK  status: ('A' for Active; 'I' for Inactive)
REMARK    1  A    between atoms: C_1  and  O_2
REMARK    2  A    between atoms: O_2  and  C_3
REMARK    3  A    between atoms: C_9  and  N_10
REMARK    4  A    between atoms: C_11  and  C_13
REMARK                            x       y       z     vdW  Elec       q    Type
REMARK                         _______ _______ _______ _____ _____    ______ ____
ROOT
ATOM      1  C   UNL     1      -3.456  11.079  16.914  0.00  0.00    +0.000 A 
ATOM      2  C   UNL     1      -4.260  11.648  17.913  0.00  0.00    +0.000 A 
ATOM      3  C   UNL     1      -3.705  12.133  19.104  0.00  0.00    +0.000 A 
ATOM      4  C   UNL     1      -2.330  12.045  19.292  0.00  0.00    +0.000 A 
ATOM      5  C   UNL     1      -1.535  11.479  18.298  0.00  0.00    +0.000 A 
ATOM      6  C   UNL     1      -2.079  10.996  17.110  0.00  0.00    +0.000 A 
ATOM      7  C   UNL     1      -0.086  11.490  18.649  0.00  0.00    +0.000 C 
ATOM      8  C   UNL     1      -0.054  12.153  20.037  0.00  0.00    +0.000 C 
ATOM      9  C   UNL     1      -1.515  12.490  20.485  0.00  0.00    +0.000 C 
ATOM     10  C   UNL     1      -1.671  14.004  20.752  0.00  0.00    +0.000 C 
ATOM     11  C   UNL     1      -0.888  14.462  21.985  0.00  0.00    +0.000 C 
ATOM     12  C   UNL     1      -1.272  13.662  23.226  0.00  0.00    +0.000 C 
ATOM     13  C   UNL     1      -1.147  12.158  22.999  0.00  0.00    +0.000 C 
ATOM     14  C   UNL     1      -1.911  11.702  21.754  0.00  0.00    +0.000 C 
ENDROOT
BRANCH   7  15
ATOM     15  N   UNL     1       0.461  10.153  18.666  0.00  0.00    +0.000 N 
ATOM     16  C   UNL     1       1.718   9.877  18.139  0.00  0.00    +0.000 C 
ATOM     17  O   UNL     1       2.396  10.753  17.597  0.00  0.00    +0.000 OA
ATOM     18  H   UNL     1      -0.020   9.435  19.199  0.00  0.00    +0.000 HD
BRANCH  16  19
ATOM     19  C   UNL     1       2.170   8.408  18.268  0.00  0.00    +0.000 C 
ATOM     20  F   UNL     1       1.407   7.572  17.504  0.00  0.00    +0.000 F 
ATOM     21  F   UNL     1       3.457   8.221  17.868  0.00  0.00    +0.000 F 
ATOM     22  F   UNL     1       2.082   7.944  19.545  0.00  0.00    +0.000 F 
ENDBRANCH  16  19
ENDBRANCH   7  15
BRANCH   1  24
ATOM     23  C   UNL     1      -3.323  10.243  14.695  0.00  0.00    +0.000 C 
ATOM     24  O   UNL     1      -4.125  10.648  15.800  0.00  0.00    +0.000 OA
ENDBRANCH   1  24
TORSDOF 3
ENDMDL
MODEL 9
REMARK VINA RESULT:      -6.2      3.489      6.045
REMARK  Name = 
REMARK  4 active torsions:
REMARK  status: ('A' for Active; 'I' for Inactive)
REMARK    1  A    between atoms: C_1  and  O_2
REMARK    2  A    between atoms: O_2  and  C_3
REMARK    3  A    between atoms: C_9  and  N_10
REMARK    4  A    between atoms: C_11  and  C_13
REMARK                            x       y       z     vdW  Elec       q    Type
REMARK                         _______ _______ _______ _____ _____    ______ ____
ROOT
ATOM      1  C   UNL     1       6.042   5.755  16.556  0.00  0.00    +0.000 A 
ATOM      2  C   UNL     1       6.211   4.586  17.312  0.00  0.00    +0.000 A 
ATOM      3  C   UNL     1       5.187   4.095  18.131  0.00  0.00    +0.000 A 
ATOM      4  C   UNL     1       3.981   4.785  18.189  0.00  0.00    +0.000 A 
ATOM      5  C   UNL     1       3.816   5.947  17.437  0.00  0.00    +0.000 A 
ATOM      6  C   UNL     1       4.830   6.440  16.619  0.00  0.00    +0.000 A 
ATOM      7  C   UNL     1       2.459   6.542  17.594  0.00  0.00    +0.000 C 
ATOM      8  C   UNL     1       1.754   5.587  18.574  0.00  0.00    +0.000 C 
ATOM      9  C   UNL     1       2.747   4.454  18.997  0.00  0.00    +0.000 C 
ATOM     10  C   UNL     1       2.180   3.064  18.631  0.00  0.00    +0.000 C 
ATOM     11  C   UNL     1       0.957   2.694  19.475  0.00  0.00    +0.000 C 
ATOM     12  C   UNL     1       1.258   2.768  20.969  0.00  0.00    +0.000 C 
ATOM     13  C   UNL     1       1.836   4.122  21.369  0.00  0.00    +0.000 C 
ATOM     14  C   UNL     1       3.046   4.504  20.512  0.00  0.00    +0.000 C 
ENDROOT
BRANCH   7  15
ATOM     15  N   UNL     1       2.533   7.893  18.101  0.00  0.00    +0.000 N 
ATOM     16  C   UNL     1       1.497   8.799  17.905  0.00  0.00    +0.000 C 
ATOM     17  O   UNL     1       0.494   8.500  17.253  0.00  0.00    +0.000 OA
ATOM     18  H   UNL     1       3.290   8.137  18.733  0.00  0.00    +0.000 HD
BRANCH  16  19
ATOM     19  C   UNL     1       1.716  10.188  18.541  0.00  0.00    +0.000 C 
ATOM     20  F   UNL     1       2.819  10.811  18.030  0.00  0.00    +0.000 F 
ATOM     21  F   UNL     1       0.670  11.030  18.328  0.00  0.00    +0.000 F 
ATOM     22  F   UNL     1       1.904  10.122  19.888  0.00  0.00    +0.000 F 
ENDBRANCH  16  19
ENDBRANCH   7  15
BRANCH   1  24
ATOM     23  C   UNL     1       7.404   5.311  14.662  0.00  0.00    +0.000 C 
ATOM     24  O   UNL     1       7.121   6.123  15.797  0.00  0.00    +0.000 OA
ENDBRANCH   1  24
TORSDOF 3
ENDMDL
