MODEL 1
REMARK VINA RESULT:      -8.7      0.000      0.000
REMARK  Name = 
REMARK  13 active torsions:
REMARK  status: ('A' for Active; 'I' for Inactive)
REMARK    1  A    between atoms: C_1  and  C_2
REMARK    2  A    between atoms: C_2  and  O_3
REMARK    3  A    between atoms: O_3  and  C_4
REMARK    4  A    between atoms: C_6  and  C_7
REMARK    5  A    between atoms: C_7  and  C_8
REMARK    6  A    between atoms: C_13  and  C_14
REMARK    7  A    between atoms: C_14  and  C_15
REMARK    8  A    between atoms: C_18  and  O_19
REMARK    9  A    between atoms: O_19  and  C_20
REMARK   10  A    between atoms: C_21  and  O_22
REMARK   11  A    between atoms: O_22  and  C_23
REMARK   12  A    between atoms: C_23  and  C_24
REMARK   13  A    between atoms: C_28  and  O_29
REMARK                            x       y       z     vdW  Elec       q    Type
REMARK                         _______ _______ _______ _____ _____    ______ ____
ROOT
ATOM      1  C   UNL     1       2.597   4.150  20.153  0.00  0.00    +0.000 C 
ATOM      2  C   UNL     1       2.314   2.921  20.986  0.00  0.00    +0.000 C 
ATOM      3  O   UNL     1       2.851   2.628  22.041  0.00  0.00    +0.000 OA
ATOM      4  O   UNL     1       1.367   2.142  20.392  0.00  0.00    +0.000 OA
ATOM      5  C   UNL     1       0.848   2.797  19.241  0.00  0.00    +0.000 C 
ATOM      6  C   UNL     1       1.878   3.834  18.833  0.00  0.00    +0.000 C 
ENDROOT
BRANCH   1   7
ATOM      7  C   UNL     1       2.032   5.433  20.774  0.00  0.00    +0.000 C 
BRANCH   7  10
ATOM      8  C   UNL     1       1.476   9.004  19.485  0.00  0.00    +0.000 A 
ATOM      9  C   UNL     1       1.478   7.873  20.318  0.00  0.00    +0.000 A 
ATOM     10  C   UNL     1       2.025   6.654  19.890  0.00  0.00    +0.000 A 
ATOM     11  C   UNL     1       2.614   6.592  18.622  0.00  0.00    +0.000 A 
ATOM     12  C   UNL     1       2.627   7.711  17.789  0.00  0.00    +0.000 A 
ATOM     13  C   UNL     1       2.053   8.911  18.215  0.00  0.00    +0.000 A 
BRANCH  13  14
ATOM     14  O   UNL     1       2.115   9.989  17.374  0.00  0.00    +0.000 OA
ATOM     15  H   UNL     1       1.731   9.742  16.516  0.00  0.00    +0.000 HD
ENDBRANCH  13  14
BRANCH   8  16
ATOM     16  O   UNL     1       0.949  10.122  20.076  0.00  0.00    +0.000 OA
BRANCH  16  18
ATOM     17  C   UNL     1      -0.339  10.586  22.018  0.00  0.00    +0.000 C 
ATOM     18  C   UNL     1      -0.369  10.011  20.610  0.00  0.00    +0.000 C 
ENDBRANCH  16  18
ENDBRANCH   8  16
ENDBRANCH   7  10
ENDBRANCH   1   7
BRANCH   6  19
ATOM     19  C   UNL     1       2.820   3.280  17.747  0.00  0.00    +0.000 C 
BRANCH  19  20
ATOM     20  C   UNL     1       4.122   4.030  17.569  0.00  0.00    +0.000 A 
ATOM     21  C   UNL     1       4.932   4.243  18.684  0.00  0.00    +0.000 A 
ATOM     22  C   UNL     1       6.125   4.959  18.572  0.00  0.00    +0.000 A 
ATOM     23  C   UNL     1       6.555   5.475  17.341  0.00  0.00    +0.000 A 
ATOM     24  C   UNL     1       5.781   5.215  16.197  0.00  0.00    +0.000 A 
ATOM     25  C   UNL     1       4.581   4.490  16.325  0.00  0.00    +0.000 A 
BRANCH  23  26
ATOM     26  O   UNL     1       7.696   6.216  17.206  0.00  0.00    +0.000 OA
ATOM     27  C   UNL     1       7.690   7.566  17.645  0.00  0.00    +0.000 C 
ENDBRANCH  23  26
BRANCH  24  28
ATOM     28  O   UNL     1       6.030   5.582  14.894  0.00  0.00    +0.000 OA
BRANCH  28  29
ATOM     29  C   UNL     1       6.976   4.825  14.142  0.00  0.00    +0.000 C 
ATOM     30  C   UNL     1       6.232   3.871  13.225  0.00  0.00    +0.000 C 
ENDBRANCH  28  29
ENDBRANCH  24  28
ENDBRANCH  19  20
ENDBRANCH   6  19
TORSDOF 10
ENDMDL
MODEL 2
REMARK VINA RESULT:      -8.1      1.096      2.535
REMARK  Name = 
REMARK  13 active torsions:
REMARK  status: ('A' for Active; 'I' for Inactive)
REMARK    1  A    between atoms: C_1  and  C_2
REMARK    2  A    between atoms: C_2  and  O_3
REMARK    3  A    between atoms: O_3  and  C_4
REMARK    4  A    between atoms: C_6  and  C_7
REMARK    5  A    between atoms: C_7  and  C_8
REMARK    6  A    between atoms: C_13  and  C_14
REMARK    7  A    between atoms: C_14  and  C_15
REMARK    8  A    between atoms: C_18  and  O_19
REMARK    9  A    between atoms: O_19  and  C_20
REMARK   10  A    between atoms: C_21  and  O_22
REMARK   11  A    between atoms: O_22  and  C_23
REMARK   12  A    between atoms: C_23  and  C_24
REMARK   13  A    between atoms: C_28  and  O_29
REMARK                            x       y       z     vdW  Elec       q    Type
REMARK                         _______ _______ _______ _____ _____    ______ ____
ROOT
ATOM      1  C   UNL     1       2.986   4.031  19.592  0.00  0.00    +0.000 C 
ATOM      2  C   UNL     1       1.689   3.271  19.752  0.00  0.00    +0.000 C 
ATOM      3  O   UNL     1       1.331   2.661  20.745  0.00  0.00    +0.000 OA
ATOM      4  O   UNL     1       0.949   3.333  18.610  0.00  0.00    +0.000 OA
ATOM      5  C   UNL     1       1.570   4.205  17.673  0.00  0.00    +0.000 C 
ATOM      6  C   UNL     1       3.027   4.314  18.083  0.00  0.00    +0.000 C 
ENDROOT
BRANCH   1   7
ATOM      7  C   UNL     1       3.006   5.346  20.381  0.00  0.00    +0.000 C 
BRANCH   7  10
ATOM      8  C   UNL     1       1.441   8.691  19.339  0.00  0.00    +0.000 A 
ATOM      9  C   UNL     1       1.742   7.531  20.072  0.00  0.00    +0.000 A 
ATOM     10  C   UNL     1       2.676   6.595  19.603  0.00  0.00    +0.000 A 
ATOM     11  C   UNL     1       3.341   6.856  18.401  0.00  0.00    +0.000 A 
ATOM     12  C   UNL     1       3.058   8.008  17.667  0.00  0.00    +0.000 A 
ATOM     13  C   UNL     1       2.106   8.920  18.129  0.00  0.00    +0.000 A 
BRANCH  13  14
ATOM     14  O   UNL     1       1.883  10.049  17.390  0.00  0.00    +0.000 OA
ATOM     15  H   UNL     1       2.230  10.816  17.875  0.00  0.00    +0.000 HD
ENDBRANCH  13  14
BRANCH   8  16
ATOM     16  O   UNL     1       0.547   9.521  19.962  0.00  0.00    +0.000 OA
BRANCH  16  18
ATOM     17  C   UNL     1      -0.380   9.368  22.144  0.00  0.00    +0.000 C 
ATOM     18  C   UNL     1       0.809   9.847  21.326  0.00  0.00    +0.000 C 
ENDBRANCH  16  18
ENDBRANCH   8  16
ENDBRANCH   7  10
ENDBRANCH   1   7
BRANCH   6  19
ATOM     19  C   UNL     1       3.896   3.310  17.302  0.00  0.00    +0.000 C 
BRANCH  19  20
ATOM     20  C   UNL     1       4.963   3.922  16.419  0.00  0.00    +0.000 A 
ATOM     21  C   UNL     1       5.098   3.460  15.110  0.00  0.00    +0.000 A 
ATOM     22  C   UNL     1       6.090   3.971  14.272  0.00  0.00    +0.000 A 
ATOM     23  C   UNL     1       6.972   4.969  14.709  0.00  0.00    +0.000 A 
ATOM     24  C   UNL     1       6.809   5.491  16.004  0.00  0.00    +0.000 A 
ATOM     25  C   UNL     1       5.803   4.965  16.837  0.00  0.00    +0.000 A 
BRANCH  23  26
ATOM     26  O   UNL     1       7.980   5.461  13.927  0.00  0.00    +0.000 OA
ATOM     27  C   UNL     1       7.835   5.412  12.515  0.00  0.00    +0.000 C 
ENDBRANCH  23  26
BRANCH  24  28
ATOM     28  O   UNL     1       7.524   6.493  16.619  0.00  0.00    +0.000 OA
BRANCH  28  29
ATOM     29  C   UNL     1       7.462   6.598  18.040  0.00  0.00    +0.000 C 
ATOM     30  C   UNL     1       8.227   7.834  18.480  0.00  0.00    +0.000 C 
ENDBRANCH  28  29
ENDBRANCH  24  28
ENDBRANCH  19  20
ENDBRANCH   6  19
TORSDOF 10
ENDMDL
MODEL 3
REMARK VINA RESULT:      -8.1      0.916      2.382
REMARK  Name = 
REMARK  13 active torsions:
REMARK  status: ('A' for Active; 'I' for Inactive)
REMARK    1  A    between atoms: C_1  and  C_2
REMARK    2  A    between atoms: C_2  and  O_3
REMARK    3  A    between atoms: O_3  and  C_4
REMARK    4  A    between atoms: C_6  and  C_7
REMARK    5  A    between atoms: C_7  and  C_8
REMARK    6  A    between atoms: C_13  and  C_14
REMARK    7  A    between atoms: C_14  and  C_15
REMARK    8  A    between atoms: C_18  and  O_19
REMARK    9  A    between atoms: O_19  and  C_20
REMARK   10  A    between atoms: C_21  and  O_22
REMARK   11  A    between atoms: O_22  and  C_23
REMARK   12  A    between atoms: C_23  and  C_24
REMARK   13  A    between atoms: C_28  and  O_29
REMARK                            x       y       z     vdW  Elec       q    Type
REMARK                         _______ _______ _______ _____ _____    ______ ____
ROOT
ATOM      1  C   UNL     1       2.691   4.310  20.706  0.00  0.00    +0.000 C 
ATOM      2  C   UNL     1       2.253   2.948  21.194  0.00  0.00    +0.000 C 
ATOM      3  O   UNL     1       2.043   2.634  22.353  0.00  0.00    +0.000 OA
ATOM      4  O   UNL     1       2.134   2.077  20.153  0.00  0.00    +0.000 OA
ATOM      5  C   UNL     1       2.331   2.759  18.921  0.00  0.00    +0.000 C 
ATOM      6  C   UNL     1       3.089   4.032  19.248  0.00  0.00    +0.000 C 
ENDROOT
BRANCH   1   7
ATOM      7  C   UNL     1       1.568   5.352  20.763  0.00  0.00    +0.000 C 
BRANCH   7  10
ATOM      8  C   UNL     1       1.492   8.975  19.500  0.00  0.00    +0.000 A 
ATOM      9  C   UNL     1       1.320   7.843  20.314  0.00  0.00    +0.000 A 
ATOM     10  C   UNL     1       1.749   6.574  19.898  0.00  0.00    +0.000 A 
ATOM     11  C   UNL     1       2.396   6.457  18.663  0.00  0.00    +0.000 A 
ATOM     12  C   UNL     1       2.581   7.574  17.849  0.00  0.00    +0.000 A 
ATOM     13  C   UNL     1       2.124   8.829  18.261  0.00  0.00    +0.000 A 
BRANCH  13  14
ATOM     14  O   UNL     1       2.354   9.900  17.442  0.00  0.00    +0.000 OA
ATOM     15  H   UNL     1       3.227   9.798  17.028  0.00  0.00    +0.000 HD
ENDBRANCH  13  14
BRANCH   8  16
ATOM     16  O   UNL     1       1.062  10.140  20.078  0.00  0.00    +0.000 OA
BRANCH  16  18
ATOM     17  C   UNL     1      -0.156  12.104  19.527  0.00  0.00    +0.000 C 
ATOM     18  C   UNL     1      -0.240  10.598  19.720  0.00  0.00    +0.000 C 
ENDBRANCH  16  18
ENDBRANCH   8  16
ENDBRANCH   7  10
ENDBRANCH   1   7
BRANCH   6  19
ATOM     19  C   UNL     1       4.605   3.836  19.060  0.00  0.00    +0.000 C 
BRANCH  19  20
ATOM     20  C   UNL     1       5.175   4.368  17.762  0.00  0.00    +0.000 A 
ATOM     21  C   UNL     1       4.665   3.885  16.557  0.00  0.00    +0.000 A 
ATOM     22  C   UNL     1       5.184   4.322  15.337  0.00  0.00    +0.000 A 
ATOM     23  C   UNL     1       6.220   5.265  15.280  0.00  0.00    +0.000 A 
ATOM     24  C   UNL     1       6.702   5.808  16.483  0.00  0.00    +0.000 A 
ATOM     25  C   UNL     1       6.168   5.358  17.705  0.00  0.00    +0.000 A 
BRANCH  23  26
ATOM     26  O   UNL     1       6.778   5.682  14.103  0.00  0.00    +0.000 OA
ATOM     27  C   UNL     1       7.597   4.777  13.377  0.00  0.00    +0.000 C 
ENDBRANCH  23  26
BRANCH  24  28
ATOM     28  O   UNL     1       7.673   6.767  16.661  0.00  0.00    +0.000 OA
BRANCH  28  29
ATOM     29  C   UNL     1       7.863   7.309  17.966  0.00  0.00    +0.000 C 
ATOM     30  C   UNL     1       8.054   8.811  17.857  0.00  0.00    +0.000 C 
ENDBRANCH  28  29
ENDBRANCH  24  28
ENDBRANCH  19  20
ENDBRANCH   6  19
TORSDOF 10
ENDMDL
MODEL 4
REMARK VINA RESULT:      -8.0      1.690      7.231
REMARK  Name = 
REMARK  13 active torsions:
REMARK  status: ('A' for Active; 'I' for Inactive)
REMARK    1  A    between atoms: C_1  and  C_2
REMARK    2  A    between atoms: C_2  and  O_3
REMARK    3  A    between atoms: O_3  and  C_4
REMARK    4  A    between atoms: C_6  and  C_7
REMARK    5  A    between atoms: C_7  and  C_8
REMARK    6  A    between atoms: C_13  and  C_14
REMARK    7  A    between atoms: C_14  and  C_15
REMARK    8  A    between atoms: C_18  and  O_19
REMARK    9  A    between atoms: O_19  and  C_20
REMARK   10  A    between atoms: C_21  and  O_22
REMARK   11  A    between atoms: O_22  and  C_23
REMARK   12  A    between atoms: C_23  and  C_24
REMARK   13  A    between atoms: C_28  and  O_29
REMARK                            x       y       z     vdW  Elec       q    Type
REMARK                         _______ _______ _______ _____ _____    ______ ____
ROOT
ATOM      1  C   UNL     1       2.728   4.992  18.428  0.00  0.00    +0.000 C 
ATOM      2  C   UNL     1       1.592   4.090  18.853  0.00  0.00    +0.000 C 
ATOM      3  O   UNL     1       1.162   3.134  18.230  0.00  0.00    +0.000 OA
ATOM      4  O   UNL     1       1.075   4.494  20.047  0.00  0.00    +0.000 OA
ATOM      5  C   UNL     1       1.854   5.558  20.580  0.00  0.00    +0.000 C 
ATOM      6  C   UNL     1       2.616   6.162  19.416  0.00  0.00    +0.000 C 
ENDROOT
BRANCH   1   7
ATOM      7  C   UNL     1       4.100   4.319  18.551  0.00  0.00    +0.000 C 
BRANCH   7  10
ATOM      8  C   UNL     1       6.865   5.952  16.449  0.00  0.00    +0.000 A 
ATOM      9  C   UNL     1       5.954   5.699  17.488  0.00  0.00    +0.000 A 
ATOM     10  C   UNL     1       5.082   4.601  17.442  0.00  0.00    +0.000 A 
ATOM     11  C   UNL     1       5.161   3.728  16.352  0.00  0.00    +0.000 A 
ATOM     12  C   UNL     1       6.066   3.963  15.316  0.00  0.00    +0.000 A 
ATOM     13  C   UNL     1       6.910   5.075  15.360  0.00  0.00    +0.000 A 
BRANCH  13  14
ATOM     14  O   UNL     1       7.801   5.249  14.337  0.00  0.00    +0.000 OA
ATOM     15  H   UNL     1       7.869   6.197  14.134  0.00  0.00    +0.000 HD
ENDBRANCH  13  14
BRANCH   8  16
ATOM     16  O   UNL     1       7.674   7.033  16.677  0.00  0.00    +0.000 OA
BRANCH  16  18
ATOM     17  C   UNL     1       8.168   8.940  18.005  0.00  0.00    +0.000 C 
ATOM     18  C   UNL     1       7.818   7.460  18.030  0.00  0.00    +0.000 C 
ENDBRANCH  16  18
ENDBRANCH   8  16
ENDBRANCH   7  10
ENDBRANCH   1   7
BRANCH   6  19
ATOM     19  C   UNL     1       1.866   7.376  18.836  0.00  0.00    +0.000 C 
BRANCH  19  20
ATOM     20  C   UNL     1       1.411   8.406  19.848  0.00  0.00    +0.000 A 
ATOM     21  C   UNL     1       1.293   8.027  21.185  0.00  0.00    +0.000 A 
ATOM     22  C   UNL     1       0.844   8.935  22.146  0.00  0.00    +0.000 A 
ATOM     23  C   UNL     1       0.510  10.253  21.806  0.00  0.00    +0.000 A 
ATOM     24  C   UNL     1       0.684  10.669  20.475  0.00  0.00    +0.000 A 
ATOM     25  C   UNL     1       1.138   9.743  19.517  0.00  0.00    +0.000 A 
BRANCH  23  26
ATOM     26  O   UNL     1       0.029  11.154  22.716  0.00  0.00    +0.000 OA
ATOM     27  C   UNL     1      -1.329  11.056  23.120  0.00  0.00    +0.000 C 
ENDBRANCH  23  26
BRANCH  24  28
ATOM     28  O   UNL     1       0.464  11.914  19.931  0.00  0.00    +0.000 OA
BRANCH  28  29
ATOM     29  C   UNL     1       1.586  12.662  19.467  0.00  0.00    +0.000 C 
ATOM     30  C   UNL     1       2.282  13.301  20.655  0.00  0.00    +0.000 C 
ENDBRANCH  28  29
ENDBRANCH  24  28
ENDBRANCH  19  20
ENDBRANCH   6  19
TORSDOF 10
ENDMDL
MODEL 5
REMARK VINA RESULT:      -8.0      1.210      1.542
REMARK  Name = 
REMARK  13 active torsions:
REMARK  status: ('A' for Active; 'I' for Inactive)
REMARK    1  A    between atoms: C_1  and  C_2
REMARK    2  A    between atoms: C_2  and  O_3
REMARK    3  A    between atoms: O_3  and  C_4
REMARK    4  A    between atoms: C_6  and  C_7
REMARK    5  A    between atoms: C_7  and  C_8
REMARK    6  A    between atoms: C_13  and  C_14
REMARK    7  A    between atoms: C_14  and  C_15
REMARK    8  A    between atoms: C_18  and  O_19
REMARK    9  A    between atoms: O_19  and  C_20
REMARK   10  A    between atoms: C_21  and  O_22
REMARK   11  A    between atoms: O_22  and  C_23
REMARK   12  A    between atoms: C_23  and  C_24
REMARK   13  A    between atoms: C_28  and  O_29
REMARK                            x       y       z     vdW  Elec       q    Type
REMARK                         _______ _______ _______ _____ _____    ______ ____
ROOT
ATOM      1  C   UNL     1       2.788   4.107  20.392  0.00  0.00    +0.000 C 
ATOM      2  C   UNL     1       2.408   2.903  21.223  0.00  0.00    +0.000 C 
ATOM      3  O   UNL     1       1.882   2.927  22.323  0.00  0.00    +0.000 OA
ATOM      4  O   UNL     1       2.750   1.749  20.586  0.00  0.00    +0.000 OA
ATOM      5  C   UNL     1       3.238   2.038  19.282  0.00  0.00    +0.000 C 
ATOM      6  C   UNL     1       3.667   3.493  19.293  0.00  0.00    +0.000 C 
ENDROOT
BRANCH   1   7
ATOM      7  C   UNL     1       1.575   4.811  19.774  0.00  0.00    +0.000 C 
BRANCH   7  10
ATOM      8  C   UNL     1       1.602   8.646  19.896  0.00  0.00    +0.000 A 
ATOM      9  C   UNL     1       1.420   7.302  20.262  0.00  0.00    +0.000 A 
ATOM     10  C   UNL     1       1.766   6.257  19.392  0.00  0.00    +0.000 A 
ATOM     11  C   UNL     1       2.340   6.575  18.157  0.00  0.00    +0.000 A 
ATOM     12  C   UNL     1       2.533   7.906  17.784  0.00  0.00    +0.000 A 
ATOM     13  C   UNL     1       2.159   8.939  18.647  0.00  0.00    +0.000 A 
BRANCH  13  14
ATOM     14  O   UNL     1       2.394  10.227  18.250  0.00  0.00    +0.000 OA
ATOM     15  H   UNL     1       3.332  10.435  18.394  0.00  0.00    +0.000 HD
ENDBRANCH  13  14
BRANCH   8  16
ATOM     16  O   UNL     1       1.258   9.536  20.879  0.00  0.00    +0.000 OA
BRANCH  16  18
ATOM     17  C   UNL     1      -0.177   9.916  22.734  0.00  0.00    +0.000 C 
ATOM     18  C   UNL     1       0.874   8.991  22.140  0.00  0.00    +0.000 C 
ENDBRANCH  16  18
ENDBRANCH   8  16
ENDBRANCH   7  10
ENDBRANCH   1   7
BRANCH   6  19
ATOM     19  C   UNL     1       5.176   3.621  19.579  0.00  0.00    +0.000 C 
BRANCH  19  20
ATOM     20  C   UNL     1       5.886   4.738  18.845  0.00  0.00    +0.000 A 
ATOM     21  C   UNL     1       6.974   5.359  19.459  0.00  0.00    +0.000 A 
ATOM     22  C   UNL     1       7.636   6.416  18.833  0.00  0.00    +0.000 A 
ATOM     23  C   UNL     1       7.244   6.880  17.569  0.00  0.00    +0.000 A 
ATOM     24  C   UNL     1       6.190   6.223  16.911  0.00  0.00    +0.000 A 
ATOM     25  C   UNL     1       5.531   5.158  17.554  0.00  0.00    +0.000 A 
BRANCH  23  26
ATOM     26  O   UNL     1       7.845   7.939  16.949  0.00  0.00    +0.000 OA
ATOM     27  C   UNL     1       8.024   9.145  17.676  0.00  0.00    +0.000 C 
ENDBRANCH  23  26
BRANCH  24  28
ATOM     28  O   UNL     1       5.671   6.477  15.662  0.00  0.00    +0.000 OA
BRANCH  28  29
ATOM     29  C   UNL     1       5.550   5.395  14.742  0.00  0.00    +0.000 C 
ATOM     30  C   UNL     1       6.930   4.828  14.459  0.00  0.00    +0.000 C 
ENDBRANCH  28  29
ENDBRANCH  24  28
ENDBRANCH  19  20
ENDBRANCH   6  19
TORSDOF 10
ENDMDL
MODEL 6
REMARK VINA RESULT:      -7.9      1.670      7.197
REMARK  Name = 
REMARK  13 active torsions:
REMARK  status: ('A' for Active; 'I' for Inactive)
REMARK    1  A    between atoms: C_1  and  C_2
REMARK    2  A    between atoms: C_2  and  O_3
REMARK    3  A    between atoms: O_3  and  C_4
REMARK    4  A    between atoms: C_6  and  C_7
REMARK    5  A    between atoms: C_7  and  C_8
REMARK    6  A    between atoms: C_13  and  C_14
REMARK    7  A    between atoms: C_14  and  C_15
REMARK    8  A    between atoms: C_18  and  O_19
REMARK    9  A    between atoms: O_19  and  C_20
REMARK   10  A    between atoms: C_21  and  O_22
REMARK   11  A    between atoms: O_22  and  C_23
REMARK   12  A    between atoms: C_23  and  C_24
REMARK   13  A    between atoms: C_28  and  O_29
REMARK                            x       y       z     vdW  Elec       q    Type
REMARK                         _______ _______ _______ _____ _____    ______ ____
ROOT
ATOM      1  C   UNL     1       2.635   5.140  18.521  0.00  0.00    +0.000 C 
ATOM      2  C   UNL     1       1.617   4.583  19.489  0.00  0.00    +0.000 C 
ATOM      3  O   UNL     1       1.103   3.478  19.434  0.00  0.00    +0.000 OA
ATOM      4  O   UNL     1       1.317   5.497  20.454  0.00  0.00    +0.000 OA
ATOM      5  C   UNL     1       2.155   6.638  20.321  0.00  0.00    +0.000 C 
ATOM      6  C   UNL     1       2.678   6.628  18.897  0.00  0.00    +0.000 C 
ENDROOT
BRANCH   1   7
ATOM      7  C   UNL     1       4.022   4.509  18.687  0.00  0.00    +0.000 C 
BRANCH   7  10
ATOM      8  C   UNL     1       6.847   6.021  16.574  0.00  0.00    +0.000 A 
ATOM      9  C   UNL     1       5.937   5.801  17.622  0.00  0.00    +0.000 A 
ATOM     10  C   UNL     1       5.005   4.754  17.569  0.00  0.00    +0.000 A 
ATOM     11  C   UNL     1       5.021   3.897  16.464  0.00  0.00    +0.000 A 
ATOM     12  C   UNL     1       5.925   4.099  15.421  0.00  0.00    +0.000 A 
ATOM     13  C   UNL     1       6.830   5.162  15.471  0.00  0.00    +0.000 A 
BRANCH  13  14
ATOM     14  O   UNL     1       7.716   5.303  14.438  0.00  0.00    +0.000 OA
ATOM     15  H   UNL     1       7.777   4.461  13.958  0.00  0.00    +0.000 HD
ENDBRANCH  13  14
BRANCH   8  16
ATOM     16  O   UNL     1       7.718   7.052  16.809  0.00  0.00    +0.000 OA
BRANCH  16  18
ATOM     17  C   UNL     1       8.460   8.953  18.026  0.00  0.00    +0.000 C 
ATOM     18  C   UNL     1       7.251   8.119  17.632  0.00  0.00    +0.000 C 
ENDBRANCH  16  18
ENDBRANCH   8  16
ENDBRANCH   7  10
ENDBRANCH   1   7
BRANCH   6  19
ATOM     19  C   UNL     1       1.806   7.510  17.983  0.00  0.00    +0.000 C 
BRANCH  19  20
ATOM     20  C   UNL     1       1.633   8.945  18.433  0.00  0.00    +0.000 A 
ATOM     21  C   UNL     1       2.316   9.951  17.749  0.00  0.00    +0.000 A 
ATOM     22  C   UNL     1       2.213  11.283  18.152  0.00  0.00    +0.000 A 
ATOM     23  C   UNL     1       1.415  11.657  19.242  0.00  0.00    +0.000 A 
ATOM     24  C   UNL     1       0.671  10.664  19.902  0.00  0.00    +0.000 A 
ATOM     25  C   UNL     1       0.785   9.325  19.485  0.00  0.00    +0.000 A 
BRANCH  23  26
ATOM     26  O   UNL     1       1.326  12.947  19.687  0.00  0.00    +0.000 OA
ATOM     27  C   UNL     1       0.421  13.831  19.041  0.00  0.00    +0.000 C 
ENDBRANCH  23  26
BRANCH  24  28
ATOM     28  O   UNL     1      -0.201  10.808  20.958  0.00  0.00    +0.000 OA
BRANCH  28  29
ATOM     29  C   UNL     1       0.037  10.053  22.144  0.00  0.00    +0.000 C 
ATOM     30  C   UNL     1      -1.001  10.427  23.187  0.00  0.00    +0.000 C 
ENDBRANCH  28  29
ENDBRANCH  24  28
ENDBRANCH  19  20
ENDBRANCH   6  19
TORSDOF 10
ENDMDL
MODEL 7
REMARK VINA RESULT:      -7.8      1.009      1.192
REMARK  Name = 
REMARK  13 active torsions:
REMARK  status: ('A' for Active; 'I' for Inactive)
REMARK    1  A    between atoms: C_1  and  C_2
REMARK    2  A    between atoms: C_2  and  O_3
REMARK    3  A    between atoms: O_3  and  C_4
REMARK    4  A    between atoms: C_6  and  C_7
REMARK    5  A    between atoms: C_7  and  C_8
REMARK    6  A    between atoms: C_13  and  C_14
REMARK    7  A    between atoms: C_14  and  C_15
REMARK    8  A    between atoms: C_18  and  O_19
REMARK    9  A    between atoms: O_19  and  C_20
REMARK   10  A    between atoms: C_21  and  O_22
REMARK   11  A    between atoms: O_22  and  C_23
REMARK   12  A    between atoms: C_23  and  C_24
REMARK   13  A    between atoms: C_28  and  O_29
REMARK                            x       y       z     vdW  Elec       q    Type
REMARK                         _______ _______ _______ _____ _____    ______ ____
ROOT
ATOM      1  C   UNL     1       2.469   3.827  20.721  0.00  0.00    +0.000 C 
ATOM      2  C   UNL     1       1.894   2.506  21.179  0.00  0.00    +0.000 C 
ATOM      3  O   UNL     1       1.574   2.220  22.320  0.00  0.00    +0.000 OA
ATOM      4  O   UNL     1       1.787   1.637  20.136  0.00  0.00    +0.000 OA
ATOM      5  C   UNL     1       2.128   2.291  18.920  0.00  0.00    +0.000 C 
ATOM      6  C   UNL     1       2.953   3.507  19.298  0.00  0.00    +0.000 C 
ENDROOT
BRANCH   1   7
ATOM      7  C   UNL     1       1.427   4.951  20.689  0.00  0.00    +0.000 C 
BRANCH   7  10
ATOM      8  C   UNL     1       1.787   8.570  19.466  0.00  0.00    +0.000 A 
ATOM      9  C   UNL     1       1.465   7.458  20.260  0.00  0.00    +0.000 A 
ATOM     10  C   UNL     1       1.769   6.153  19.845  0.00  0.00    +0.000 A 
ATOM     11  C   UNL     1       2.443   5.976  18.632  0.00  0.00    +0.000 A 
ATOM     12  C   UNL     1       2.776   7.072  17.837  0.00  0.00    +0.000 A 
ATOM     13  C   UNL     1       2.443   8.365  18.247  0.00  0.00    +0.000 A 
BRANCH  13  14
ATOM     14  O   UNL     1       2.815   9.411  17.449  0.00  0.00    +0.000 OA
ATOM     15  H   UNL     1       3.722   9.260  17.133  0.00  0.00    +0.000 HD
ENDBRANCH  13  14
BRANCH   8  16
ATOM     16  O   UNL     1       1.465   9.771  20.042  0.00  0.00    +0.000 OA
BRANCH  16  18
ATOM     17  C   UNL     1       0.429  11.621  18.970  0.00  0.00    +0.000 C 
ATOM     18  C   UNL     1       0.188  10.321  19.721  0.00  0.00    +0.000 C 
ENDBRANCH  16  18
ENDBRANCH   8  16
ENDBRANCH   7  10
ENDBRANCH   1   7
BRANCH   6  19
ATOM     19  C   UNL     1       4.460   3.196  19.226  0.00  0.00    +0.000 C 
BRANCH  19  20
ATOM     20  C   UNL     1       5.309   4.244  18.539  0.00  0.00    +0.000 A 
ATOM     21  C   UNL     1       6.044   5.132  19.324  0.00  0.00    +0.000 A 
ATOM     22  C   UNL     1       6.813   6.137  18.734  0.00  0.00    +0.000 A 
ATOM     23  C   UNL     1       6.885   6.278  17.341  0.00  0.00    +0.000 A 
ATOM     24  C   UNL     1       6.201   5.352  16.535  0.00  0.00    +0.000 A 
ATOM     25  C   UNL     1       5.430   4.345  17.145  0.00  0.00    +0.000 A 
BRANCH  23  26
ATOM     26  O   UNL     1       7.596   7.276  16.734  0.00  0.00    +0.000 OA
ATOM     27  C   UNL     1       7.832   8.479  17.449  0.00  0.00    +0.000 C 
ENDBRANCH  23  26
BRANCH  24  28
ATOM     28  O   UNL     1       6.166   5.275  15.161  0.00  0.00    +0.000 OA
BRANCH  28  29
ATOM     29  C   UNL     1       5.945   4.002  14.557  0.00  0.00    +0.000 C 
ATOM     30  C   UNL     1       6.477   4.028  13.135  0.00  0.00    +0.000 C 
ENDBRANCH  28  29
ENDBRANCH  24  28
ENDBRANCH  19  20
ENDBRANCH   6  19
TORSDOF 10
ENDMDL
MODEL 8
REMARK VINA RESULT:      -7.7      1.829      7.444
REMARK  Name = 
REMARK  13 active torsions:
REMARK  status: ('A' for Active; 'I' for Inactive)
REMARK    1  A    between atoms: C_1  and  C_2
REMARK    2  A    between atoms: C_2  and  O_3
REMARK    3  A    between atoms: O_3  and  C_4
REMARK    4  A    between atoms: C_6  and  C_7
REMARK    5  A    between atoms: C_7  and  C_8
REMARK    6  A    between atoms: C_13  and  C_14
REMARK    7  A    between atoms: C_14  and  C_15
REMARK    8  A    between atoms: C_18  and  O_19
REMARK    9  A    between atoms: O_19  and  C_20
REMARK   10  A    between atoms: C_21  and  O_22
REMARK   11  A    between atoms: O_22  and  C_23
REMARK   12  A    between atoms: C_23  and  C_24
REMARK   13  A    between atoms: C_28  and  O_29
REMARK                            x       y       z     vdW  Elec       q    Type
REMARK                         _______ _______ _______ _____ _____    ______ ____
ROOT
ATOM      1  C   UNL     1       2.239   6.290  18.327  0.00  0.00    +0.000 C 
ATOM      2  C   UNL     1       2.078   4.795  18.173  0.00  0.00    +0.000 C 
ATOM      3  O   UNL     1       1.558   4.222  17.230  0.00  0.00    +0.000 OA
ATOM      4  O   UNL     1       2.582   4.140  19.256  0.00  0.00    +0.000 OA
ATOM      5  C   UNL     1       3.220   5.063  20.130  0.00  0.00    +0.000 C 
ATOM      6  C   UNL     1       2.659   6.433  19.798  0.00  0.00    +0.000 C 
ENDROOT
BRANCH   1   7
ATOM      7  C   UNL     1       3.319   6.870  17.406  0.00  0.00    +0.000 C 
BRANCH   7  10
ATOM      8  C   UNL     1       6.045   4.438  16.231  0.00  0.00    +0.000 A 
ATOM      9  C   UNL     1       4.840   5.156  16.302  0.00  0.00    +0.000 A 
ATOM     10  C   UNL     1       4.609   6.094  17.320  0.00  0.00    +0.000 A 
ATOM     11  C   UNL     1       5.624   6.336  18.251  0.00  0.00    +0.000 A 
ATOM     12  C   UNL     1       6.829   5.635  18.188  0.00  0.00    +0.000 A 
ATOM     13  C   UNL     1       7.037   4.684  17.186  0.00  0.00    +0.000 A 
BRANCH  13  14
ATOM     14  O   UNL     1       8.245   4.043  17.147  0.00  0.00    +0.000 OA
ATOM     15  H   UNL     1       8.113   3.143  16.805  0.00  0.00    +0.000 HD
ENDBRANCH  13  14
BRANCH   8  16
ATOM     16  O   UNL     1       6.126   3.602  15.149  0.00  0.00    +0.000 OA
BRANCH  16  18
ATOM     17  C   UNL     1       5.817   3.516  12.795  0.00  0.00    +0.000 C 
ATOM     18  C   UNL     1       6.595   4.169  13.927  0.00  0.00    +0.000 C 
ENDBRANCH  16  18
ENDBRANCH   8  16
ENDBRANCH   7  10
ENDBRANCH   1   7
BRANCH   6  19
ATOM     19  C   UNL     1       1.487   6.790  20.731  0.00  0.00    +0.000 C 
BRANCH  19  20
ATOM     20  C   UNL     1       1.140   8.262  20.807  0.00  0.00    +0.000 A 
ATOM     21  C   UNL     1       0.772   8.802  22.039  0.00  0.00    +0.000 A 
ATOM     22  C   UNL     1       0.411  10.146  22.148  0.00  0.00    +0.000 A 
ATOM     23  C   UNL     1       0.417  10.998  21.035  0.00  0.00    +0.000 A 
ATOM     24  C   UNL     1       0.846  10.484  19.799  0.00  0.00    +0.000 A 
ATOM     25  C   UNL     1       1.208   9.127  19.704  0.00  0.00    +0.000 A 
BRANCH  23  26
ATOM     26  O   UNL     1       0.030  12.307  21.101  0.00  0.00    +0.000 OA
ATOM     27  C   UNL     1      -1.196  12.688  20.494  0.00  0.00    +0.000 C 
ENDBRANCH  23  26
BRANCH  24  28
ATOM     28  O   UNL     1       0.972  11.141  18.596  0.00  0.00    +0.000 OA
BRANCH  28  29
ATOM     29  C   UNL     1       2.273  11.542  18.173  0.00  0.00    +0.000 C 
ATOM     30  C   UNL     1       2.387  13.053  18.279  0.00  0.00    +0.000 C 
ENDBRANCH  28  29
ENDBRANCH  24  28
ENDBRANCH  19  20
ENDBRANCH   6  19
TORSDOF 10
ENDMDL
MODEL 9
REMARK VINA RESULT:      -7.7      1.538      2.609
REMARK  Name = 
REMARK  13 active torsions:
REMARK  status: ('A' for Active; 'I' for Inactive)
REMARK    1  A    between atoms: C_1  and  C_2
REMARK    2  A    between atoms: C_2  and  O_3
REMARK    3  A    between atoms: O_3  and  C_4
REMARK    4  A    between atoms: C_6  and  C_7
REMARK    5  A    between atoms: C_7  and  C_8
REMARK    6  A    between atoms: C_13  and  C_14
REMARK    7  A    between atoms: C_14  and  C_15
REMARK    8  A    between atoms: C_18  and  O_19
REMARK    9  A    between atoms: O_19  and  C_20
REMARK   10  A    between atoms: C_21  and  O_22
REMARK   11  A    between atoms: O_22  and  C_23
REMARK   12  A    between atoms: C_23  and  C_24
REMARK   13  A    between atoms: C_28  and  O_29
REMARK                            x       y       z     vdW  Elec       q    Type
REMARK                         _______ _______ _______ _____ _____    ______ ____
ROOT
ATOM      1  C   UNL     1       3.755   4.929  18.961  0.00  0.00    +0.000 C 
ATOM      2  C   UNL     1       5.039   4.381  19.540  0.00  0.00    +0.000 C 
ATOM      3  O   UNL     1       6.033   5.028  19.824  0.00  0.00    +0.000 OA
ATOM      4  O   UNL     1       4.960   3.030  19.697  0.00  0.00    +0.000 OA
ATOM      5  C   UNL     1       3.647   2.579  19.389  0.00  0.00    +0.000 C 
ATOM      6  C   UNL     1       3.009   3.657  18.532  0.00  0.00    +0.000 C 
ENDROOT
BRANCH   1   7
ATOM      7  C   UNL     1       2.927   5.713  19.986  0.00  0.00    +0.000 C 
BRANCH   7  10
ATOM      8  C   UNL     1       1.325   9.200  19.983  0.00  0.00    +0.000 A 
ATOM      9  C   UNL     1       1.837   7.969  20.425  0.00  0.00    +0.000 A 
ATOM     10  C   UNL     1       2.376   7.039  19.524  0.00  0.00    +0.000 A 
ATOM     11  C   UNL     1       2.435   7.376  18.167  0.00  0.00    +0.000 A 
ATOM     12  C   UNL     1       1.939   8.599  17.716  0.00  0.00    +0.000 A 
ATOM     13  C   UNL     1       1.378   9.506  18.619  0.00  0.00    +0.000 A 
BRANCH  13  14
ATOM     14  O   UNL     1       0.930  10.704  18.135  0.00  0.00    +0.000 OA
ATOM     15  H   UNL     1       1.399  10.905  17.308  0.00  0.00    +0.000 HD
ENDBRANCH  13  14
BRANCH   8  16
ATOM     16  O   UNL     1       0.883  10.009  20.997  0.00  0.00    +0.000 OA
BRANCH  16  18
ATOM     17  C   UNL     1      -1.011  11.439  21.102  0.00  0.00    +0.000 C 
ATOM     18  C   UNL     1      -0.519  10.009  21.260  0.00  0.00    +0.000 C 
ENDBRANCH  16  18
ENDBRANCH   8  16
ENDBRANCH   7  10
ENDBRANCH   1   7
BRANCH   6  19
ATOM     19  C   UNL     1       3.167   3.337  17.034  0.00  0.00    +0.000 C 
BRANCH  19  20
ATOM     20  C   UNL     1       4.378   3.947  16.361  0.00  0.00    +0.000 A 
ATOM     21  C   UNL     1       5.179   3.138  15.556  0.00  0.00    +0.000 A 
ATOM     22  C   UNL     1       6.324   3.651  14.945  0.00  0.00    +0.000 A 
ATOM     23  C   UNL     1       6.700   4.992  15.106  0.00  0.00    +0.000 A 
ATOM     24  C   UNL     1       5.870   5.836  15.862  0.00  0.00    +0.000 A 
ATOM     25  C   UNL     1       4.718   5.305  16.473  0.00  0.00    +0.000 A 
BRANCH  23  26
ATOM     26  O   UNL     1       7.838   5.513  14.554  0.00  0.00    +0.000 OA
ATOM     27  C   UNL     1       8.003   5.454  13.145  0.00  0.00    +0.000 C 
ENDBRANCH  23  26
BRANCH  24  28
ATOM     28  O   UNL     1       6.019   7.181  16.115  0.00  0.00    +0.000 OA
BRANCH  28  29
ATOM     29  C   UNL     1       6.282   7.596  17.453  0.00  0.00    +0.000 C 
ATOM     30  C   UNL     1       7.784   7.694  17.657  0.00  0.00    +0.000 C 
ENDBRANCH  28  29
ENDBRANCH  24  28
ENDBRANCH  19  20
ENDBRANCH   6  19
TORSDOF 10
ENDMDL
