MODEL 1
REMARK VINA RESULT:      -8.4      0.000      0.000
REMARK  Name = 
REMARK  5 active torsions:
REMARK  status: ('A' for Active; 'I' for Inactive)
REMARK    1  A    between atoms: C_1  and  C_2
REMARK    2  A    between atoms: C_3  and  C_4
REMARK    3  A    between atoms: C_4  and  N_5
REMARK    4  A    between atoms: N_5  and  C_6
REMARK    5  A    between atoms: N_25  and  C_26
REMARK                            x       y       z     vdW  Elec       q    Type
REMARK                         _______ _______ _______ _____ _____    ______ ____
ROOT
ATOM      1  N   UNL     1       0.046  10.521  20.718  0.00  0.00    +0.000 N 
ATOM      2  C   UNL     1      -0.225  10.488  22.154  0.00  0.00    +0.000 C 
ATOM      3  C   UNL     1       0.731   9.464  20.155  0.00  0.00    +0.000 A 
ATOM      4  N   UNL     1       0.998   8.409  20.869  0.00  0.00    +0.000 NA
ATOM      5  C   UNL     1       1.763   7.410  20.324  0.00  0.00    +0.000 A 
ATOM      6  C   UNL     1       2.320   7.471  19.108  0.00  0.00    +0.000 A 
ATOM      7  C   UNL     1       1.978   8.631  18.272  0.00  0.00    +0.000 A 
ATOM      8  O   UNL     1       2.424   8.783  17.140  0.00  0.00    +0.000 OA
ATOM      9  N   UNL     1       1.157   9.551  18.857  0.00  0.00    +0.000 N 
ATOM     10  C   UNL     1       3.283   6.442  18.621  0.00  0.00    +0.000 C 
ATOM     11  C   UNL     1       2.717   5.045  18.543  0.00  0.00    +0.000 A 
ATOM     12  C   UNL     1       3.059   4.284  17.403  0.00  0.00    +0.000 A 
ATOM     13  C   UNL     1       2.583   2.986  17.227  0.00  0.00    +0.000 A 
ATOM     14  C   UNL     1       1.763   2.418  18.192  0.00  0.00    +0.000 A 
ATOM     15  C   UNL     1       1.426   3.151  19.329  0.00  0.00    +0.000 A 
ATOM     16  C   UNL     1       1.902   4.455  19.524  0.00  0.00    +0.000 A 
ATOM     17  O   UNL     1       1.433   5.021  20.679  0.00  0.00    +0.000 OA
ATOM     18  C   UNL     1       2.043   6.206  21.191  0.00  0.00    +0.000 C 
ATOM     19  H   UNL     1       0.969  10.368  18.302  0.00  0.00    +0.000 HD
ENDROOT
BRANCH   1  20
ATOM     20  C   UNL     1      -0.417  11.709  20.009  0.00  0.00    +0.000 C 
BRANCH  20  23
ATOM     21  C   UNL     1      -1.959  10.291  17.299  0.00  0.00    +0.000 C 
ATOM     22  C   UNL     1      -2.441  11.190  18.379  0.00  0.00    +0.000 A 
ATOM     23  C   UNL     1      -1.822  11.763  19.484  0.00  0.00    +0.000 A 
ATOM     24  C   UNL     1      -2.864  12.505  20.101  0.00  0.00    +0.000 A 
ATOM     25  N   UNL     1      -4.023  12.422  19.452  0.00  0.00    +0.000 NA
ATOM     26  N   UNL     1      -3.745  11.629  18.406  0.00  0.00    +0.000 N 
ATOM     27  C   UNL     1      -4.791  11.346  17.447  0.00  0.00    +0.000 C 
ENDBRANCH  20  23
ENDBRANCH   1  20
TORSDOF 2
ENDMDL
MODEL 2
REMARK VINA RESULT:      -8.0      0.488      1.239
REMARK  Name = 
REMARK  5 active torsions:
REMARK  status: ('A' for Active; 'I' for Inactive)
REMARK    1  A    between atoms: C_1  and  C_2
REMARK    2  A    between atoms: C_3  and  C_4
REMARK    3  A    between atoms: C_4  and  N_5
REMARK    4  A    between atoms: N_5  and  C_6
REMARK    5  A    between atoms: N_25  and  C_26
REMARK                            x       y       z     vdW  Elec       q    Type
REMARK                         _______ _______ _______ _____ _____    ______ ____
ROOT
ATOM      1  N   UNL     1       0.117  10.600  20.562  0.00  0.00    +0.000 N 
ATOM      2  C   UNL     1      -0.178  10.605  21.993  0.00  0.00    +0.000 C 
ATOM      3  C   UNL     1       0.784   9.514  20.033  0.00  0.00    +0.000 A 
ATOM      4  N   UNL     1       1.013   8.469  20.775  0.00  0.00    +0.000 NA
ATOM      5  C   UNL     1       1.761   7.439  20.264  0.00  0.00    +0.000 A 
ATOM      6  C   UNL     1       2.340   7.460  19.057  0.00  0.00    +0.000 A 
ATOM      7  C   UNL     1       2.041   8.609  18.191  0.00  0.00    +0.000 A 
ATOM      8  O   UNL     1       2.509   8.726  17.063  0.00  0.00    +0.000 OA
ATOM      9  N   UNL     1       1.234   9.562  18.742  0.00  0.00    +0.000 N 
ATOM     10  C   UNL     1       3.285   6.398  18.609  0.00  0.00    +0.000 C 
ATOM     11  C   UNL     1       2.686   5.013  18.551  0.00  0.00    +0.000 A 
ATOM     12  C   UNL     1       3.027   4.219  17.435  0.00  0.00    +0.000 A 
ATOM     13  C   UNL     1       2.522   2.930  17.279  0.00  0.00    +0.000 A 
ATOM     14  C   UNL     1       1.672   2.403  18.241  0.00  0.00    +0.000 A 
ATOM     15  C   UNL     1       1.336   3.169  19.357  0.00  0.00    +0.000 A 
ATOM     16  C   UNL     1       1.841   4.465  19.531  0.00  0.00    +0.000 A 
ATOM     17  O   UNL     1       1.366   5.068  20.665  0.00  0.00    +0.000 OA
ATOM     18  C   UNL     1       1.997   6.249  21.162  0.00  0.00    +0.000 C 
ATOM     19  H   UNL     1       1.075  10.370  18.166  0.00  0.00    +0.000 HD
ENDROOT
BRANCH   1  20
ATOM     20  C   UNL     1      -0.305  11.783  19.820  0.00  0.00    +0.000 C 
BRANCH  20  23
ATOM     21  C   UNL     1      -3.369  12.815  20.952  0.00  0.00    +0.000 C 
ATOM     22  C   UNL     1      -2.911  12.238  19.662  0.00  0.00    +0.000 A 
ATOM     23  C   UNL     1      -1.669  11.823  19.195  0.00  0.00    +0.000 A 
ATOM     24  C   UNL     1      -1.941  11.382  17.872  0.00  0.00    +0.000 A 
ATOM     25  N   UNL     1      -3.223  11.494  17.535  0.00  0.00    +0.000 NA
ATOM     26  N   UNL     1      -3.797  12.005  18.635  0.00  0.00    +0.000 N 
ATOM     27  C   UNL     1      -5.227  12.231  18.636  0.00  0.00    +0.000 C 
ENDBRANCH  20  23
ENDBRANCH   1  20
TORSDOF 2
ENDMDL
MODEL 3
REMARK VINA RESULT:      -7.9      2.554      8.058
REMARK  Name = 
REMARK  5 active torsions:
REMARK  status: ('A' for Active; 'I' for Inactive)
REMARK    1  A    between atoms: C_1  and  C_2
REMARK    2  A    between atoms: C_3  and  C_4
REMARK    3  A    between atoms: C_4  and  N_5
REMARK    4  A    between atoms: N_5  and  C_6
REMARK    5  A    between atoms: N_25  and  C_26
REMARK                            x       y       z     vdW  Elec       q    Type
REMARK                         _______ _______ _______ _____ _____    ______ ____
ROOT
ATOM      1  N   UNL     1       2.170   7.928  19.180  0.00  0.00    +0.000 N 
ATOM      2  C   UNL     1       2.544   8.262  17.807  0.00  0.00    +0.000 C 
ATOM      3  C   UNL     1       1.408   8.832  19.891  0.00  0.00    +0.000 A 
ATOM      4  N   UNL     1       0.927   9.886  19.296  0.00  0.00    +0.000 NA
ATOM      5  C   UNL     1       0.256  10.823  20.038  0.00  0.00    +0.000 A 
ATOM      6  C   UNL     1       0.113  10.764  21.368  0.00  0.00    +0.000 A 
ATOM      7  C   UNL     1       0.602   9.552  22.042  0.00  0.00    +0.000 A 
ATOM      8  O   UNL     1       0.514   9.390  23.254  0.00  0.00    +0.000 OA
ATOM      9  N   UNL     1       1.198   8.633  21.228  0.00  0.00    +0.000 N 
ATOM     10  C   UNL     1      -0.472  11.887  22.156  0.00  0.00    +0.000 C 
ATOM     11  C   UNL     1      -1.896  12.232  21.788  0.00  0.00    +0.000 A 
ATOM     12  C   UNL     1      -2.779  12.507  22.855  0.00  0.00    +0.000 A 
ATOM     13  C   UNL     1      -4.116  12.827  22.627  0.00  0.00    +0.000 A 
ATOM     14  C   UNL     1      -4.595  12.888  21.327  0.00  0.00    +0.000 A 
ATOM     15  C   UNL     1      -3.733  12.633  20.261  0.00  0.00    +0.000 A 
ATOM     16  C   UNL     1      -2.385  12.316  20.473  0.00  0.00    +0.000 A 
ATOM     17  O   UNL     1      -1.713  12.061  19.308  0.00  0.00    +0.000 OA
ATOM     18  C   UNL     1      -0.285  12.025  19.302  0.00  0.00    +0.000 C 
ATOM     19  H   UNL     1       1.578   7.830  21.700  0.00  0.00    +0.000 HD
ENDROOT
BRANCH   1  20
ATOM     20  C   UNL     1       2.673   6.656  19.686  0.00  0.00    +0.000 C 
BRANCH  20  23
ATOM     21  C   UNL     1       1.626   3.770  21.206  0.00  0.00    +0.000 C 
ATOM     22  C   UNL     1       1.689   4.198  19.784  0.00  0.00    +0.000 A 
ATOM     23  C   UNL     1       2.107   5.368  19.162  0.00  0.00    +0.000 A 
ATOM     24  C   UNL     1       1.892   5.108  17.782  0.00  0.00    +0.000 A 
ATOM     25  N   UNL     1       1.399   3.895  17.548  0.00  0.00    +0.000 NA
ATOM     26  N   UNL     1       1.292   3.353  18.772  0.00  0.00    +0.000 N 
ATOM     27  C   UNL     1       0.810   1.995  18.895  0.00  0.00    +0.000 C 
ENDBRANCH  20  23
ENDBRANCH   1  20
TORSDOF 2
ENDMDL
MODEL 4
REMARK VINA RESULT:      -7.9      2.731      8.405
REMARK  Name = 
REMARK  5 active torsions:
REMARK  status: ('A' for Active; 'I' for Inactive)
REMARK    1  A    between atoms: C_1  and  C_2
REMARK    2  A    between atoms: C_3  and  C_4
REMARK    3  A    between atoms: C_4  and  N_5
REMARK    4  A    between atoms: N_5  and  C_6
REMARK    5  A    between atoms: N_25  and  C_26
REMARK                            x       y       z     vdW  Elec       q    Type
REMARK                         _______ _______ _______ _____ _____    ______ ____
ROOT
ATOM      1  N   UNL     1       1.820   7.983  19.642  0.00  0.00    +0.000 N 
ATOM      2  C   UNL     1       2.173   8.278  18.254  0.00  0.00    +0.000 C 
ATOM      3  C   UNL     1       1.077   8.912  20.341  0.00  0.00    +0.000 A 
ATOM      4  N   UNL     1       0.594   9.953  19.726  0.00  0.00    +0.000 NA
ATOM      5  C   UNL     1      -0.058  10.915  20.454  0.00  0.00    +0.000 A 
ATOM      6  C   UNL     1      -0.178  10.894  21.788  0.00  0.00    +0.000 A 
ATOM      7  C   UNL     1       0.314   9.697  22.485  0.00  0.00    +0.000 A 
ATOM      8  O   UNL     1       0.246   9.567  23.702  0.00  0.00    +0.000 OA
ATOM      9  N   UNL     1       0.889   8.751  21.687  0.00  0.00    +0.000 N 
ATOM     10  C   UNL     1      -0.741  12.041  22.555  0.00  0.00    +0.000 C 
ATOM     11  C   UNL     1      -2.168  12.387  22.202  0.00  0.00    +0.000 A 
ATOM     12  C   UNL     1      -3.030  12.698  23.276  0.00  0.00    +0.000 A 
ATOM     13  C   UNL     1      -4.369  13.023  23.063  0.00  0.00    +0.000 A 
ATOM     14  C   UNL     1      -4.871  13.053  21.769  0.00  0.00    +0.000 A 
ATOM     15  C   UNL     1      -4.029  12.761  20.696  0.00  0.00    +0.000 A 
ATOM     16  C   UNL     1      -2.679  12.440  20.894  0.00  0.00    +0.000 A 
ATOM     17  O   UNL     1      -2.029  12.149  19.725  0.00  0.00    +0.000 OA
ATOM     18  C   UNL     1      -0.603  12.102  19.695  0.00  0.00    +0.000 C 
ATOM     19  H   UNL     1       1.271   7.958  22.173  0.00  0.00    +0.000 HD
ENDROOT
BRANCH   1  20
ATOM     20  C   UNL     1       2.323   6.721  20.173  0.00  0.00    +0.000 C 
BRANCH  20  23
ATOM     21  C   UNL     1       1.550   4.444  17.734  0.00  0.00    +0.000 C 
ATOM     22  C   UNL     1       2.838   4.899  18.321  0.00  0.00    +0.000 A 
ATOM     23  C   UNL     1       3.157   5.826  19.305  0.00  0.00    +0.000 A 
ATOM     24  C   UNL     1       4.575   5.771  19.368  0.00  0.00    +0.000 A 
ATOM     25  N   UNL     1       5.103   4.893  18.518  0.00  0.00    +0.000 NA
ATOM     26  N   UNL     1       4.035   4.367  17.900  0.00  0.00    +0.000 N 
ATOM     27  C   UNL     1       4.240   3.329  16.913  0.00  0.00    +0.000 C 
ENDBRANCH  20  23
ENDBRANCH   1  20
TORSDOF 2
ENDMDL
MODEL 5
REMARK VINA RESULT:      -7.8      2.597      8.307
REMARK  Name = 
REMARK  5 active torsions:
REMARK  status: ('A' for Active; 'I' for Inactive)
REMARK    1  A    between atoms: C_1  and  C_2
REMARK    2  A    between atoms: C_3  and  C_4
REMARK    3  A    between atoms: C_4  and  N_5
REMARK    4  A    between atoms: N_5  and  C_6
REMARK    5  A    between atoms: N_25  and  C_26
REMARK                            x       y       z     vdW  Elec       q    Type
REMARK                         _______ _______ _______ _____ _____    ______ ____
ROOT
ATOM      1  N   UNL     1       2.154   7.314  19.763  0.00  0.00    +0.000 N 
ATOM      2  C   UNL     1       2.539   7.372  18.355  0.00  0.00    +0.000 C 
ATOM      3  C   UNL     1       1.452   8.376  20.296  0.00  0.00    +0.000 A 
ATOM      4  N   UNL     1       1.031   9.332  19.518  0.00  0.00    +0.000 NA
ATOM      5  C   UNL     1       0.422  10.426  20.075  0.00  0.00    +0.000 A 
ATOM      6  C   UNL     1       0.284  10.618  21.393  0.00  0.00    +0.000 A 
ATOM      7  C   UNL     1       0.703   9.520  22.277  0.00  0.00    +0.000 A 
ATOM      8  O   UNL     1       0.613   9.585  23.498  0.00  0.00    +0.000 OA
ATOM      9  N   UNL     1       1.238   8.434  21.646  0.00  0.00    +0.000 N 
ATOM     10  C   UNL     1      -0.228  11.897  21.963  0.00  0.00    +0.000 C 
ATOM     11  C   UNL     1      -1.631  12.254  21.532  0.00  0.00    +0.000 A 
ATOM     12  C   UNL     1      -2.489  12.770  22.527  0.00  0.00    +0.000 A 
ATOM     13  C   UNL     1      -3.806  13.124  22.239  0.00  0.00    +0.000 A 
ATOM     14  C   UNL     1      -4.289  12.978  20.946  0.00  0.00    +0.000 A 
ATOM     15  C   UNL     1      -3.451  12.483  19.948  0.00  0.00    +0.000 A 
ATOM     16  C   UNL     1      -2.122  12.129  20.221  0.00  0.00    +0.000 A 
ATOM     17  O   UNL     1      -1.474  11.628  19.124  0.00  0.00    +0.000 OA
ATOM     18  C   UNL     1      -0.051  11.506  19.132  0.00  0.00    +0.000 C 
ATOM     19  H   UNL     1       1.572   7.709  22.257  0.00  0.00    +0.000 HD
ENDROOT
BRANCH   1  20
ATOM     20  C   UNL     1       2.583   6.126  20.493  0.00  0.00    +0.000 C 
BRANCH  20  23
ATOM     21  C   UNL     1       4.950   4.067  19.120  0.00  0.00    +0.000 C 
ATOM     22  C   UNL     1       3.476   3.951  19.273  0.00  0.00    +0.000 A 
ATOM     23  C   UNL     1       2.513   4.780  19.835  0.00  0.00    +0.000 A 
ATOM     24  C   UNL     1       1.303   4.058  19.649  0.00  0.00    +0.000 A 
ATOM     25  N   UNL     1       1.478   2.895  19.026  0.00  0.00    +0.000 NA
ATOM     26  N   UNL     1       2.799   2.852  18.797  0.00  0.00    +0.000 N 
ATOM     27  C   UNL     1       3.349   1.716  18.089  0.00  0.00    +0.000 C 
ENDBRANCH  20  23
ENDBRANCH   1  20
TORSDOF 2
ENDMDL
MODEL 6
REMARK VINA RESULT:      -7.8      2.636      8.378
REMARK  Name = 
REMARK  5 active torsions:
REMARK  status: ('A' for Active; 'I' for Inactive)
REMARK    1  A    between atoms: C_1  and  C_2
REMARK    2  A    between atoms: C_3  and  C_4
REMARK    3  A    between atoms: C_4  and  N_5
REMARK    4  A    between atoms: N_5  and  C_6
REMARK    5  A    between atoms: N_25  and  C_26
REMARK                            x       y       z     vdW  Elec       q    Type
REMARK                         _______ _______ _______ _____ _____    ______ ____
ROOT
ATOM      1  N   UNL     1       2.165   7.361  19.737  0.00  0.00    +0.000 N 
ATOM      2  C   UNL     1       2.548   7.429  18.328  0.00  0.00    +0.000 C 
ATOM      3  C   UNL     1       1.456   8.415  20.276  0.00  0.00    +0.000 A 
ATOM      4  N   UNL     1       1.028   9.372  19.504  0.00  0.00    +0.000 NA
ATOM      5  C   UNL     1       0.412  10.460  20.068  0.00  0.00    +0.000 A 
ATOM      6  C   UNL     1       0.275  10.643  21.388  0.00  0.00    +0.000 A 
ATOM      7  C   UNL     1       0.703   9.543  22.265  0.00  0.00    +0.000 A 
ATOM      8  O   UNL     1       0.614   9.600  23.486  0.00  0.00    +0.000 OA
ATOM      9  N   UNL     1       1.244   8.465  21.627  0.00  0.00    +0.000 N 
ATOM     10  C   UNL     1      -0.245  11.915  21.965  0.00  0.00    +0.000 C 
ATOM     11  C   UNL     1      -1.650  12.266  21.538  0.00  0.00    +0.000 A 
ATOM     12  C   UNL     1      -2.511  12.771  22.537  0.00  0.00    +0.000 A 
ATOM     13  C   UNL     1      -3.830  13.117  22.252  0.00  0.00    +0.000 A 
ATOM     14  C   UNL     1      -4.314  12.975  20.959  0.00  0.00    +0.000 A 
ATOM     15  C   UNL     1      -3.474  12.490  19.958  0.00  0.00    +0.000 A 
ATOM     16  C   UNL     1      -2.143  12.144  20.227  0.00  0.00    +0.000 A 
ATOM     17  O   UNL     1      -1.492  11.654  19.126  0.00  0.00    +0.000 OA
ATOM     18  C   UNL     1      -0.069  11.541  19.131  0.00  0.00    +0.000 C 
ATOM     19  H   UNL     1       1.584   7.738  22.233  0.00  0.00    +0.000 HD
ENDROOT
BRANCH   1  20
ATOM     20  C   UNL     1       2.603   6.172  20.460  0.00  0.00    +0.000 C 
BRANCH  20  23
ATOM     21  C   UNL     1       1.136   3.329  19.237  0.00  0.00    +0.000 C 
ATOM     22  C   UNL     1       2.533   3.836  19.213  0.00  0.00    +0.000 A 
ATOM     23  C   UNL     1       3.132   4.991  19.702  0.00  0.00    +0.000 A 
ATOM     24  C   UNL     1       4.495   4.843  19.327  0.00  0.00    +0.000 A 
ATOM     25  N   UNL     1       4.740   3.709  18.676  0.00  0.00    +0.000 NA
ATOM     26  N   UNL     1       3.542   3.106  18.625  0.00  0.00    +0.000 N 
ATOM     27  C   UNL     1       3.441   1.804  18.003  0.00  0.00    +0.000 C 
ENDBRANCH  20  23
ENDBRANCH   1  20
TORSDOF 2
ENDMDL
MODEL 7
REMARK VINA RESULT:      -7.8      2.743      8.337
REMARK  Name = 
REMARK  5 active torsions:
REMARK  status: ('A' for Active; 'I' for Inactive)
REMARK    1  A    between atoms: C_1  and  C_2
REMARK    2  A    between atoms: C_3  and  C_4
REMARK    3  A    between atoms: C_4  and  N_5
REMARK    4  A    between atoms: N_5  and  C_6
REMARK    5  A    between atoms: N_25  and  C_26
REMARK                            x       y       z     vdW  Elec       q    Type
REMARK                         _______ _______ _______ _____ _____    ______ ____
ROOT
ATOM      1  N   UNL     1       1.848   8.207  19.244  0.00  0.00    +0.000 N 
ATOM      2  C   UNL     1       2.095   8.541  17.843  0.00  0.00    +0.000 C 
ATOM      3  C   UNL     1       1.118   9.092  20.010  0.00  0.00    +0.000 A 
ATOM      4  N   UNL     1       0.553  10.122  19.450  0.00  0.00    +0.000 NA
ATOM      5  C   UNL     1      -0.086  11.043  20.240  0.00  0.00    +0.000 A 
ATOM      6  C   UNL     1      -0.116  10.992  21.578  0.00  0.00    +0.000 A 
ATOM      7  C   UNL     1       0.468   9.804  22.216  0.00  0.00    +0.000 A 
ATOM      8  O   UNL     1       0.487   9.650  23.432  0.00  0.00    +0.000 OA
ATOM      9  N   UNL     1       1.026   8.897  21.362  0.00  0.00    +0.000 N 
ATOM     10  C   UNL     1      -0.672  12.102  22.404  0.00  0.00    +0.000 C 
ATOM     11  C   UNL     1      -2.132  12.395  22.154  0.00  0.00    +0.000 A 
ATOM     12  C   UNL     1      -2.933  12.650  23.289  0.00  0.00    +0.000 A 
ATOM     13  C   UNL     1      -4.294  12.923  23.172  0.00  0.00    +0.000 A 
ATOM     14  C   UNL     1      -4.882  12.956  21.915  0.00  0.00    +0.000 A 
ATOM     15  C   UNL     1      -4.103  12.719  20.783  0.00  0.00    +0.000 A 
ATOM     16  C   UNL     1      -2.732  12.450  20.884  0.00  0.00    +0.000 A 
ATOM     17  O   UNL     1      -2.150  12.208  19.669  0.00  0.00    +0.000 OA
ATOM     18  C   UNL     1      -0.728  12.220  19.544  0.00  0.00    +0.000 C 
ATOM     19  H   UNL     1       1.471   8.113  21.805  0.00  0.00    +0.000 HD
ENDROOT
BRANCH   1  20
ATOM     20  C   UNL     1       2.435   6.957  19.715  0.00  0.00    +0.000 C 
BRANCH  20  23
ATOM     21  C   UNL     1       5.297   6.513  17.884  0.00  0.00    +0.000 C 
ATOM     22  C   UNL     1       4.028   5.744  17.979  0.00  0.00    +0.000 A 
ATOM     23  C   UNL     1       2.867   5.916  18.724  0.00  0.00    +0.000 A 
ATOM     24  C   UNL     1       2.057   4.816  18.336  0.00  0.00    +0.000 A 
ATOM     25  N   UNL     1       2.637   4.030  17.432  0.00  0.00    +0.000 NA
ATOM     26  N   UNL     1       3.826   4.614  17.220  0.00  0.00    +0.000 N 
ATOM     27  C   UNL     1       4.726   4.034  16.247  0.00  0.00    +0.000 C 
ENDBRANCH  20  23
ENDBRANCH   1  20
TORSDOF 2
ENDMDL
MODEL 8
REMARK VINA RESULT:      -7.8      2.519      7.871
REMARK  Name = 
REMARK  5 active torsions:
REMARK  status: ('A' for Active; 'I' for Inactive)
REMARK    1  A    between atoms: C_1  and  C_2
REMARK    2  A    between atoms: C_3  and  C_4
REMARK    3  A    between atoms: C_4  and  N_5
REMARK    4  A    between atoms: N_5  and  C_6
REMARK    5  A    between atoms: N_25  and  C_26
REMARK                            x       y       z     vdW  Elec       q    Type
REMARK                         _______ _______ _______ _____ _____    ______ ____
ROOT
ATOM      1  N   UNL     1       2.500   7.542  19.159  0.00  0.00    +0.000 N 
ATOM      2  C   UNL     1       2.848   7.704  17.749  0.00  0.00    +0.000 C 
ATOM      3  C   UNL     1       1.739   8.522  19.763  0.00  0.00    +0.000 A 
ATOM      4  N   UNL     1       1.237   9.487  19.048  0.00  0.00    +0.000 NA
ATOM      5  C   UNL     1       0.566  10.505  19.678  0.00  0.00    +0.000 A 
ATOM      6  C   UNL     1       0.445  10.613  21.007  0.00  0.00    +0.000 A 
ATOM      7  C   UNL     1       0.957   9.500  21.819  0.00  0.00    +0.000 A 
ATOM      8  O   UNL     1       0.890   9.491  23.043  0.00  0.00    +0.000 OA
ATOM      9  N   UNL     1       1.551   8.491  21.118  0.00  0.00    +0.000 N 
ATOM     10  C   UNL     1      -0.141  11.820  21.657  0.00  0.00    +0.000 C 
ATOM     11  C   UNL     1      -1.574  12.103  21.273  0.00  0.00    +0.000 A 
ATOM     12  C   UNL     1      -2.443  12.502  22.311  0.00  0.00    +0.000 A 
ATOM     13  C   UNL     1      -3.787  12.779  22.067  0.00  0.00    +0.000 A 
ATOM     14  C   UNL     1      -4.288  12.671  20.777  0.00  0.00    +0.000 A 
ATOM     15  C   UNL     1      -3.439  12.291  19.738  0.00  0.00    +0.000 A 
ATOM     16  C   UNL     1      -2.084  12.016  19.966  0.00  0.00    +0.000 A 
ATOM     17  O   UNL     1      -1.427  11.622  18.831  0.00  0.00    +0.000 OA
ATOM     18  C   UNL     1       0.000  11.599  18.806  0.00  0.00    +0.000 C 
ATOM     19  H   UNL     1       1.948   7.758  21.681  0.00  0.00    +0.000 HD
ENDROOT
BRANCH   1  20
ATOM     20  C   UNL     1       3.025   6.349  19.813  0.00  0.00    +0.000 C 
BRANCH  20  23
ATOM     21  C   UNL     1       2.424   4.034  17.360  0.00  0.00    +0.000 C 
ATOM     22  C   UNL     1       1.992   4.139  18.778  0.00  0.00    +0.000 A 
ATOM     23  C   UNL     1       2.237   5.072  19.779  0.00  0.00    +0.000 A 
ATOM     24  C   UNL     1       1.524   4.558  20.895  0.00  0.00    +0.000 A 
ATOM     25  N   UNL     1       0.884   3.423  20.631  0.00  0.00    +0.000 NA
ATOM     26  N   UNL     1       1.170   3.189  19.341  0.00  0.00    +0.000 N 
ATOM     27  C   UNL     1       0.597   2.027  18.697  0.00  0.00    +0.000 C 
ENDBRANCH  20  23
ENDBRANCH   1  20
TORSDOF 2
ENDMDL
MODEL 9
REMARK VINA RESULT:      -7.7      2.299      3.375
REMARK  Name = 
REMARK  5 active torsions:
REMARK  status: ('A' for Active; 'I' for Inactive)
REMARK    1  A    between atoms: C_1  and  C_2
REMARK    2  A    between atoms: C_3  and  C_4
REMARK    3  A    between atoms: C_4  and  N_5
REMARK    4  A    between atoms: N_5  and  C_6
REMARK    5  A    between atoms: N_25  and  C_26
REMARK                            x       y       z     vdW  Elec       q    Type
REMARK                         _______ _______ _______ _____ _____    ______ ____
ROOT
ATOM      1  N   UNL     1       0.485  10.733  19.662  0.00  0.00    +0.000 N 
ATOM      2  C   UNL     1       0.049  10.963  21.038  0.00  0.00    +0.000 C 
ATOM      3  C   UNL     1       1.089   9.531  19.358  0.00  0.00    +0.000 A 
ATOM      4  N   UNL     1       1.137   8.584  20.250  0.00  0.00    +0.000 NA
ATOM      5  C   UNL     1       1.826   7.433  19.966  0.00  0.00    +0.000 A 
ATOM      6  C   UNL     1       2.523   7.235  18.840  0.00  0.00    +0.000 A 
ATOM      7  C   UNL     1       2.428   8.273  17.803  0.00  0.00    +0.000 A 
ATOM      8  O   UNL     1       3.017   8.189  16.730  0.00  0.00    +0.000 OA
ATOM      9  N   UNL     1       1.669   9.358  18.130  0.00  0.00    +0.000 N 
ATOM     10  C   UNL     1       3.397   6.043  18.644  0.00  0.00    +0.000 C 
ATOM     11  C   UNL     1       2.671   4.721  18.699  0.00  0.00    +0.000 A 
ATOM     12  C   UNL     1       3.041   3.752  17.741  0.00  0.00    +0.000 A 
ATOM     13  C   UNL     1       2.428   2.501  17.698  0.00  0.00    +0.000 A 
ATOM     14  C   UNL     1       1.437   2.190  18.618  0.00  0.00    +0.000 A 
ATOM     15  C   UNL     1       1.069   3.130  19.580  0.00  0.00    +0.000 A 
ATOM     16  C   UNL     1       1.681   4.390  19.640  0.00  0.00    +0.000 A 
ATOM     17  O   UNL     1       1.158   5.184  20.625  0.00  0.00    +0.000 OA
ATOM     18  C   UNL     1       1.851   6.364  21.032  0.00  0.00    +0.000 C 
ATOM     19  H   UNL     1       1.651  10.089  17.440  0.00  0.00    +0.000 HD
ENDROOT
BRANCH   1  20
ATOM     20  C   UNL     1       0.259  11.832  18.729  0.00  0.00    +0.000 C 
BRANCH  20  23
ATOM     21  C   UNL     1      -0.053  15.160  19.477  0.00  0.00    +0.000 C 
ATOM     22  C   UNL     1       1.084  14.336  18.989  0.00  0.00    +0.000 A 
ATOM     23  C   UNL     1       1.218  12.986  18.691  0.00  0.00    +0.000 A 
ATOM     24  C   UNL     1       2.574  12.868  18.284  0.00  0.00    +0.000 A 
ATOM     25  N   UNL     1       3.232  14.024  18.311  0.00  0.00    +0.000 NA
ATOM     26  N   UNL     1       2.311  14.904  18.731  0.00  0.00    +0.000 N 
ATOM     27  C   UNL     1       2.678  16.299  18.847  0.00  0.00    +0.000 C 
ENDBRANCH  20  23
ENDBRANCH   1  20
TORSDOF 2
ENDMDL
