MODEL 1
REMARK VINA RESULT:      -7.7      0.000      0.000
REMARK  Name = 
REMARK  4 active torsions:
REMARK  status: ('A' for Active; 'I' for Inactive)
REMARK    1  A    between atoms: C_4  and  C_5
REMARK    2  A    between atoms: C_8  and  O_9
REMARK    3  A    between atoms: C_15  and  O_16
REMARK    4  A    between atoms: C_17  and  O_18
REMARK                            x       y       z     vdW  Elec       q    Type
REMARK                         _______ _______ _______ _____ _____    ______ ____
ROOT
ATOM      1  O   UNL     1       1.881   9.901  17.435  0.00  0.00    +0.000 OA
ATOM      2  C   UNL     1       1.884   9.023  18.285  0.00  0.00    +0.000 A 
ATOM      3  C   UNL     1       2.387   7.679  17.978  0.00  0.00    +0.000 A 
ATOM      4  C   UNL     1       2.342   6.736  18.928  0.00  0.00    +0.000 A 
ATOM      5  O   UNL     1       1.843   6.911  20.207  0.00  0.00    +0.000 OA
ATOM      6  C   UNL     1       1.415   8.173  20.557  0.00  0.00    +0.000 A 
ATOM      7  C   UNL     1       0.985   8.362  21.874  0.00  0.00    +0.000 A 
ATOM      8  C   UNL     1       0.594   9.637  22.277  0.00  0.00    +0.000 A 
ATOM      9  C   UNL     1       0.611  10.704  21.379  0.00  0.00    +0.000 A 
ATOM     10  C   UNL     1       1.010  10.521  20.063  0.00  0.00    +0.000 A 
ATOM     11  C   UNL     1       1.418   9.247  19.660  0.00  0.00    +0.000 A 
ENDROOT
BRANCH   4  12
ATOM     12  C   UNL     1       2.882   5.407  18.625  0.00  0.00    +0.000 A 
ATOM     13  C   UNL     1       2.154   4.522  17.817  0.00  0.00    +0.000 A 
ATOM     14  C   UNL     1       2.574   3.198  17.664  0.00  0.00    +0.000 A 
ATOM     15  C   UNL     1       3.724   2.767  18.316  0.00  0.00    +0.000 A 
ATOM     16  C   UNL     1       4.479   3.643  19.087  0.00  0.00    +0.000 A 
ATOM     17  C   UNL     1       4.058   4.965  19.245  0.00  0.00    +0.000 A 
BRANCH  15  18
ATOM     18  O   UNL     1       4.141   1.471  18.240  0.00  0.00    +0.000 OA
ATOM     19  H   UNL     1       3.383   0.889  18.418  0.00  0.00    +0.000 HD
ENDBRANCH  15  18
ENDBRANCH   4  12
BRANCH   8  20
ATOM     20  O   UNL     1       0.193   9.902  23.557  0.00  0.00    +0.000 OA
ATOM     21  H   UNL     1       0.007   9.059  24.005  0.00  0.00    +0.000 HD
ENDBRANCH   8  20
BRANCH   9  22
ATOM     22  O   UNL     1       0.247  11.953  21.791  0.00  0.00    +0.000 OA
ATOM     23  H   UNL     1       0.055  11.858  22.745  0.00  0.00    +0.000 HD
ENDBRANCH   9  22
TORSDOF 4
ENDMDL
MODEL 2
REMARK VINA RESULT:      -7.6      1.061      1.087
REMARK  Name = 
REMARK  4 active torsions:
REMARK  status: ('A' for Active; 'I' for Inactive)
REMARK    1  A    between atoms: C_4  and  C_5
REMARK    2  A    between atoms: C_8  and  O_9
REMARK    3  A    between atoms: C_15  and  O_16
REMARK    4  A    between atoms: C_17  and  O_18
REMARK                            x       y       z     vdW  Elec       q    Type
REMARK                         _______ _______ _______ _____ _____    ______ ____
ROOT
ATOM      1  O   UNL     1       1.922   9.535  17.386  0.00  0.00    +0.000 OA
ATOM      2  C   UNL     1       1.893   8.829  18.384  0.00  0.00    +0.000 A 
ATOM      3  C   UNL     1       2.482   7.485  18.373  0.00  0.00    +0.000 A 
ATOM      4  C   UNL     1       2.400   6.731  19.477  0.00  0.00    +0.000 A 
ATOM      5  O   UNL     1       1.785   7.106  20.659  0.00  0.00    +0.000 OA
ATOM      6  C   UNL     1       1.270   8.382  20.733  0.00  0.00    +0.000 A 
ATOM      7  C   UNL     1       0.721   8.782  21.955  0.00  0.00    +0.000 A 
ATOM      8  C   UNL     1       0.238  10.083  22.081  0.00  0.00    +0.000 A 
ATOM      9  C   UNL     1       0.282  10.966  21.002  0.00  0.00    +0.000 A 
ATOM     10  C   UNL     1       0.800  10.570  19.778  0.00  0.00    +0.000 A 
ATOM     11  C   UNL     1       1.300   9.272  19.653  0.00  0.00    +0.000 A 
ENDROOT
BRANCH   4  12
ATOM     12  C   UNL     1       3.025   5.405  19.470  0.00  0.00    +0.000 A 
ATOM     13  C   UNL     1       2.398   4.330  20.117  0.00  0.00    +0.000 A 
ATOM     14  C   UNL     1       3.063   3.110  20.265  0.00  0.00    +0.000 A 
ATOM     15  C   UNL     1       4.352   2.969  19.761  0.00  0.00    +0.000 A 
ATOM     16  C   UNL     1       4.971   4.012  19.082  0.00  0.00    +0.000 A 
ATOM     17  C   UNL     1       4.309   5.234  18.937  0.00  0.00    +0.000 A 
BRANCH  15  18
ATOM     18  O   UNL     1       5.059   1.816  19.931  0.00  0.00    +0.000 OA
ATOM     19  H   UNL     1       5.994   1.991  19.727  0.00  0.00    +0.000 HD
ENDBRANCH  15  18
ENDBRANCH   4  12
BRANCH   8  20
ATOM     20  O   UNL     1      -0.283  10.552  23.255  0.00  0.00    +0.000 OA
ATOM     21  H   UNL     1       0.164  11.385  23.482  0.00  0.00    +0.000 HD
ENDBRANCH   8  20
BRANCH   9  22
ATOM     22  O   UNL     1      -0.173  12.245  21.144  0.00  0.00    +0.000 OA
ATOM     23  H   UNL     1      -0.003  12.470  22.080  0.00  0.00    +0.000 HD
ENDBRANCH   9  22
TORSDOF 4
ENDMDL
MODEL 3
REMARK VINA RESULT:      -7.6      4.870      7.397
REMARK  Name = 
REMARK  4 active torsions:
REMARK  status: ('A' for Active; 'I' for Inactive)
REMARK    1  A    between atoms: C_4  and  C_5
REMARK    2  A    between atoms: C_8  and  O_9
REMARK    3  A    between atoms: C_15  and  O_16
REMARK    4  A    between atoms: C_17  and  O_18
REMARK                            x       y       z     vdW  Elec       q    Type
REMARK                         _______ _______ _______ _____ _____    ______ ____
ROOT
ATOM      1  O   UNL     1       7.330   6.260  18.618  0.00  0.00    +0.000 OA
ATOM      2  C   UNL     1       6.492   5.462  18.223  0.00  0.00    +0.000 A 
ATOM      3  C   UNL     1       5.462   4.942  19.128  0.00  0.00    +0.000 A 
ATOM      4  C   UNL     1       4.584   4.042  18.664  0.00  0.00    +0.000 A 
ATOM      5  O   UNL     1       4.562   3.535  17.377  0.00  0.00    +0.000 OA
ATOM      6  C   UNL     1       5.475   4.040  16.477  0.00  0.00    +0.000 A 
ATOM      7  C   UNL     1       5.397   3.581  15.158  0.00  0.00    +0.000 A 
ATOM      8  C   UNL     1       6.270   4.109  14.210  0.00  0.00    +0.000 A 
ATOM      9  C   UNL     1       7.221   5.063  14.572  0.00  0.00    +0.000 A 
ATOM     10  C   UNL     1       7.325   5.504  15.883  0.00  0.00    +0.000 A 
ATOM     11  C   UNL     1       6.440   4.990  16.833  0.00  0.00    +0.000 A 
ENDROOT
BRANCH   4  12
ATOM     12  C   UNL     1       3.534   3.557  19.565  0.00  0.00    +0.000 A 
ATOM     13  C   UNL     1       2.285   4.194  19.594  0.00  0.00    +0.000 A 
ATOM     14  C   UNL     1       1.341   3.853  20.566  0.00  0.00    +0.000 A 
ATOM     15  C   UNL     1       1.649   2.873  21.503  0.00  0.00    +0.000 A 
ATOM     16  C   UNL     1       2.867   2.204  21.463  0.00  0.00    +0.000 A 
ATOM     17  C   UNL     1       3.813   2.547  20.494  0.00  0.00    +0.000 A 
BRANCH  15  18
ATOM     18  O   UNL     1       0.780   2.547  22.502  0.00  0.00    +0.000 OA
ATOM     19  H   UNL     1       1.069   1.710  22.905  0.00  0.00    +0.000 HD
ENDBRANCH  15  18
ENDBRANCH   4  12
BRANCH   8  20
ATOM     20  O   UNL     1       6.230   3.731  12.897  0.00  0.00    +0.000 OA
ATOM     21  H   UNL     1       5.624   4.325  12.421  0.00  0.00    +0.000 HD
ENDBRANCH   8  20
BRANCH   9  22
ATOM     22  O   UNL     1       8.057   5.589  13.630  0.00  0.00    +0.000 OA
ATOM     23  H   UNL     1       8.105   4.910  12.928  0.00  0.00    +0.000 HD
ENDBRANCH   9  22
TORSDOF 4
ENDMDL
MODEL 4
REMARK VINA RESULT:      -7.5      0.234      1.105
REMARK  Name = 
REMARK  4 active torsions:
REMARK  status: ('A' for Active; 'I' for Inactive)
REMARK    1  A    between atoms: C_4  and  C_5
REMARK    2  A    between atoms: C_8  and  O_9
REMARK    3  A    between atoms: C_15  and  O_16
REMARK    4  A    between atoms: C_17  and  O_18
REMARK                            x       y       z     vdW  Elec       q    Type
REMARK                         _______ _______ _______ _____ _____    ______ ____
ROOT
ATOM      1  O   UNL     1       2.015   9.699  17.400  0.00  0.00    +0.000 OA
ATOM      2  C   UNL     1       1.931   8.867  18.293  0.00  0.00    +0.000 A 
ATOM      3  C   UNL     1       2.349   7.479  18.070  0.00  0.00    +0.000 A 
ATOM      4  C   UNL     1       2.209   6.591  19.063  0.00  0.00    +0.000 A 
ATOM      5  O   UNL     1       1.684   6.865  20.314  0.00  0.00    +0.000 OA
ATOM      6  C   UNL     1       1.333   8.169  20.586  0.00  0.00    +0.000 A 
ATOM      7  C   UNL     1       0.876   8.454  21.876  0.00  0.00    +0.000 A 
ATOM      8  C   UNL     1       0.562   9.772  22.202  0.00  0.00    +0.000 A 
ATOM      9  C   UNL     1       0.680  10.787  21.254  0.00  0.00    +0.000 A 
ATOM     10  C   UNL     1       1.107  10.510  19.963  0.00  0.00    +0.000 A 
ATOM     11  C   UNL     1       1.438   9.193  19.637  0.00  0.00    +0.000 A 
ENDROOT
BRANCH   4  12
ATOM     12  C   UNL     1       2.666   5.215  18.844  0.00  0.00    +0.000 A 
ATOM     13  C   UNL     1       3.825   4.751  19.483  0.00  0.00    +0.000 A 
ATOM     14  C   UNL     1       4.364   3.505  19.149  0.00  0.00    +0.000 A 
ATOM     15  C   UNL     1       3.738   2.727  18.181  0.00  0.00    +0.000 A 
ATOM     16  C   UNL     1       2.566   3.156  17.569  0.00  0.00    +0.000 A 
ATOM     17  C   UNL     1       2.028   4.403  17.898  0.00  0.00    +0.000 A 
BRANCH  15  18
ATOM     18  O   UNL     1       4.258   1.531  17.785  0.00  0.00    +0.000 OA
ATOM     19  H   UNL     1       3.930   1.329  16.892  0.00  0.00    +0.000 HD
ENDBRANCH  15  18
ENDBRANCH   4  12
BRANCH   8  20
ATOM     20  O   UNL     1       0.140  10.128  23.453  0.00  0.00    +0.000 OA
ATOM     21  H   UNL     1       0.375  11.060  23.607  0.00  0.00    +0.000 HD
ENDBRANCH   8  20
BRANCH   9  22
ATOM     22  O   UNL     1       0.391  12.078  21.591  0.00  0.00    +0.000 OA
ATOM     23  H   UNL     1       0.260  12.538  20.738  0.00  0.00    +0.000 HD
ENDBRANCH   9  22
TORSDOF 4
ENDMDL
MODEL 5
REMARK VINA RESULT:      -7.4      4.663      7.453
REMARK  Name = 
REMARK  4 active torsions:
REMARK  status: ('A' for Active; 'I' for Inactive)
REMARK    1  A    between atoms: C_4  and  C_5
REMARK    2  A    between atoms: C_8  and  O_9
REMARK    3  A    between atoms: C_15  and  O_16
REMARK    4  A    between atoms: C_17  and  O_18
REMARK                            x       y       z     vdW  Elec       q    Type
REMARK                         _______ _______ _______ _____ _____    ______ ____
ROOT
ATOM      1  O   UNL     1       7.439   6.790  18.106  0.00  0.00    +0.000 OA
ATOM      2  C   UNL     1       6.647   5.882  17.897  0.00  0.00    +0.000 A 
ATOM      3  C   UNL     1       5.727   5.431  18.947  0.00  0.00    +0.000 A 
ATOM      4  C   UNL     1       4.898   4.410  18.689  0.00  0.00    +0.000 A 
ATOM      5  O   UNL     1       4.832   3.715  17.494  0.00  0.00    +0.000 OA
ATOM      6  C   UNL     1       5.638   4.144  16.462  0.00  0.00    +0.000 A 
ATOM      7  C   UNL     1       5.510   3.487  15.234  0.00  0.00    +0.000 A 
ATOM      8  C   UNL     1       6.271   3.927  14.154  0.00  0.00    +0.000 A 
ATOM      9  C   UNL     1       7.161   4.992  14.297  0.00  0.00    +0.000 A 
ATOM     10  C   UNL     1       7.314   5.632  15.518  0.00  0.00    +0.000 A 
ATOM     11  C   UNL     1       6.541   5.203  16.599  0.00  0.00    +0.000 A 
ENDROOT
BRANCH   4  12
ATOM     12  C   UNL     1       3.955   3.991  19.730  0.00  0.00    +0.000 A 
ATOM     13  C   UNL     1       4.014   2.689  20.247  0.00  0.00    +0.000 A 
ATOM     14  C   UNL     1       3.016   2.226  21.109  0.00  0.00    +0.000 A 
ATOM     15  C   UNL     1       1.966   3.070  21.454  0.00  0.00    +0.000 A 
ATOM     16  C   UNL     1       1.915   4.377  20.983  0.00  0.00    +0.000 A 
ATOM     17  C   UNL     1       2.910   4.839  20.118  0.00  0.00    +0.000 A 
BRANCH  15  18
ATOM     18  O   UNL     1       0.942   2.643  22.248  0.00  0.00    +0.000 OA
ATOM     19  H   UNL     1       0.679   1.751  21.964  0.00  0.00    +0.000 HD
ENDBRANCH  15  18
ENDBRANCH   4  12
BRANCH   8  20
ATOM     20  O   UNL     1       6.174   3.354  12.916  0.00  0.00    +0.000 OA
ATOM     21  H   UNL     1       6.003   2.403  13.027  0.00  0.00    +0.000 HD
ENDBRANCH   8  20
BRANCH   9  22
ATOM     22  O   UNL     1       7.885   5.430  13.227  0.00  0.00    +0.000 OA
ATOM     23  H   UNL     1       8.789   5.089  13.377  0.00  0.00    +0.000 HD
ENDBRANCH   9  22
TORSDOF 4
ENDMDL
MODEL 6
REMARK VINA RESULT:      -7.4      2.547      7.362
REMARK  Name = 
REMARK  4 active torsions:
REMARK  status: ('A' for Active; 'I' for Inactive)
REMARK    1  A    between atoms: C_4  and  C_5
REMARK    2  A    between atoms: C_8  and  O_9
REMARK    3  A    between atoms: C_15  and  O_16
REMARK    4  A    between atoms: C_17  and  O_18
REMARK                            x       y       z     vdW  Elec       q    Type
REMARK                         _______ _______ _______ _____ _____    ______ ____
ROOT
ATOM      1  O   UNL     1       2.116   3.477  18.047  0.00  0.00    +0.000 OA
ATOM      2  C   UNL     1       2.606   4.595  17.979  0.00  0.00    +0.000 A 
ATOM      3  C   UNL     1       1.984   5.733  18.665  0.00  0.00    +0.000 A 
ATOM      4  C   UNL     1       2.533   6.947  18.536  0.00  0.00    +0.000 A 
ATOM      5  O   UNL     1       3.659   7.242  17.788  0.00  0.00    +0.000 OA
ATOM      6  C   UNL     1       4.309   6.193  17.175  0.00  0.00    +0.000 A 
ATOM      7  C   UNL     1       5.491   6.486  16.485  0.00  0.00    +0.000 A 
ATOM      8  C   UNL     1       6.202   5.442  15.898  0.00  0.00    +0.000 A 
ATOM      9  C   UNL     1       5.735   4.130  15.976  0.00  0.00    +0.000 A 
ATOM     10  C   UNL     1       4.551   3.833  16.634  0.00  0.00    +0.000 A 
ATOM     11  C   UNL     1       3.843   4.875  17.239  0.00  0.00    +0.000 A 
ENDROOT
BRANCH   4  12
ATOM     12  C   UNL     1       1.927   8.072  19.257  0.00  0.00    +0.000 A 
ATOM     13  C   UNL     1       1.609   7.943  20.616  0.00  0.00    +0.000 A 
ATOM     14  C   UNL     1       0.876   8.940  21.267  0.00  0.00    +0.000 A 
ATOM     15  C   UNL     1       0.470  10.064  20.555  0.00  0.00    +0.000 A 
ATOM     16  C   UNL     1       0.814  10.224  19.218  0.00  0.00    +0.000 A 
ATOM     17  C   UNL     1       1.541   9.227  18.565  0.00  0.00    +0.000 A 
BRANCH  15  18
ATOM     18  O   UNL     1      -0.292  11.035  21.134  0.00  0.00    +0.000 OA
ATOM     19  H   UNL     1      -1.229  10.812  21.006  0.00  0.00    +0.000 HD
ENDBRANCH  15  18
ENDBRANCH   4  12
BRANCH   8  20
ATOM     20  O   UNL     1       7.380   5.650  15.236  0.00  0.00    +0.000 OA
ATOM     21  H   UNL     1       7.587   4.856  14.712  0.00  0.00    +0.000 HD
ENDBRANCH   8  20
BRANCH   9  22
ATOM     22  O   UNL     1       6.451   3.113  15.416  0.00  0.00    +0.000 OA
ATOM     23  H   UNL     1       7.129   3.555  14.866  0.00  0.00    +0.000 HD
ENDBRANCH   9  22
TORSDOF 4
ENDMDL
MODEL 7
REMARK VINA RESULT:      -7.3      2.348      7.276
REMARK  Name = 
REMARK  4 active torsions:
REMARK  status: ('A' for Active; 'I' for Inactive)
REMARK    1  A    between atoms: C_4  and  C_5
REMARK    2  A    between atoms: C_8  and  O_9
REMARK    3  A    between atoms: C_15  and  O_16
REMARK    4  A    between atoms: C_17  and  O_18
REMARK                            x       y       z     vdW  Elec       q    Type
REMARK                         _______ _______ _______ _____ _____    ______ ____
ROOT
ATOM      1  O   UNL     1       2.758   3.344  19.350  0.00  0.00    +0.000 OA
ATOM      2  C   UNL     1       2.930   4.489  18.956  0.00  0.00    +0.000 A 
ATOM      3  C   UNL     1       2.243   5.616  19.595  0.00  0.00    +0.000 A 
ATOM      4  C   UNL     1       2.432   6.851  19.111  0.00  0.00    +0.000 A 
ATOM      5  O   UNL     1       3.231   7.173  18.028  0.00  0.00    +0.000 OA
ATOM      6  C   UNL     1       3.941   6.152  17.435  0.00  0.00    +0.000 A 
ATOM      7  C   UNL     1       4.807   6.496  16.391  0.00  0.00    +0.000 A 
ATOM      8  C   UNL     1       5.579   5.497  15.802  0.00  0.00    +0.000 A 
ATOM      9  C   UNL     1       5.478   4.174  16.231  0.00  0.00    +0.000 A 
ATOM     10  C   UNL     1       4.603   3.819  17.247  0.00  0.00    +0.000 A 
ATOM     11  C   UNL     1       3.839   4.820  17.850  0.00  0.00    +0.000 A 
ENDROOT
BRANCH   4  12
ATOM     12  C   UNL     1       1.772   7.976  19.780  0.00  0.00    +0.000 A 
ATOM     13  C   UNL     1       1.462   9.138  19.058  0.00  0.00    +0.000 A 
ATOM     14  C   UNL     1       0.994  10.276  19.720  0.00  0.00    +0.000 A 
ATOM     15  C   UNL     1       0.833  10.246  21.101  0.00  0.00    +0.000 A 
ATOM     16  C   UNL     1       1.097   9.089  21.825  0.00  0.00    +0.000 A 
ATOM     17  C   UNL     1       1.569   7.952  21.166  0.00  0.00    +0.000 A 
BRANCH  15  18
ATOM     18  O   UNL     1       0.431  11.350  21.794  0.00  0.00    +0.000 OA
ATOM     19  H   UNL     1      -0.480  11.209  22.102  0.00  0.00    +0.000 HD
ENDBRANCH  15  18
ENDBRANCH   4  12
BRANCH   8  20
ATOM     20  O   UNL     1       6.469   5.765  14.800  0.00  0.00    +0.000 OA
ATOM     21  H   UNL     1       7.169   6.342  15.151  0.00  0.00    +0.000 HD
ENDBRANCH   8  20
BRANCH   9  22
ATOM     22  O   UNL     1       6.256   3.208  15.662  0.00  0.00    +0.000 OA
ATOM     23  H   UNL     1       6.446   3.535  14.760  0.00  0.00    +0.000 HD
ENDBRANCH   9  22
TORSDOF 4
ENDMDL
MODEL 8
REMARK VINA RESULT:      -7.3      2.646      7.240
REMARK  Name = 
REMARK  4 active torsions:
REMARK  status: ('A' for Active; 'I' for Inactive)
REMARK    1  A    between atoms: C_4  and  C_5
REMARK    2  A    between atoms: C_8  and  O_9
REMARK    3  A    between atoms: C_15  and  O_16
REMARK    4  A    between atoms: C_17  and  O_18
REMARK                            x       y       z     vdW  Elec       q    Type
REMARK                         _______ _______ _______ _____ _____    ______ ____
ROOT
ATOM      1  O   UNL     1       3.405   4.277  20.212  0.00  0.00    +0.000 OA
ATOM      2  C   UNL     1       3.469   5.284  19.521  0.00  0.00    +0.000 A 
ATOM      3  C   UNL     1       2.488   6.363  19.670  0.00  0.00    +0.000 A 
ATOM      4  C   UNL     1       2.573   7.434  18.870  0.00  0.00    +0.000 A 
ATOM      5  O   UNL     1       3.522   7.621  17.880  0.00  0.00    +0.000 OA
ATOM      6  C   UNL     1       4.499   6.658  17.745  0.00  0.00    +0.000 A 
ATOM      7  C   UNL     1       5.500   6.890  16.796  0.00  0.00    +0.000 A 
ATOM      8  C   UNL     1       6.532   5.963  16.668  0.00  0.00    +0.000 A 
ATOM      9  C   UNL     1       6.558   4.813  17.458  0.00  0.00    +0.000 A 
ATOM     10  C   UNL     1       5.555   4.561  18.382  0.00  0.00    +0.000 A 
ATOM     11  C   UNL     1       4.528   5.496  18.524  0.00  0.00    +0.000 A 
ENDROOT
BRANCH   4  12
ATOM     12  C   UNL     1       1.612   8.526  19.053  0.00  0.00    +0.000 A 
ATOM     13  C   UNL     1       1.089   8.794  20.326  0.00  0.00    +0.000 A 
ATOM     14  C   UNL     1       0.047   9.713  20.482  0.00  0.00    +0.000 A 
ATOM     15  C   UNL     1      -0.464  10.362  19.364  0.00  0.00    +0.000 A 
ATOM     16  C   UNL     1       0.071  10.137  18.101  0.00  0.00    +0.000 A 
ATOM     17  C   UNL     1       1.109   9.216  17.943  0.00  0.00    +0.000 A 
BRANCH  15  18
ATOM     18  O   UNL     1      -1.516  11.224  19.462  0.00  0.00    +0.000 OA
ATOM     19  H   UNL     1      -1.170  12.124  19.586  0.00  0.00    +0.000 HD
ENDBRANCH  15  18
ENDBRANCH   4  12
BRANCH   8  20
ATOM     20  O   UNL     1       7.560   6.140  15.785  0.00  0.00    +0.000 OA
ATOM     21  H   UNL     1       7.520   7.048  15.438  0.00  0.00    +0.000 HD
ENDBRANCH   8  20
BRANCH   9  22
ATOM     22  O   UNL     1       7.586   3.924  17.340  0.00  0.00    +0.000 OA
ATOM     23  H   UNL     1       8.289   4.412  16.866  0.00  0.00    +0.000 HD
ENDBRANCH   9  22
TORSDOF 4
ENDMDL
MODEL 9
REMARK VINA RESULT:      -7.2      2.682      7.261
REMARK  Name = 
REMARK  4 active torsions:
REMARK  status: ('A' for Active; 'I' for Inactive)
REMARK    1  A    between atoms: C_4  and  C_5
REMARK    2  A    between atoms: C_8  and  O_9
REMARK    3  A    between atoms: C_15  and  O_16
REMARK    4  A    between atoms: C_17  and  O_18
REMARK                            x       y       z     vdW  Elec       q    Type
REMARK                         _______ _______ _______ _____ _____    ______ ____
ROOT
ATOM      1  O   UNL     1       3.807   3.996  20.144  0.00  0.00    +0.000 OA
ATOM      2  C   UNL     1       3.799   5.015  19.468  0.00  0.00    +0.000 A 
ATOM      3  C   UNL     1       2.762   6.035  19.657  0.00  0.00    +0.000 A 
ATOM      4  C   UNL     1       2.769   7.121  18.873  0.00  0.00    +0.000 A 
ATOM      5  O   UNL     1       3.684   7.376  17.866  0.00  0.00    +0.000 OA
ATOM      6  C   UNL     1       4.710   6.472  17.694  0.00  0.00    +0.000 A 
ATOM      7  C   UNL     1       5.675   6.775  16.727  0.00  0.00    +0.000 A 
ATOM      8  C   UNL     1       6.754   5.910  16.562  0.00  0.00    +0.000 A 
ATOM      9  C   UNL     1       6.862   4.752  17.331  0.00  0.00    +0.000 A 
ATOM     10  C   UNL     1       5.896   4.429  18.273  0.00  0.00    +0.000 A 
ATOM     11  C   UNL     1       4.821   5.302  18.453  0.00  0.00    +0.000 A 
ENDROOT
BRANCH   4  12
ATOM     12  C   UNL     1       1.752   8.153  19.094  0.00  0.00    +0.000 A 
ATOM     13  C   UNL     1       1.371   8.999  18.043  0.00  0.00    +0.000 A 
ATOM     14  C   UNL     1       0.535  10.093  18.284  0.00  0.00    +0.000 A 
ATOM     15  C   UNL     1       0.080  10.333  19.576  0.00  0.00    +0.000 A 
ATOM     16  C   UNL     1       0.416   9.480  20.622  0.00  0.00    +0.000 A 
ATOM     17  C   UNL     1       1.255   8.389  20.382  0.00  0.00    +0.000 A 
BRANCH  15  18
ATOM     18  O   UNL     1      -0.692  11.418  19.868  0.00  0.00    +0.000 OA
ATOM     19  H   UNL     1      -1.212  11.651  19.081  0.00  0.00    +0.000 HD
ENDBRANCH  15  18
ENDBRANCH   4  12
BRANCH   8  20
ATOM     20  O   UNL     1       7.750   6.158  15.659  0.00  0.00    +0.000 OA
ATOM     21  H   UNL     1       7.560   6.999  15.209  0.00  0.00    +0.000 HD
ENDBRANCH   8  20
BRANCH   9  22
ATOM     22  O   UNL     1       7.936   3.923  17.176  0.00  0.00    +0.000 OA
ATOM     23  H   UNL     1       8.079   3.874  16.210  0.00  0.00    +0.000 HD
ENDBRANCH   9  22
TORSDOF 4
ENDMDL
