MODEL 1
REMARK VINA RESULT:      -7.9      0.000      0.000
REMARK  Name = 
REMARK  7 active torsions:
REMARK  status: ('A' for Active; 'I' for Inactive)
REMARK    1  A    between atoms: C_1  and  C_2
REMARK    2  A    between atoms: C_7  and  C_8
REMARK    3  A    between atoms: C_9  and  C_10
REMARK    4  A    between atoms: C_12  and  C_13
REMARK    5  A    between atoms: C_13  and  C_14
REMARK    6  A    between atoms: C_13  and  C_15
REMARK    7  A    between atoms: C_13  and  C_16
REMARK                            x       y       z     vdW  Elec       q    Type
REMARK                         _______ _______ _______ _____ _____    ______ ____
ROOT
ATOM      1  C   UNL     1       7.782   5.225  12.447  0.00  0.00    +0.000 C 
ATOM      2  C   UNL     1       6.972   4.944  13.682  0.00  0.00    +0.000 C 
ATOM      3  O   UNL     1       5.790   4.619  13.563  0.00  0.00    +0.000 OA
ATOM      4  N   UNL     1       7.662   5.119  14.859  0.00  0.00    +0.000 N 
ATOM      5  C   UNL     1       7.130   4.895  16.107  0.00  0.00    +0.000 A 
ATOM      6  N   UNL     1       7.646   5.412  17.196  0.00  0.00    +0.000 NA
ATOM      7  C   UNL     1       6.845   5.085  18.290  0.00  0.00    +0.000 A 
ATOM      8  C   UNL     1       7.174   5.658  19.624  0.00  0.00    +0.000 C 
ATOM      9  C   UNL     1       5.792   4.229  18.008  0.00  0.00    +0.000 A 
ATOM     10  S   UNL     1       5.783   3.876  16.340  0.00  0.00    +0.000 S 
ATOM     11  H   UNL     1       8.512   5.669  14.862  0.00  0.00    +0.000 HD
ENDROOT
BRANCH   9  12
ATOM     12  C   UNL     1       4.826   3.674  18.906  0.00  0.00    +0.000 A 
ATOM     13  N   UNL     1       3.567   4.060  18.960  0.00  0.00    +0.000 NA
ATOM     14  C   UNL     1       3.042   3.285  19.962  0.00  0.00    +0.000 A 
ATOM     15  N   UNL     1       3.922   2.452  20.533  0.00  0.00    +0.000 NA
ATOM     16  O   UNL     1       5.101   2.697  19.830  0.00  0.00    +0.000 OA
BRANCH  14  17
ATOM     17  C   UNL     1       1.588   3.343  20.363  0.00  0.00    +0.000 C 
ATOM     18  C   UNL     1       1.131   4.802  20.562  0.00  0.00    +0.000 C 
ATOM     19  C   UNL     1       0.708   2.705  19.269  0.00  0.00    +0.000 C 
ATOM     20  C   UNL     1       1.354   2.583  21.683  0.00  0.00    +0.000 C 
ENDBRANCH  14  17
ENDBRANCH   9  12
TORSDOF 2
ENDMDL
MODEL 2
REMARK VINA RESULT:      -7.6      0.749      1.250
REMARK  Name = 
REMARK  7 active torsions:
REMARK  status: ('A' for Active; 'I' for Inactive)
REMARK    1  A    between atoms: C_1  and  C_2
REMARK    2  A    between atoms: C_7  and  C_8
REMARK    3  A    between atoms: C_9  and  C_10
REMARK    4  A    between atoms: C_12  and  C_13
REMARK    5  A    between atoms: C_13  and  C_14
REMARK    6  A    between atoms: C_13  and  C_15
REMARK    7  A    between atoms: C_13  and  C_16
REMARK                            x       y       z     vdW  Elec       q    Type
REMARK                         _______ _______ _______ _____ _____    ______ ____
ROOT
ATOM      1  C   UNL     1       7.317   4.462  11.653  0.00  0.00    +0.000 C 
ATOM      2  C   UNL     1       6.608   4.331  12.972  0.00  0.00    +0.000 C 
ATOM      3  O   UNL     1       5.493   3.808  13.004  0.00  0.00    +0.000 OA
ATOM      4  N   UNL     1       7.301   4.858  14.037  0.00  0.00    +0.000 N 
ATOM      5  C   UNL     1       6.856   4.828  15.339  0.00  0.00    +0.000 A 
ATOM      6  N   UNL     1       7.316   5.640  16.260  0.00  0.00    +0.000 NA
ATOM      7  C   UNL     1       6.619   5.436  17.450  0.00  0.00    +0.000 A 
ATOM      8  C   UNL     1       6.894   6.325  18.612  0.00  0.00    +0.000 C 
ATOM      9  C   UNL     1       5.713   4.386  17.423  0.00  0.00    +0.000 A 
ATOM     10  S   UNL     1       5.706   3.687  15.869  0.00  0.00    +0.000 S 
ATOM     11  H   UNL     1       8.046   5.522  13.869  0.00  0.00    +0.000 HD
ENDROOT
BRANCH   9  12
ATOM     12  C   UNL     1       4.885   3.894  18.481  0.00  0.00    +0.000 A 
ATOM     13  N   UNL     1       3.601   4.169  18.597  0.00  0.00    +0.000 NA
ATOM     14  C   UNL     1       3.241   3.516  19.748  0.00  0.00    +0.000 A 
ATOM     15  N   UNL     1       4.244   2.865  20.349  0.00  0.00    +0.000 NA
ATOM     16  O   UNL     1       5.332   3.101  19.510  0.00  0.00    +0.000 OA
BRANCH  14  17
ATOM     17  C   UNL     1       1.826   3.506  20.272  0.00  0.00    +0.000 C 
ATOM     18  C   UNL     1       0.877   2.804  19.278  0.00  0.00    +0.000 C 
ATOM     19  C   UNL     1       1.762   2.752  21.616  0.00  0.00    +0.000 C 
ATOM     20  C   UNL     1       1.313   4.941  20.492  0.00  0.00    +0.000 C 
ENDBRANCH  14  17
ENDBRANCH   9  12
TORSDOF 2
ENDMDL
MODEL 3
REMARK VINA RESULT:      -7.5      1.146      1.175
REMARK  Name = 
REMARK  7 active torsions:
REMARK  status: ('A' for Active; 'I' for Inactive)
REMARK    1  A    between atoms: C_1  and  C_2
REMARK    2  A    between atoms: C_7  and  C_8
REMARK    3  A    between atoms: C_9  and  C_10
REMARK    4  A    between atoms: C_12  and  C_13
REMARK    5  A    between atoms: C_13  and  C_14
REMARK    6  A    between atoms: C_13  and  C_15
REMARK    7  A    between atoms: C_13  and  C_16
REMARK                            x       y       z     vdW  Elec       q    Type
REMARK                         _______ _______ _______ _____ _____    ______ ____
ROOT
ATOM      1  C   UNL     1       7.186   4.033  11.319  0.00  0.00    +0.000 C 
ATOM      2  C   UNL     1       6.546   4.035  12.679  0.00  0.00    +0.000 C 
ATOM      3  O   UNL     1       5.442   3.508  12.823  0.00  0.00    +0.000 OA
ATOM      4  N   UNL     1       7.283   4.680  13.645  0.00  0.00    +0.000 N 
ATOM      5  C   UNL     1       6.905   4.783  14.964  0.00  0.00    +0.000 A 
ATOM      6  N   UNL     1       7.398   5.693  15.769  0.00  0.00    +0.000 NA
ATOM      7  C   UNL     1       6.765   5.609  17.009  0.00  0.00    +0.000 A 
ATOM      8  C   UNL     1       7.084   6.619  18.054  0.00  0.00    +0.000 C 
ATOM      9  C   UNL     1       5.875   4.554  17.140  0.00  0.00    +0.000 A 
ATOM     10  S   UNL     1       5.800   3.693  15.670  0.00  0.00    +0.000 S 
ATOM     11  H   UNL     1       8.009   5.329  13.370  0.00  0.00    +0.000 HD
ENDROOT
BRANCH   9  12
ATOM     12  C   UNL     1       5.109   4.168  18.285  0.00  0.00    +0.000 A 
ATOM     13  N   UNL     1       3.832   4.454  18.444  0.00  0.00    +0.000 NA
ATOM     14  C   UNL     1       3.538   3.918  19.671  0.00  0.00    +0.000 A 
ATOM     15  N   UNL     1       4.577   3.328  20.277  0.00  0.00    +0.000 NA
ATOM     16  O   UNL     1       5.616   3.480  19.359  0.00  0.00    +0.000 OA
BRANCH  14  17
ATOM     17  C   UNL     1       2.155   3.960  20.271  0.00  0.00    +0.000 C 
ATOM     18  C   UNL     1       1.739   5.410  20.592  0.00  0.00    +0.000 C 
ATOM     19  C   UNL     1       1.128   3.370  19.283  0.00  0.00    +0.000 C 
ATOM     20  C   UNL     1       2.100   3.145  21.577  0.00  0.00    +0.000 C 
ENDBRANCH  14  17
ENDBRANCH   9  12
TORSDOF 2
ENDMDL
MODEL 4
REMARK VINA RESULT:      -7.3      1.516      1.861
REMARK  Name = 
REMARK  7 active torsions:
REMARK  status: ('A' for Active; 'I' for Inactive)
REMARK    1  A    between atoms: C_1  and  C_2
REMARK    2  A    between atoms: C_7  and  C_8
REMARK    3  A    between atoms: C_9  and  C_10
REMARK    4  A    between atoms: C_12  and  C_13
REMARK    5  A    between atoms: C_13  and  C_14
REMARK    6  A    between atoms: C_13  and  C_15
REMARK    7  A    between atoms: C_13  and  C_16
REMARK                            x       y       z     vdW  Elec       q    Type
REMARK                         _______ _______ _______ _____ _____    ______ ____
ROOT
ATOM      1  C   UNL     1       7.088   3.620  11.453  0.00  0.00    +0.000 C 
ATOM      2  C   UNL     1       6.384   3.881  12.754  0.00  0.00    +0.000 C 
ATOM      3  O   UNL     1       5.179   3.642  12.843  0.00  0.00    +0.000 OA
ATOM      4  N   UNL     1       7.192   4.410  13.734  0.00  0.00    +0.000 N 
ATOM      5  C   UNL     1       6.768   4.704  15.010  0.00  0.00    +0.000 A 
ATOM      6  N   UNL     1       7.414   5.533  15.793  0.00  0.00    +0.000 NA
ATOM      7  C   UNL     1       6.703   5.700  16.981  0.00  0.00    +0.000 A 
ATOM      8  C   UNL     1       7.190   6.687  17.983  0.00  0.00    +0.000 C 
ATOM      9  C   UNL     1       5.579   4.898  17.106  0.00  0.00    +0.000 A 
ATOM     10  S   UNL     1       5.392   3.964  15.692  0.00  0.00    +0.000 S 
ATOM     11  H   UNL     1       8.069   4.846  13.477  0.00  0.00    +0.000 HD
ENDROOT
BRANCH   9  12
ATOM     12  C   UNL     1       4.673   4.796  18.208  0.00  0.00    +0.000 A 
ATOM     13  N   UNL     1       3.828   3.798  18.373  0.00  0.00    +0.000 NA
ATOM     14  C   UNL     1       3.163   4.134  19.525  0.00  0.00    +0.000 A 
ATOM     15  N   UNL     1       3.551   5.296  20.065  0.00  0.00    +0.000 NA
ATOM     16  O   UNL     1       4.558   5.733  19.205  0.00  0.00    +0.000 OA
BRANCH  14  17
ATOM     17  C   UNL     1       2.108   3.253  20.146  0.00  0.00    +0.000 C 
ATOM     18  C   UNL     1       1.807   2.037  19.246  0.00  0.00    +0.000 C 
ATOM     19  C   UNL     1       2.588   2.733  21.516  0.00  0.00    +0.000 C 
ATOM     20  C   UNL     1       0.795   4.032  20.352  0.00  0.00    +0.000 C 
ENDBRANCH  14  17
ENDBRANCH   9  12
TORSDOF 2
ENDMDL
MODEL 5
REMARK VINA RESULT:      -6.9      1.775      6.900
REMARK  Name = 
REMARK  7 active torsions:
REMARK  status: ('A' for Active; 'I' for Inactive)
REMARK    1  A    between atoms: C_1  and  C_2
REMARK    2  A    between atoms: C_7  and  C_8
REMARK    3  A    between atoms: C_9  and  C_10
REMARK    4  A    between atoms: C_12  and  C_13
REMARK    5  A    between atoms: C_13  and  C_14
REMARK    6  A    between atoms: C_13  and  C_15
REMARK    7  A    between atoms: C_13  and  C_16
REMARK                            x       y       z     vdW  Elec       q    Type
REMARK                         _______ _______ _______ _____ _____    ______ ____
ROOT
ATOM      1  C   UNL     1       1.460   2.800  20.906  0.00  0.00    +0.000 C 
ATOM      2  C   UNL     1       2.421   2.970  19.762  0.00  0.00    +0.000 C 
ATOM      3  O   UNL     1       2.341   2.211  18.795  0.00  0.00    +0.000 OA
ATOM      4  N   UNL     1       3.340   3.977  19.945  0.00  0.00    +0.000 N 
ATOM      5  C   UNL     1       4.297   4.326  19.020  0.00  0.00    +0.000 A 
ATOM      6  N   UNL     1       5.374   5.000  19.341  0.00  0.00    +0.000 NA
ATOM      7  C   UNL     1       6.195   5.127  18.221  0.00  0.00    +0.000 A 
ATOM      8  C   UNL     1       7.533   5.763  18.372  0.00  0.00    +0.000 C 
ATOM      9  C   UNL     1       5.656   4.632  17.044  0.00  0.00    +0.000 A 
ATOM     10  S   UNL     1       4.124   3.955  17.365  0.00  0.00    +0.000 S 
ATOM     11  H   UNL     1       3.515   4.330  20.877  0.00  0.00    +0.000 HD
ENDROOT
BRANCH   9  12
ATOM     12  C   UNL     1       6.216   4.651  15.728  0.00  0.00    +0.000 A 
ATOM     13  N   UNL     1       5.704   3.999  14.703  0.00  0.00    +0.000 NA
ATOM     14  C   UNL     1       6.572   4.285  13.680  0.00  0.00    +0.000 A 
ATOM     15  N   UNL     1       7.598   5.070  14.033  0.00  0.00    +0.000 NA
ATOM     16  O   UNL     1       7.362   5.325  15.383  0.00  0.00    +0.000 OA
BRANCH  14  17
ATOM     17  C   UNL     1       6.369   3.785  12.271  0.00  0.00    +0.000 C 
ATOM     18  C   UNL     1       6.983   2.381  12.092  0.00  0.00    +0.000 C 
ATOM     19  C   UNL     1       4.863   3.698  11.950  0.00  0.00    +0.000 C 
ATOM     20  C   UNL     1       7.032   4.732  11.254  0.00  0.00    +0.000 C 
ENDBRANCH  14  17
ENDBRANCH   9  12
TORSDOF 2
ENDMDL
MODEL 6
REMARK VINA RESULT:      -6.8      1.889      2.370
REMARK  Name = 
REMARK  7 active torsions:
REMARK  status: ('A' for Active; 'I' for Inactive)
REMARK    1  A    between atoms: C_1  and  C_2
REMARK    2  A    between atoms: C_7  and  C_8
REMARK    3  A    between atoms: C_9  and  C_10
REMARK    4  A    between atoms: C_12  and  C_13
REMARK    5  A    between atoms: C_13  and  C_14
REMARK    6  A    between atoms: C_13  and  C_15
REMARK    7  A    between atoms: C_13  and  C_16
REMARK                            x       y       z     vdW  Elec       q    Type
REMARK                         _______ _______ _______ _____ _____    ______ ____
ROOT
ATOM      1  C   UNL     1       7.135   2.908  11.222  0.00  0.00    +0.000 C 
ATOM      2  C   UNL     1       6.394   3.431  12.421  0.00  0.00    +0.000 C 
ATOM      3  O   UNL     1       5.163   3.380  12.435  0.00  0.00    +0.000 OA
ATOM      4  N   UNL     1       7.206   3.960  13.397  0.00  0.00    +0.000 N 
ATOM      5  C   UNL     1       6.749   4.472  14.589  0.00  0.00    +0.000 A 
ATOM      6  N   UNL     1       7.460   5.294  15.322  0.00  0.00    +0.000 NA
ATOM      7  C   UNL     1       6.706   5.711  16.418  0.00  0.00    +0.000 A 
ATOM      8  C   UNL     1       7.270   6.739  17.336  0.00  0.00    +0.000 C 
ATOM      9  C   UNL     1       5.467   5.100  16.541  0.00  0.00    +0.000 A 
ATOM     10  S   UNL     1       5.234   4.030  15.234  0.00  0.00    +0.000 S 
ATOM     11  H   UNL     1       8.154   4.230  13.166  0.00  0.00    +0.000 HD
ENDROOT
BRANCH   9  12
ATOM     12  C   UNL     1       4.485   5.270  17.567  0.00  0.00    +0.000 A 
ATOM     13  N   UNL     1       3.823   4.274  18.122  0.00  0.00    +0.000 NA
ATOM     14  C   UNL     1       2.992   4.905  19.012  0.00  0.00    +0.000 A 
ATOM     15  N   UNL     1       3.104   6.239  19.020  0.00  0.00    +0.000 NA
ATOM     16  O   UNL     1       4.099   6.486  18.075  0.00  0.00    +0.000 OA
BRANCH  14  17
ATOM     17  C   UNL     1       2.056   4.155  19.928  0.00  0.00    +0.000 C 
ATOM     18  C   UNL     1       2.837   3.178  20.831  0.00  0.00    +0.000 C 
ATOM     19  C   UNL     1       1.291   5.143  20.832  0.00  0.00    +0.000 C 
ATOM     20  C   UNL     1       1.031   3.341  19.116  0.00  0.00    +0.000 C 
ENDBRANCH  14  17
ENDBRANCH   9  12
TORSDOF 2
ENDMDL
MODEL 7
REMARK VINA RESULT:      -6.7      1.811      6.848
REMARK  Name = 
REMARK  7 active torsions:
REMARK  status: ('A' for Active; 'I' for Inactive)
REMARK    1  A    between atoms: C_1  and  C_2
REMARK    2  A    between atoms: C_7  and  C_8
REMARK    3  A    between atoms: C_9  and  C_10
REMARK    4  A    between atoms: C_12  and  C_13
REMARK    5  A    between atoms: C_13  and  C_14
REMARK    6  A    between atoms: C_13  and  C_15
REMARK    7  A    between atoms: C_13  and  C_16
REMARK                            x       y       z     vdW  Elec       q    Type
REMARK                         _______ _______ _______ _____ _____    ______ ____
ROOT
ATOM      1  C   UNL     1       1.472   2.620  21.036  0.00  0.00    +0.000 C 
ATOM      2  C   UNL     1       2.438   2.785  19.895  0.00  0.00    +0.000 C 
ATOM      3  O   UNL     1       2.445   1.949  18.990  0.00  0.00    +0.000 OA
ATOM      4  N   UNL     1       3.261   3.880  20.010  0.00  0.00    +0.000 N 
ATOM      5  C   UNL     1       4.203   4.240  19.073  0.00  0.00    +0.000 A 
ATOM      6  N   UNL     1       5.210   5.030  19.354  0.00  0.00    +0.000 NA
ATOM      7  C   UNL     1       6.039   5.142  18.238  0.00  0.00    +0.000 A 
ATOM      8  C   UNL     1       7.313   5.904  18.356  0.00  0.00    +0.000 C 
ATOM      9  C   UNL     1       5.570   4.510  17.097  0.00  0.00    +0.000 A 
ATOM     10  S   UNL     1       4.097   3.728  17.451  0.00  0.00    +0.000 S 
ATOM     11  H   UNL     1       3.386   4.319  20.913  0.00  0.00    +0.000 HD
ENDROOT
BRANCH   9  12
ATOM     12  C   UNL     1       6.153   4.476  15.791  0.00  0.00    +0.000 A 
ATOM     13  N   UNL     1       5.575   3.921  14.744  0.00  0.00    +0.000 NA
ATOM     14  C   UNL     1       6.495   4.103  13.743  0.00  0.00    +0.000 A 
ATOM     15  N   UNL     1       7.612   4.731  14.129  0.00  0.00    +0.000 NA
ATOM     16  O   UNL     1       7.387   4.991  15.480  0.00  0.00    +0.000 OA
BRANCH  14  17
ATOM     17  C   UNL     1       6.252   3.663  12.320  0.00  0.00    +0.000 C 
ATOM     18  C   UNL     1       4.753   3.753  11.966  0.00  0.00    +0.000 C 
ATOM     19  C   UNL     1       7.034   4.564  11.343  0.00  0.00    +0.000 C 
ATOM     20  C   UNL     1       6.707   2.206  12.113  0.00  0.00    +0.000 C 
ENDBRANCH  14  17
ENDBRANCH   9  12
TORSDOF 2
ENDMDL
MODEL 8
REMARK VINA RESULT:      -6.7      4.953      7.455
REMARK  Name = 
REMARK  7 active torsions:
REMARK  status: ('A' for Active; 'I' for Inactive)
REMARK    1  A    between atoms: C_1  and  C_2
REMARK    2  A    between atoms: C_7  and  C_8
REMARK    3  A    between atoms: C_9  and  C_10
REMARK    4  A    between atoms: C_12  and  C_13
REMARK    5  A    between atoms: C_13  and  C_14
REMARK    6  A    between atoms: C_13  and  C_15
REMARK    7  A    between atoms: C_13  and  C_16
REMARK                            x       y       z     vdW  Elec       q    Type
REMARK                         _______ _______ _______ _____ _____    ______ ____
ROOT
ATOM      1  C   UNL     1      -1.066  12.026  22.735  0.00  0.00    +0.000 C 
ATOM      2  C   UNL     1      -0.221  10.848  22.337  0.00  0.00    +0.000 C 
ATOM      3  O   UNL     1       0.287  10.150  23.215  0.00  0.00    +0.000 OA
ATOM      4  N   UNL     1      -0.080  10.691  20.977  0.00  0.00    +0.000 N 
ATOM      5  C   UNL     1       0.626   9.670  20.386  0.00  0.00    +0.000 A 
ATOM      6  N   UNL     1       1.065   9.738  19.153  0.00  0.00    +0.000 NA
ATOM      7  C   UNL     1       1.817   8.600  18.863  0.00  0.00    +0.000 A 
ATOM      8  C   UNL     1       2.513   8.507  17.550  0.00  0.00    +0.000 C 
ATOM      9  C   UNL     1       1.834   7.641  19.864  0.00  0.00    +0.000 A 
ATOM     10  S   UNL     1       0.937   8.204  21.200  0.00  0.00    +0.000 S 
ATOM     11  H   UNL     1      -0.275  11.471  20.362  0.00  0.00    +0.000 HD
ENDROOT
BRANCH   9  12
ATOM     12  C   UNL     1       2.466   6.358  19.862  0.00  0.00    +0.000 A 
ATOM     13  N   UNL     1       1.866   5.244  20.234  0.00  0.00    +0.000 NA
ATOM     14  C   UNL     1       2.846   4.295  20.092  0.00  0.00    +0.000 A 
ATOM     15  N   UNL     1       4.020   4.775  19.662  0.00  0.00    +0.000 NA
ATOM     16  O   UNL     1       3.771   6.138  19.497  0.00  0.00    +0.000 OA
BRANCH  14  17
ATOM     17  C   UNL     1       2.611   2.830  20.364  0.00  0.00    +0.000 C 
ATOM     18  C   UNL     1       1.787   2.186  19.229  0.00  0.00    +0.000 C 
ATOM     19  C   UNL     1       3.957   2.084  20.467  0.00  0.00    +0.000 C 
ATOM     20  C   UNL     1       1.841   2.635  21.683  0.00  0.00    +0.000 C 
ENDBRANCH  14  17
ENDBRANCH   9  12
TORSDOF 2
ENDMDL
MODEL 9
REMARK VINA RESULT:      -6.4      1.526      1.537
REMARK  Name = 
REMARK  7 active torsions:
REMARK  status: ('A' for Active; 'I' for Inactive)
REMARK    1  A    between atoms: C_1  and  C_2
REMARK    2  A    between atoms: C_7  and  C_8
REMARK    3  A    between atoms: C_9  and  C_10
REMARK    4  A    between atoms: C_12  and  C_13
REMARK    5  A    between atoms: C_13  and  C_14
REMARK    6  A    between atoms: C_13  and  C_15
REMARK    7  A    between atoms: C_13  and  C_16
REMARK                            x       y       z     vdW  Elec       q    Type
REMARK                         _______ _______ _______ _____ _____    ______ ____
ROOT
ATOM      1  C   UNL     1       7.568   4.384  11.514  0.00  0.00    +0.000 C 
ATOM      2  C   UNL     1       6.756   4.161  12.759  0.00  0.00    +0.000 C 
ATOM      3  O   UNL     1       6.102   3.122  12.870  0.00  0.00    +0.000 OA
ATOM      4  N   UNL     1       6.812   5.198  13.660  0.00  0.00    +0.000 N 
ATOM      5  C   UNL     1       6.169   5.201  14.876  0.00  0.00    +0.000 A 
ATOM      6  N   UNL     1       5.918   6.304  15.539  0.00  0.00    +0.000 NA
ATOM      7  C   UNL     1       5.183   6.001  16.684  0.00  0.00    +0.000 A 
ATOM      8  C   UNL     1       4.685   7.114  17.540  0.00  0.00    +0.000 C 
ATOM      9  C   UNL     1       4.989   4.648  16.913  0.00  0.00    +0.000 A 
ATOM     10  S   UNL     1       5.697   3.754  15.645  0.00  0.00    +0.000 S 
ATOM     11  H   UNL     1       7.118   6.112  13.351  0.00  0.00    +0.000 HD
ENDROOT
BRANCH   9  12
ATOM     12  C   UNL     1       4.326   4.013  18.011  0.00  0.00    +0.000 A 
ATOM     13  N   UNL     1       3.257   4.505  18.605  0.00  0.00    +0.000 NA
ATOM     14  C   UNL     1       2.996   3.589  19.593  0.00  0.00    +0.000 A 
ATOM     15  N   UNL     1       3.861   2.568  19.640  0.00  0.00    +0.000 NA
ATOM     16  O   UNL     1       4.736   2.837  18.588  0.00  0.00    +0.000 OA
BRANCH  14  17
ATOM     17  C   UNL     1       1.815   3.707  20.525  0.00  0.00    +0.000 C 
ATOM     18  C   UNL     1       1.382   5.179  20.679  0.00  0.00    +0.000 C 
ATOM     19  C   UNL     1       0.619   2.906  19.972  0.00  0.00    +0.000 C 
ATOM     20  C   UNL     1       2.165   3.162  21.922  0.00  0.00    +0.000 C 
ENDBRANCH  14  17
ENDBRANCH   9  12
TORSDOF 2
ENDMDL
