MODEL 1
REMARK VINA RESULT:      -7.1      0.000      0.000
REMARK  Name = 
REMARK  6 active torsions:
REMARK  status: ('A' for Active; 'I' for Inactive)
REMARK    1  A    between atoms: C_1  and  N_2
REMARK    2  A    between atoms: N_2  and  C_3
REMARK    3  A    between atoms: N_2  and  C_4
REMARK    4  A    between atoms: C_4  and  C_5
REMARK    5  A    between atoms: N_11  and  C_12
REMARK    6  A    between atoms: C_12  and  C_13
REMARK                            x       y       z     vdW  Elec       q    Type
REMARK                         _______ _______ _______ _____ _____    ______ ____
ROOT
ATOM      1  C   UNL     1       3.630   5.017  18.365  0.00  0.00    +0.000 A 
ATOM      2  N   UNL     1       3.946   4.696  19.638  0.00  0.00    +0.000 NA
ATOM      3  O   UNL     1       5.287   5.011  19.799  0.00  0.00    +0.000 OA
ATOM      4  C   UNL     1       5.746   5.507  18.637  0.00  0.00    +0.000 A 
ATOM      5  C   UNL     1       4.767   5.516  17.679  0.00  0.00    +0.000 A 
ATOM      6  C   UNL     1       5.011   6.022  16.302  0.00  0.00    +0.000 C 
ATOM      7  N   UNL     1       6.479   6.092  16.002  0.00  0.00    +0.000 NA
ATOM      8  C   UNL     1       7.229   6.708  17.133  0.00  0.00    +0.000 C 
ATOM      9  C   UNL     1       7.144   5.940  18.481  0.00  0.00    +0.000 C 
ENDROOT
BRANCH   1  10
ATOM     10  C   UNL     1       2.202   4.847  17.930  0.00  0.00    +0.000 C 
BRANCH  10  12
ATOM     11  C   UNL     1       3.008   2.595  17.452  0.00  0.00    +0.000 C 
ATOM     12  N   UNL     1       1.829   3.458  17.593  0.00  0.00    +0.000 NA
ATOM     13  C   UNL     1       0.976   2.912  18.659  0.00  0.00    +0.000 C 
ENDBRANCH  10  12
ENDBRANCH   1  10
BRANCH   7  14
ATOM     14  C   UNL     1       7.053   4.777  15.662  0.00  0.00    +0.000 C 
BRANCH  14  15
ATOM     15  C   UNL     1       6.970   4.478  14.204  0.00  0.00    +0.000 A 
ATOM     16  C   UNL     1       7.613   5.064  13.129  0.00  0.00    +0.000 A 
ATOM     17  C   UNL     1       7.189   4.395  11.960  0.00  0.00    +0.000 A 
ATOM     18  C   UNL     1       6.285   3.430  12.344  0.00  0.00    +0.000 A 
ATOM     19  N   UNL     1       6.160   3.485  13.707  0.00  0.00    +0.000 N 
ATOM     20  H   UNL     1       5.583   2.878  14.276  0.00  0.00    +0.000 HD
ENDBRANCH  14  15
ENDBRANCH   7  14
TORSDOF 4
ENDMDL
MODEL 2
REMARK VINA RESULT:      -7.0      0.817      1.092
REMARK  Name = 
REMARK  6 active torsions:
REMARK  status: ('A' for Active; 'I' for Inactive)
REMARK    1  A    between atoms: C_1  and  N_2
REMARK    2  A    between atoms: N_2  and  C_3
REMARK    3  A    between atoms: N_2  and  C_4
REMARK    4  A    between atoms: C_4  and  C_5
REMARK    5  A    between atoms: N_11  and  C_12
REMARK    6  A    between atoms: C_12  and  C_13
REMARK                            x       y       z     vdW  Elec       q    Type
REMARK                         _______ _______ _______ _____ _____    ______ ____
ROOT
ATOM      1  C   UNL     1       4.443   3.578  18.353  0.00  0.00    +0.000 A 
ATOM      2  N   UNL     1       5.017   3.443  19.568  0.00  0.00    +0.000 NA
ATOM      3  O   UNL     1       6.064   4.351  19.609  0.00  0.00    +0.000 OA
ATOM      4  C   UNL     1       6.100   5.006  18.436  0.00  0.00    +0.000 A 
ATOM      5  C   UNL     1       5.127   4.554  17.584  0.00  0.00    +0.000 A 
ATOM      6  C   UNL     1       4.945   5.118  16.219  0.00  0.00    +0.000 C 
ATOM      7  N   UNL     1       6.164   5.870  15.776  0.00  0.00    +0.000 NA
ATOM      8  C   UNL     1       6.665   6.766  16.857  0.00  0.00    +0.000 C 
ATOM      9  C   UNL     1       7.105   6.046  18.162  0.00  0.00    +0.000 C 
ENDROOT
BRANCH   1  10
ATOM     10  C   UNL     1       3.220   2.756  18.056  0.00  0.00    +0.000 C 
BRANCH  10  12
ATOM     11  C   UNL     1       1.501   4.441  17.667  0.00  0.00    +0.000 C 
ATOM     12  N   UNL     1       1.956   3.350  18.537  0.00  0.00    +0.000 NA
ATOM     13  C   UNL     1       0.915   2.313  18.569  0.00  0.00    +0.000 C 
ENDBRANCH  10  12
ENDBRANCH   1  10
BRANCH   7  14
ATOM     14  C   UNL     1       7.243   4.981  15.307  0.00  0.00    +0.000 C 
BRANCH  14  15
ATOM     15  C   UNL     1       7.044   4.538  13.898  0.00  0.00    +0.000 A 
ATOM     16  C   UNL     1       7.552   5.047  12.716  0.00  0.00    +0.000 A 
ATOM     17  C   UNL     1       7.062   4.248  11.660  0.00  0.00    +0.000 A 
ATOM     18  C   UNL     1       6.254   3.282  12.217  0.00  0.00    +0.000 A 
ATOM     19  N   UNL     1       6.250   3.464  13.574  0.00  0.00    +0.000 N 
ATOM     20  H   UNL     1       5.763   2.888  14.249  0.00  0.00    +0.000 HD
ENDBRANCH  14  15
ENDBRANCH   7  14
TORSDOF 4
ENDMDL
MODEL 3
REMARK VINA RESULT:      -7.0      1.129      1.597
REMARK  Name = 
REMARK  6 active torsions:
REMARK  status: ('A' for Active; 'I' for Inactive)
REMARK    1  A    between atoms: C_1  and  N_2
REMARK    2  A    between atoms: N_2  and  C_3
REMARK    3  A    between atoms: N_2  and  C_4
REMARK    4  A    between atoms: C_4  and  C_5
REMARK    5  A    between atoms: N_11  and  C_12
REMARK    6  A    between atoms: C_12  and  C_13
REMARK                            x       y       z     vdW  Elec       q    Type
REMARK                         _______ _______ _______ _____ _____    ______ ____
ROOT
ATOM      1  C   UNL     1       3.891   3.143  18.160  0.00  0.00    +0.000 A 
ATOM      2  N   UNL     1       4.271   2.720  19.384  0.00  0.00    +0.000 NA
ATOM      3  O   UNL     1       5.322   3.536  19.773  0.00  0.00    +0.000 OA
ATOM      4  C   UNL     1       5.553   4.422  18.789  0.00  0.00    +0.000 A 
ATOM      5  C   UNL     1       4.709   4.220  17.729  0.00  0.00    +0.000 A 
ATOM      6  C   UNL     1       4.752   5.070  16.509  0.00  0.00    +0.000 C 
ATOM      7  N   UNL     1       6.044   5.827  16.420  0.00  0.00    +0.000 NA
ATOM      8  C   UNL     1       6.397   6.441  17.731  0.00  0.00    +0.000 C 
ATOM      9  C   UNL     1       6.615   5.436  18.896  0.00  0.00    +0.000 C 
ENDROOT
BRANCH   1  10
ATOM     10  C   UNL     1       2.707   2.476  17.519  0.00  0.00    +0.000 C 
BRANCH  10  12
ATOM     11  C   UNL     1       0.888   2.561  19.141  0.00  0.00    +0.000 C 
ATOM     12  N   UNL     1       1.405   3.080  17.869  0.00  0.00    +0.000 NA
ATOM     13  C   UNL     1       1.562   4.537  17.989  0.00  0.00    +0.000 C 
ENDBRANCH  10  12
ENDBRANCH   1  10
BRANCH   7  14
ATOM     14  C   UNL     1       7.157   4.996  15.926  0.00  0.00    +0.000 C 
BRANCH  14  15
ATOM     15  C   UNL     1       7.064   4.727  14.463  0.00  0.00    +0.000 A 
ATOM     16  C   UNL     1       6.314   3.797  13.767  0.00  0.00    +0.000 A 
ATOM     17  C   UNL     1       6.585   3.970  12.392  0.00  0.00    +0.000 A 
ATOM     18  C   UNL     1       7.505   4.989  12.280  0.00  0.00    +0.000 A 
ATOM     19  N   UNL     1       7.789   5.444  13.541  0.00  0.00    +0.000 N 
ATOM     20  H   UNL     1       8.414   6.206  13.771  0.00  0.00    +0.000 HD
ENDBRANCH  14  15
ENDBRANCH   7  14
TORSDOF 4
ENDMDL
MODEL 4
REMARK VINA RESULT:      -7.0      0.722      1.053
REMARK  Name = 
REMARK  6 active torsions:
REMARK  status: ('A' for Active; 'I' for Inactive)
REMARK    1  A    between atoms: C_1  and  N_2
REMARK    2  A    between atoms: N_2  and  C_3
REMARK    3  A    between atoms: N_2  and  C_4
REMARK    4  A    between atoms: C_4  and  C_5
REMARK    5  A    between atoms: N_11  and  C_12
REMARK    6  A    between atoms: C_12  and  C_13
REMARK                            x       y       z     vdW  Elec       q    Type
REMARK                         _______ _______ _______ _____ _____    ______ ____
ROOT
ATOM      1  C   UNL     1       4.301   4.565  18.753  0.00  0.00    +0.000 A 
ATOM      2  N   UNL     1       4.851   4.380  19.972  0.00  0.00    +0.000 NA
ATOM      3  O   UNL     1       6.103   4.973  19.931  0.00  0.00    +0.000 OA
ATOM      4  C   UNL     1       6.282   5.496  18.706  0.00  0.00    +0.000 A 
ATOM      5  C   UNL     1       5.201   5.255  17.900  0.00  0.00    +0.000 A 
ATOM      6  C   UNL     1       5.140   5.733  16.492  0.00  0.00    +0.000 C 
ATOM      7  N   UNL     1       6.504   6.090  15.981  0.00  0.00    +0.000 NA
ATOM      8  C   UNL     1       7.255   6.903  16.980  0.00  0.00    +0.000 C 
ATOM      9  C   UNL     1       7.522   6.201  18.340  0.00  0.00    +0.000 C 
ENDROOT
BRANCH   1  10
ATOM     10  C   UNL     1       2.896   4.082  18.532  0.00  0.00    +0.000 C 
BRANCH  10  12
ATOM     11  C   UNL     1       1.230   2.345  18.926  0.00  0.00    +0.000 C 
ATOM     12  N   UNL     1       2.656   2.689  18.961  0.00  0.00    +0.000 NA
ATOM     13  C   UNL     1       3.379   1.774  18.065  0.00  0.00    +0.000 C 
ENDBRANCH  10  12
ENDBRANCH   1  10
BRANCH   7  14
ATOM     14  C   UNL     1       7.292   4.908  15.587  0.00  0.00    +0.000 C 
BRANCH  14  15
ATOM     15  C   UNL     1       7.083   4.534  14.159  0.00  0.00    +0.000 A 
ATOM     16  C   UNL     1       7.634   5.058  13.003  0.00  0.00    +0.000 A 
ATOM     17  C   UNL     1       7.108   4.333  11.911  0.00  0.00    +0.000 A 
ATOM     18  C   UNL     1       6.237   3.397  12.422  0.00  0.00    +0.000 A 
ATOM     19  N   UNL     1       6.229   3.524  13.786  0.00  0.00    +0.000 N 
ATOM     20  H   UNL     1       5.700   2.953  14.433  0.00  0.00    +0.000 HD
ENDBRANCH  14  15
ENDBRANCH   7  14
TORSDOF 4
ENDMDL
MODEL 5
REMARK VINA RESULT:      -6.9      0.984      1.342
REMARK  Name = 
REMARK  6 active torsions:
REMARK  status: ('A' for Active; 'I' for Inactive)
REMARK    1  A    between atoms: C_1  and  N_2
REMARK    2  A    between atoms: N_2  and  C_3
REMARK    3  A    between atoms: N_2  and  C_4
REMARK    4  A    between atoms: C_4  and  C_5
REMARK    5  A    between atoms: N_11  and  C_12
REMARK    6  A    between atoms: C_12  and  C_13
REMARK                            x       y       z     vdW  Elec       q    Type
REMARK                         _______ _______ _______ _____ _____    ______ ____
ROOT
ATOM      1  C   UNL     1       4.120   4.557  18.612  0.00  0.00    +0.000 A 
ATOM      2  N   UNL     1       4.592   4.251  19.840  0.00  0.00    +0.000 NA
ATOM      3  O   UNL     1       5.874   4.775  19.909  0.00  0.00    +0.000 OA
ATOM      4  C   UNL     1       6.146   5.378  18.739  0.00  0.00    +0.000 A 
ATOM      5  C   UNL     1       5.099   5.259  17.863  0.00  0.00    +0.000 A 
ATOM      6  C   UNL     1       5.140   5.844  16.495  0.00  0.00    +0.000 C 
ATOM      7  N   UNL     1       6.548   6.162  16.084  0.00  0.00    +0.000 NA
ATOM      8  C   UNL     1       7.283   6.855  17.180  0.00  0.00    +0.000 C 
ATOM      9  C   UNL     1       7.438   6.038  18.492  0.00  0.00    +0.000 C 
ENDROOT
BRANCH   1  10
ATOM     10  C   UNL     1       2.706   4.171  18.284  0.00  0.00    +0.000 C 
BRANCH  10  12
ATOM     11  C   UNL     1       1.096   4.218  20.115  0.00  0.00    +0.000 C 
ATOM     12  N   UNL     1       2.027   3.391  19.339  0.00  0.00    +0.000 NA
ATOM     13  C   UNL     1       1.271   2.293  18.719  0.00  0.00    +0.000 C 
ENDBRANCH  10  12
ENDBRANCH   1  10
BRANCH   7  14
ATOM     14  C   UNL     1       7.293   4.972  15.638  0.00  0.00    +0.000 C 
BRANCH  14  15
ATOM     15  C   UNL     1       7.051   4.650  14.203  0.00  0.00    +0.000 A 
ATOM     16  C   UNL     1       6.180   3.748  13.619  0.00  0.00    +0.000 A 
ATOM     17  C   UNL     1       6.337   3.845  12.220  0.00  0.00    +0.000 A 
ATOM     18  C   UNL     1       7.311   4.789  11.980  0.00  0.00    +0.000 A 
ATOM     19  N   UNL     1       7.737   5.274  13.188  0.00  0.00    +0.000 N 
ATOM     20  H   UNL     1       8.430   5.998  13.327  0.00  0.00    +0.000 HD
ENDBRANCH  14  15
ENDBRANCH   7  14
TORSDOF 4
ENDMDL
MODEL 6
REMARK VINA RESULT:      -6.8      1.893      5.908
REMARK  Name = 
REMARK  6 active torsions:
REMARK  status: ('A' for Active; 'I' for Inactive)
REMARK    1  A    between atoms: C_1  and  N_2
REMARK    2  A    between atoms: N_2  and  C_3
REMARK    3  A    between atoms: N_2  and  C_4
REMARK    4  A    between atoms: C_4  and  C_5
REMARK    5  A    between atoms: N_11  and  C_12
REMARK    6  A    between atoms: C_12  and  C_13
REMARK                            x       y       z     vdW  Elec       q    Type
REMARK                         _______ _______ _______ _____ _____    ______ ____
ROOT
ATOM      1  C   UNL     1       6.624   4.547  15.231  0.00  0.00    +0.000 A 
ATOM      2  N   UNL     1       7.394   5.553  14.765  0.00  0.00    +0.000 NA
ATOM      3  O   UNL     1       7.728   6.332  15.862  0.00  0.00    +0.000 OA
ATOM      4  C   UNL     1       7.159   5.788  16.953  0.00  0.00    +0.000 A 
ATOM      5  C   UNL     1       6.426   4.677  16.630  0.00  0.00    +0.000 A 
ATOM      6  C   UNL     1       5.698   3.882  17.656  0.00  0.00    +0.000 C 
ATOM      7  N   UNL     1       5.521   4.666  18.923  0.00  0.00    +0.000 NA
ATOM      8  C   UNL     1       6.788   5.347  19.314  0.00  0.00    +0.000 C 
ATOM      9  C   UNL     1       7.326   6.384  18.289  0.00  0.00    +0.000 C 
ENDROOT
BRANCH   1  10
ATOM     10  C   UNL     1       6.173   3.495  14.257  0.00  0.00    +0.000 C 
BRANCH  10  12
ATOM     11  C   UNL     1       7.146   3.472  12.021  0.00  0.00    +0.000 C 
ATOM     12  N   UNL     1       6.051   3.967  12.863  0.00  0.00    +0.000 NA
ATOM     13  C   UNL     1       4.778   3.494  12.301  0.00  0.00    +0.000 C 
ENDBRANCH  10  12
ENDBRANCH   1  10
BRANCH   7  14
ATOM     14  C   UNL     1       4.419   5.641  18.841  0.00  0.00    +0.000 C 
BRANCH  14  15
ATOM     15  C   UNL     1       3.129   5.087  19.342  0.00  0.00    +0.000 A 
ATOM     16  C   UNL     1       2.155   4.351  18.693  0.00  0.00    +0.000 A 
ATOM     17  C   UNL     1       1.137   4.068  19.630  0.00  0.00    +0.000 A 
ATOM     18  C   UNL     1       1.503   4.651  20.822  0.00  0.00    +0.000 A 
ATOM     19  N   UNL     1       2.713   5.266  20.640  0.00  0.00    +0.000 N 
ATOM     20  H   UNL     1       3.243   5.757  21.349  0.00  0.00    +0.000 HD
ENDBRANCH  14  15
ENDBRANCH   7  14
TORSDOF 4
ENDMDL
MODEL 7
REMARK VINA RESULT:      -6.6      1.519      1.875
REMARK  Name = 
REMARK  6 active torsions:
REMARK  status: ('A' for Active; 'I' for Inactive)
REMARK    1  A    between atoms: C_1  and  N_2
REMARK    2  A    between atoms: N_2  and  C_3
REMARK    3  A    between atoms: N_2  and  C_4
REMARK    4  A    between atoms: C_4  and  C_5
REMARK    5  A    between atoms: N_11  and  C_12
REMARK    6  A    between atoms: C_12  and  C_13
REMARK                            x       y       z     vdW  Elec       q    Type
REMARK                         _______ _______ _______ _____ _____    ______ ____
ROOT
ATOM      1  C   UNL     1       4.576   3.633  19.406  0.00  0.00    +0.000 A 
ATOM      2  N   UNL     1       5.470   4.088  20.310  0.00  0.00    +0.000 NA
ATOM      3  O   UNL     1       6.260   5.015  19.647  0.00  0.00    +0.000 OA
ATOM      4  C   UNL     1       5.834   5.098  18.375  0.00  0.00    +0.000 A 
ATOM      5  C   UNL     1       4.795   4.238  18.141  0.00  0.00    +0.000 A 
ATOM      6  C   UNL     1       4.134   4.136  16.812  0.00  0.00    +0.000 C 
ATOM      7  N   UNL     1       4.992   4.729  15.733  0.00  0.00    +0.000 NA
ATOM      8  C   UNL     1       5.551   6.045  16.155  0.00  0.00    +0.000 C 
ATOM      9  C   UNL     1       6.473   6.003  17.405  0.00  0.00    +0.000 C 
ENDROOT
BRANCH   1  10
ATOM     10  C   UNL     1       3.533   2.658  19.874  0.00  0.00    +0.000 C 
BRANCH  10  12
ATOM     11  C   UNL     1       1.414   2.275  18.731  0.00  0.00    +0.000 C 
ATOM     12  N   UNL     1       2.142   3.117  19.686  0.00  0.00    +0.000 NA
ATOM     13  C   UNL     1       1.439   3.075  20.977  0.00  0.00    +0.000 C 
ENDBRANCH  10  12
ENDBRANCH   1  10
BRANCH   7  14
ATOM     14  C   UNL     1       6.075   3.825  15.307  0.00  0.00    +0.000 C 
BRANCH  14  15
ATOM     15  C   UNL     1       6.663   4.219  13.994  0.00  0.00    +0.000 A 
ATOM     16  C   UNL     1       6.424   3.734  12.721  0.00  0.00    +0.000 A 
ATOM     17  C   UNL     1       7.237   4.462  11.826  0.00  0.00    +0.000 A 
ATOM     18  C   UNL     1       7.967   5.360  12.572  0.00  0.00    +0.000 A 
ATOM     19  N   UNL     1       7.611   5.208  13.886  0.00  0.00    +0.000 N 
ATOM     20  H   UNL     1       7.965   5.750  14.664  0.00  0.00    +0.000 HD
ENDBRANCH  14  15
ENDBRANCH   7  14
TORSDOF 4
ENDMDL
MODEL 8
REMARK VINA RESULT:      -6.6      1.239      1.445
REMARK  Name = 
REMARK  6 active torsions:
REMARK  status: ('A' for Active; 'I' for Inactive)
REMARK    1  A    between atoms: C_1  and  N_2
REMARK    2  A    between atoms: N_2  and  C_3
REMARK    3  A    between atoms: N_2  and  C_4
REMARK    4  A    between atoms: C_4  and  C_5
REMARK    5  A    between atoms: N_11  and  C_12
REMARK    6  A    between atoms: C_12  and  C_13
REMARK                            x       y       z     vdW  Elec       q    Type
REMARK                         _______ _______ _______ _____ _____    ______ ____
ROOT
ATOM      1  C   UNL     1       4.936   4.462  19.110  0.00  0.00    +0.000 A 
ATOM      2  N   UNL     1       5.670   4.414  20.242  0.00  0.00    +0.000 NA
ATOM      3  O   UNL     1       6.796   5.189  20.012  0.00  0.00    +0.000 OA
ATOM      4  C   UNL     1       6.720   5.683  18.764  0.00  0.00    +0.000 A 
ATOM      5  C   UNL     1       5.589   5.247  18.125  0.00  0.00    +0.000 A 
ATOM      6  C   UNL     1       5.261   5.651  16.731  0.00  0.00    +0.000 C 
ATOM      7  N   UNL     1       6.469   6.192  16.025  0.00  0.00    +0.000 NA
ATOM      8  C   UNL     1       7.213   7.150  16.891  0.00  0.00    +0.000 C 
ATOM      9  C   UNL     1       7.771   6.553  18.212  0.00  0.00    +0.000 C 
ENDROOT
BRANCH   1  10
ATOM     10  C   UNL     1       3.607   3.761  19.101  0.00  0.00    +0.000 C 
BRANCH  10  12
ATOM     11  C   UNL     1       3.624   1.390  18.531  0.00  0.00    +0.000 C 
ATOM     12  N   UNL     1       3.455   2.758  18.028  0.00  0.00    +0.000 NA
ATOM     13  C   UNL     1       2.112   2.877  17.440  0.00  0.00    +0.000 C 
ENDBRANCH  10  12
ENDBRANCH   1  10
BRANCH   7  14
ATOM     14  C   UNL     1       7.370   5.129  15.545  0.00  0.00    +0.000 C 
BRANCH  14  15
ATOM     15  C   UNL     1       7.062   4.707  14.148  0.00  0.00    +0.000 A 
ATOM     16  C   UNL     1       6.160   3.774  13.671  0.00  0.00    +0.000 A 
ATOM     17  C   UNL     1       6.256   3.767  12.262  0.00  0.00    +0.000 A 
ATOM     18  C   UNL     1       7.224   4.681  11.912  0.00  0.00    +0.000 A 
ATOM     19  N   UNL     1       7.707   5.248  13.062  0.00  0.00    +0.000 N 
ATOM     20  H   UNL     1       8.412   5.973  13.117  0.00  0.00    +0.000 HD
ENDBRANCH  14  15
ENDBRANCH   7  14
TORSDOF 4
ENDMDL
MODEL 9
REMARK VINA RESULT:      -6.5      1.891      6.372
REMARK  Name = 
REMARK  6 active torsions:
REMARK  status: ('A' for Active; 'I' for Inactive)
REMARK    1  A    between atoms: C_1  and  N_2
REMARK    2  A    between atoms: N_2  and  C_3
REMARK    3  A    between atoms: N_2  and  C_4
REMARK    4  A    between atoms: C_4  and  C_5
REMARK    5  A    between atoms: N_11  and  C_12
REMARK    6  A    between atoms: C_12  and  C_13
REMARK                            x       y       z     vdW  Elec       q    Type
REMARK                         _______ _______ _______ _____ _____    ______ ____
ROOT
ATOM      1  C   UNL     1       6.082   5.496  15.672  0.00  0.00    +0.000 A 
ATOM      2  N   UNL     1       5.406   6.541  15.149  0.00  0.00    +0.000 NA
ATOM      3  O   UNL     1       4.501   6.946  16.118  0.00  0.00    +0.000 OA
ATOM      4  C   UNL     1       4.647   6.149  17.191  0.00  0.00    +0.000 A 
ATOM      5  C   UNL     1       5.606   5.195  16.974  0.00  0.00    +0.000 A 
ATOM      6  C   UNL     1       5.968   4.187  18.007  0.00  0.00    +0.000 C 
ATOM      7  N   UNL     1       4.905   4.085  19.061  0.00  0.00    +0.000 NA
ATOM      8  C   UNL     1       4.460   5.436  19.507  0.00  0.00    +0.000 C 
ATOM      9  C   UNL     1       3.825   6.323  18.400  0.00  0.00    +0.000 C 
ENDROOT
BRANCH   1  10
ATOM     10  C   UNL     1       7.192   4.895  14.856  0.00  0.00    +0.000 C 
BRANCH  10  12
ATOM     11  C   UNL     1       8.321   5.566  12.802  0.00  0.00    +0.000 C 
ATOM     12  N   UNL     1       7.062   5.108  13.401  0.00  0.00    +0.000 NA
ATOM     13  C   UNL     1       6.672   3.844  12.759  0.00  0.00    +0.000 C 
ENDBRANCH  10  12
ENDBRANCH   1  10
BRANCH   7  14
ATOM     14  C   UNL     1       3.748   3.282  18.627  0.00  0.00    +0.000 C 
BRANCH  14  15
ATOM     15  C   UNL     1       2.746   3.091  19.715  0.00  0.00    +0.000 A 
ATOM     16  C   UNL     1       1.385   3.337  19.735  0.00  0.00    +0.000 A 
ATOM     17  C   UNL     1       0.903   2.972  21.011  0.00  0.00    +0.000 A 
ATOM     18  C   UNL     1       1.980   2.529  21.745  0.00  0.00    +0.000 A 
ATOM     19  N   UNL     1       3.094   2.603  20.951  0.00  0.00    +0.000 N 
ATOM     20  H   UNL     1       4.030   2.320  21.213  0.00  0.00    +0.000 HD
ENDBRANCH  14  15
ENDBRANCH   7  14
TORSDOF 4
ENDMDL
