MODEL 1
REMARK VINA RESULT:      -7.2      0.000      0.000
REMARK  Name = 
REMARK  4 active torsions:
REMARK  status: ('A' for Active; 'I' for Inactive)
REMARK    1  A    between atoms: N_6  and  C_7
REMARK    2  A    between atoms: C_7  and  C_8
REMARK    3  A    between atoms: N_18  and  C_19
REMARK    4  A    between atoms: C_19  and  C_20
REMARK                            x       y       z     vdW  Elec       q    Type
REMARK                         _______ _______ _______ _____ _____    ______ ____
ROOT
ATOM      1  F   UNL     1       2.387   2.844  21.845  0.00  0.00    +0.000 F 
ATOM      2  C   UNL     1       2.647   2.733  20.517  0.00  0.00    +0.000 C 
ATOM      3  F   UNL     1       1.767   1.801  20.047  0.00  0.00    +0.000 F 
ATOM      4  C   UNL     1       4.052   2.204  20.318  0.00  0.00    +0.000 C 
ATOM      5  C   UNL     1       4.363   2.080  18.831  0.00  0.00    +0.000 C 
ATOM      6  N   UNL     1       4.120   3.340  18.113  0.00  0.00    +0.000 NA
ATOM      7  C   UNL     1       2.739   3.821  18.323  0.00  0.00    +0.000 C 
ATOM      8  C   UNL     1       2.403   4.061  19.807  0.00  0.00    +0.000 C 
ATOM      9  C   UNL     1       0.949   4.549  19.968  0.00  0.00    +0.000 C 
ATOM     10  C   UNL     1       1.041   5.883  20.704  0.00  0.00    +0.000 C 
ATOM     11  N   UNL     1       2.392   6.404  20.456  0.00  0.00    +0.000 NA
ATOM     12  C   UNL     1       3.233   5.193  20.436  0.00  0.00    +0.000 C 
ENDROOT
BRANCH   6  13
ATOM     13  C   UNL     1       4.345   3.205  16.658  0.00  0.00    +0.000 C 
BRANCH  13  14
ATOM     14  C   UNL     1       5.468   4.049  16.106  0.00  0.00    +0.000 A 
ATOM     15  C   UNL     1       5.832   3.955  14.758  0.00  0.00    +0.000 A 
ATOM     16  C   UNL     1       6.850   4.767  14.285  0.00  0.00    +0.000 A 
ATOM     17  N   UNL     1       7.519   5.653  15.050  0.00  0.00    +0.000 NA
ATOM     18  C   UNL     1       7.154   5.728  16.350  0.00  0.00    +0.000 A 
ATOM     19  C   UNL     1       6.149   4.960  16.917  0.00  0.00    +0.000 A 
ENDBRANCH  13  14
ENDBRANCH   6  13
BRANCH  11  20
ATOM     20  C   UNL     1       2.436   7.194  19.208  0.00  0.00    +0.000 C 
BRANCH  20  21
ATOM     21  C   UNL     1       1.655   8.497  19.231  0.00  0.00    +0.000 A 
ATOM     22  C   UNL     1       1.291   9.122  18.039  0.00  0.00    +0.000 A 
ATOM     23  C   UNL     1       0.641  10.352  18.093  0.00  0.00    +0.000 A 
ATOM     24  C   UNL     1       0.359  10.918  19.330  0.00  0.00    +0.000 A 
ATOM     25  C   UNL     1       0.734  10.225  20.468  0.00  0.00    +0.000 A 
ATOM     26  N   UNL     1       1.375   9.035  20.448  0.00  0.00    +0.000 NA
ENDBRANCH  20  21
ENDBRANCH  11  20
TORSDOF 4
ENDMDL
MODEL 2
REMARK VINA RESULT:      -7.2      1.164      6.369
REMARK  Name = 
REMARK  4 active torsions:
REMARK  status: ('A' for Active; 'I' for Inactive)
REMARK    1  A    between atoms: N_6  and  C_7
REMARK    2  A    between atoms: C_7  and  C_8
REMARK    3  A    between atoms: N_18  and  C_19
REMARK    4  A    between atoms: C_19  and  C_20
REMARK                            x       y       z     vdW  Elec       q    Type
REMARK                         _______ _______ _______ _____ _____    ______ ____
ROOT
ATOM      1  F   UNL     1       1.748   1.480  19.298  0.00  0.00    +0.000 F 
ATOM      2  C   UNL     1       1.994   2.690  19.864  0.00  0.00    +0.000 C 
ATOM      3  F   UNL     1       2.487   2.420  21.108  0.00  0.00    +0.000 F 
ATOM      4  C   UNL     1       0.693   3.449  20.021  0.00  0.00    +0.000 C 
ATOM      5  C   UNL     1       0.953   4.814  20.650  0.00  0.00    +0.000 C 
ATOM      6  N   UNL     1       1.971   5.573  19.909  0.00  0.00    +0.000 NA
ATOM      7  C   UNL     1       3.227   4.805  19.782  0.00  0.00    +0.000 C 
ATOM      8  C   UNL     1       3.040   3.457  19.061  0.00  0.00    +0.000 C 
ATOM      9  C   UNL     1       4.377   2.695  18.968  0.00  0.00    +0.000 C 
ATOM     10  C   UNL     1       4.600   2.435  17.480  0.00  0.00    +0.000 C 
ATOM     11  N   UNL     1       3.817   3.447  16.758  0.00  0.00    +0.000 NA
ATOM     12  C   UNL     1       2.613   3.616  17.592  0.00  0.00    +0.000 C 
ENDROOT
BRANCH   6  13
ATOM     13  C   UNL     1       2.284   6.865  20.558  0.00  0.00    +0.000 C 
BRANCH  13  14
ATOM     14  C   UNL     1       1.791   8.085  19.816  0.00  0.00    +0.000 A 
ATOM     15  C   UNL     1       2.112   8.274  18.467  0.00  0.00    +0.000 A 
ATOM     16  C   UNL     1       1.618   9.392  17.816  0.00  0.00    +0.000 A 
ATOM     17  N   UNL     1       0.837  10.319  18.406  0.00  0.00    +0.000 NA
ATOM     18  C   UNL     1       0.539  10.119  19.710  0.00  0.00    +0.000 A 
ATOM     19  C   UNL     1       0.984   9.033  20.448  0.00  0.00    +0.000 A 
ENDBRANCH  13  14
ENDBRANCH   6  13
BRANCH  11  20
ATOM     20  C   UNL     1       4.600   4.685  16.564  0.00  0.00    +0.000 C 
BRANCH  20  21
ATOM     21  C   UNL     1       5.528   4.691  15.361  0.00  0.00    +0.000 A 
ATOM     22  C   UNL     1       5.246   3.900  14.248  0.00  0.00    +0.000 A 
ATOM     23  C   UNL     1       6.154   3.871  13.193  0.00  0.00    +0.000 A 
ATOM     24  C   UNL     1       7.309   4.638  13.269  0.00  0.00    +0.000 A 
ATOM     25  C   UNL     1       7.507   5.413  14.399  0.00  0.00    +0.000 A 
ATOM     26  N   UNL     1       6.650   5.455  15.443  0.00  0.00    +0.000 NA
ENDBRANCH  20  21
ENDBRANCH  11  20
TORSDOF 4
ENDMDL
MODEL 3
REMARK VINA RESULT:      -7.1      0.541      1.321
REMARK  Name = 
REMARK  4 active torsions:
REMARK  status: ('A' for Active; 'I' for Inactive)
REMARK    1  A    between atoms: N_6  and  C_7
REMARK    2  A    between atoms: C_7  and  C_8
REMARK    3  A    between atoms: N_18  and  C_19
REMARK    4  A    between atoms: C_19  and  C_20
REMARK                            x       y       z     vdW  Elec       q    Type
REMARK                         _______ _______ _______ _____ _____    ______ ____
ROOT
ATOM      1  F   UNL     1       2.332   2.858  21.894  0.00  0.00    +0.000 F 
ATOM      2  C   UNL     1       2.585   2.753  20.563  0.00  0.00    +0.000 C 
ATOM      3  F   UNL     1       1.712   1.814  20.096  0.00  0.00    +0.000 F 
ATOM      4  C   UNL     1       3.995   2.241  20.355  0.00  0.00    +0.000 C 
ATOM      5  C   UNL     1       4.298   2.125  18.865  0.00  0.00    +0.000 C 
ATOM      6  N   UNL     1       4.038   3.385  18.154  0.00  0.00    +0.000 NA
ATOM      7  C   UNL     1       2.653   3.849  18.373  0.00  0.00    +0.000 C 
ATOM      8  C   UNL     1       2.323   4.081  19.859  0.00  0.00    +0.000 C 
ATOM      9  C   UNL     1       0.865   4.553  20.031  0.00  0.00    +0.000 C 
ATOM     10  C   UNL     1       0.946   5.886  20.770  0.00  0.00    +0.000 C 
ATOM     11  N   UNL     1       2.290   6.421  20.516  0.00  0.00    +0.000 NA
ATOM     12  C   UNL     1       3.145   5.220  20.487  0.00  0.00    +0.000 C 
ENDROOT
BRANCH   6  13
ATOM     13  C   UNL     1       4.255   3.256  16.696  0.00  0.00    +0.000 C 
BRANCH  13  14
ATOM     14  C   UNL     1       5.376   4.104  16.144  0.00  0.00    +0.000 A 
ATOM     15  C   UNL     1       6.061   5.002  16.970  0.00  0.00    +0.000 A 
ATOM     16  C   UNL     1       7.102   5.741  16.431  0.00  0.00    +0.000 A 
ATOM     17  N   UNL     1       7.502   5.648  15.146  0.00  0.00    +0.000 NA
ATOM     18  C   UNL     1       6.827   4.775  14.364  0.00  0.00    +0.000 A 
ATOM     19  C   UNL     1       5.773   3.991  14.810  0.00  0.00    +0.000 A 
ENDBRANCH  13  14
ENDBRANCH   6  13
BRANCH  11  20
ATOM     20  C   UNL     1       2.319   7.216  19.271  0.00  0.00    +0.000 C 
BRANCH  20  21
ATOM     21  C   UNL     1       1.586   8.546  19.327  0.00  0.00    +0.000 A 
ATOM     22  C   UNL     1       1.185   9.080  20.551  0.00  0.00    +0.000 A 
ATOM     23  C   UNL     1       0.450  10.263  20.563  0.00  0.00    +0.000 A 
ATOM     24  C   UNL     1       0.148  10.887  19.360  0.00  0.00    +0.000 A 
ATOM     25  C   UNL     1       0.599  10.305  18.188  0.00  0.00    +0.000 A 
ATOM     26  N   UNL     1       1.305   9.154  18.143  0.00  0.00    +0.000 NA
ENDBRANCH  20  21
ENDBRANCH  11  20
TORSDOF 4
ENDMDL
MODEL 4
REMARK VINA RESULT:      -7.1      1.135      6.726
REMARK  Name = 
REMARK  4 active torsions:
REMARK  status: ('A' for Active; 'I' for Inactive)
REMARK    1  A    between atoms: N_6  and  C_7
REMARK    2  A    between atoms: C_7  and  C_8
REMARK    3  A    between atoms: N_18  and  C_19
REMARK    4  A    between atoms: C_19  and  C_20
REMARK                            x       y       z     vdW  Elec       q    Type
REMARK                         _______ _______ _______ _____ _____    ______ ____
ROOT
ATOM      1  F   UNL     1       1.801   1.874  19.556  0.00  0.00    +0.000 F 
ATOM      2  C   UNL     1       2.072   3.123  20.016  0.00  0.00    +0.000 C 
ATOM      3  F   UNL     1       2.580   2.950  21.271  0.00  0.00    +0.000 F 
ATOM      4  C   UNL     1       0.784   3.912  20.127  0.00  0.00    +0.000 C 
ATOM      5  C   UNL     1       1.071   5.320  20.635  0.00  0.00    +0.000 C 
ATOM      6  N   UNL     1       2.088   6.000  19.819  0.00  0.00    +0.000 NA
ATOM      7  C   UNL     1       3.332   5.206  19.740  0.00  0.00    +0.000 C 
ATOM      8  C   UNL     1       3.116   3.805  19.137  0.00  0.00    +0.000 C 
ATOM      9  C   UNL     1       4.440   3.019  19.089  0.00  0.00    +0.000 C 
ATOM     10  C   UNL     1       4.638   2.632  17.626  0.00  0.00    +0.000 C 
ATOM     11  N   UNL     1       3.858   3.591  16.832  0.00  0.00    +0.000 NA
ATOM     12  C   UNL     1       2.669   3.847  17.666  0.00  0.00    +0.000 C 
ENDROOT
BRANCH   6  13
ATOM     13  C   UNL     1       2.428   7.337  20.353  0.00  0.00    +0.000 C 
BRANCH  13  14
ATOM     14  C   UNL     1       1.451   8.431  19.996  0.00  0.00    +0.000 A 
ATOM     15  C   UNL     1       0.571   8.939  20.958  0.00  0.00    +0.000 A 
ATOM     16  C   UNL     1      -0.291   9.962  20.599  0.00  0.00    +0.000 A 
ATOM     17  N   UNL     1      -0.336  10.506  19.365  0.00  0.00    +0.000 NA
ATOM     18  C   UNL     1       0.521  10.000  18.449  0.00  0.00    +0.000 A 
ATOM     19  C   UNL     1       1.421   8.979  18.712  0.00  0.00    +0.000 A 
ENDBRANCH  13  14
ENDBRANCH   6  13
BRANCH  11  20
ATOM     20  C   UNL     1       4.654   4.797  16.524  0.00  0.00    +0.000 C 
BRANCH  20  21
ATOM     21  C   UNL     1       5.522   4.708  15.280  0.00  0.00    +0.000 A 
ATOM     22  C   UNL     1       5.186   3.835  14.247  0.00  0.00    +0.000 A 
ATOM     23  C   UNL     1       6.041   3.723  13.153  0.00  0.00    +0.000 A 
ATOM     24  C   UNL     1       7.197   4.491  13.113  0.00  0.00    +0.000 A 
ATOM     25  C   UNL     1       7.450   5.350  14.169  0.00  0.00    +0.000 A 
ATOM     26  N   UNL     1       6.645   5.474  15.248  0.00  0.00    +0.000 NA
ENDBRANCH  20  21
ENDBRANCH  11  20
TORSDOF 4
ENDMDL
MODEL 5
REMARK VINA RESULT:      -6.9      9.081     11.486
REMARK  Name = 
REMARK  4 active torsions:
REMARK  status: ('A' for Active; 'I' for Inactive)
REMARK    1  A    between atoms: N_6  and  C_7
REMARK    2  A    between atoms: C_7  and  C_8
REMARK    3  A    between atoms: N_18  and  C_19
REMARK    4  A    between atoms: C_19  and  C_20
REMARK                            x       y       z     vdW  Elec       q    Type
REMARK                         _______ _______ _______ _____ _____    ______ ____
ROOT
ATOM      1  F   UNL     1      10.802  11.326  17.280  0.00  0.00    +0.000 F 
ATOM      2  C   UNL     1      10.721  11.580  18.611  0.00  0.00    +0.000 C 
ATOM      3  F   UNL     1      11.832  11.008  19.162  0.00  0.00    +0.000 F 
ATOM      4  C   UNL     1       9.498  10.894  19.184  0.00  0.00    +0.000 C 
ATOM      5  C   UNL     1       9.389  11.176  20.679  0.00  0.00    +0.000 C 
ATOM      6  N   UNL     1       9.424  12.616  20.969  0.00  0.00    +0.000 NA
ATOM      7  C   UNL     1      10.633  13.249  20.403  0.00  0.00    +0.000 C 
ATOM      8  C   UNL     1      10.742  13.082  18.875  0.00  0.00    +0.000 C 
ATOM      9  C   UNL     1      12.025  13.749  18.341  0.00  0.00    +0.000 C 
ATOM     10  C   UNL     1      11.560  14.757  17.293  0.00  0.00    +0.000 C 
ATOM     11  N   UNL     1      10.163  15.078  17.615  0.00  0.00    +0.000 NA
ATOM     12  C   UNL     1       9.618  13.801  18.110  0.00  0.00    +0.000 C 
ENDROOT
BRANCH   6  13
ATOM     13  C   UNL     1       9.397  12.893  22.422  0.00  0.00    +0.000 C 
BRANCH  13  14
ATOM     14  C   UNL     1       8.074  12.619  23.096  0.00  0.00    +0.000 A 
ATOM     15  C   UNL     1       6.913  13.279  22.677  0.00  0.00    +0.000 A 
ATOM     16  C   UNL     1       5.714  12.980  23.303  0.00  0.00    +0.000 A 
ATOM     17  N   UNL     1       5.593  12.082  24.302  0.00  0.00    +0.000 NA
ATOM     18  C   UNL     1       6.726  11.455  24.693  0.00  0.00    +0.000 A 
ATOM     19  C   UNL     1       7.972  11.685  24.129  0.00  0.00    +0.000 A 
ENDBRANCH  13  14
ENDBRANCH   6  13
BRANCH  11  20
ATOM     20  C   UNL     1      10.082  16.189  18.584  0.00  0.00    +0.000 C 
BRANCH  20  21
ATOM     21  C   UNL     1       8.712  16.423  19.200  0.00  0.00    +0.000 A 
ATOM     22  C   UNL     1       7.656  16.882  18.414  0.00  0.00    +0.000 A 
ATOM     23  C   UNL     1       6.433  17.157  19.021  0.00  0.00    +0.000 A 
ATOM     24  C   UNL     1       6.293  16.956  20.389  0.00  0.00    +0.000 A 
ATOM     25  C   UNL     1       7.383  16.479  21.095  0.00  0.00    +0.000 A 
ATOM     26  N   UNL     1       8.585  16.212  20.537  0.00  0.00    +0.000 NA
ENDBRANCH  20  21
ENDBRANCH  11  20
TORSDOF 4
ENDMDL
MODEL 6
REMARK VINA RESULT:      -6.9      6.199      9.899
REMARK  Name = 
REMARK  4 active torsions:
REMARK  status: ('A' for Active; 'I' for Inactive)
REMARK    1  A    between atoms: N_6  and  C_7
REMARK    2  A    between atoms: C_7  and  C_8
REMARK    3  A    between atoms: N_18  and  C_19
REMARK    4  A    between atoms: C_19  and  C_20
REMARK                            x       y       z     vdW  Elec       q    Type
REMARK                         _______ _______ _______ _____ _____    ______ ____
ROOT
ATOM      1  F   UNL     1       1.245   8.075  21.030  0.00  0.00    +0.000 F 
ATOM      2  C   UNL     1       0.788   9.193  21.651  0.00  0.00    +0.000 C 
ATOM      3  F   UNL     1       1.842   9.666  22.378  0.00  0.00    +0.000 F 
ATOM      4  C   UNL     1      -0.325   8.821  22.608  0.00  0.00    +0.000 C 
ATOM      5  C   UNL     1      -0.854  10.068  23.310  0.00  0.00    +0.000 C 
ATOM      6  N   UNL     1      -1.251  11.109  22.350  0.00  0.00    +0.000 NA
ATOM      7  C   UNL     1      -0.140  11.451  21.439  0.00  0.00    +0.000 C 
ATOM      8  C   UNL     1       0.368  10.244  20.628  0.00  0.00    +0.000 C 
ATOM      9  C   UNL     1       1.532  10.655  19.704  0.00  0.00    +0.000 C 
ATOM     10  C   UNL     1       1.094  10.275  18.292  0.00  0.00    +0.000 C 
ATOM     11  N   UNL     1      -0.375  10.220  18.313  0.00  0.00    +0.000 NA
ATOM     12  C   UNL     1      -0.684   9.689  19.653  0.00  0.00    +0.000 C 
ENDROOT
BRANCH   6  13
ATOM     13  C   UNL     1      -1.692  12.349  23.025  0.00  0.00    +0.000 C 
BRANCH  13  14
ATOM     14  C   UNL     1      -3.189  12.506  23.151  0.00  0.00    +0.000 A 
ATOM     15  C   UNL     1      -3.977  12.730  22.016  0.00  0.00    +0.000 A 
ATOM     16  C   UNL     1      -5.349  12.842  22.170  0.00  0.00    +0.000 A 
ATOM     17  N   UNL     1      -5.981  12.746  23.358  0.00  0.00    +0.000 NA
ATOM     18  C   UNL     1      -5.201  12.531  24.442  0.00  0.00    +0.000 A 
ATOM     19  C   UNL     1      -3.821  12.405  24.391  0.00  0.00    +0.000 A 
ENDBRANCH  13  14
ENDBRANCH   6  13
BRANCH  11  20
ATOM     20  C   UNL     1      -0.960  11.548  18.037  0.00  0.00    +0.000 C 
BRANCH  20  21
ATOM     21  C   UNL     1      -2.443  11.554  17.705  0.00  0.00    +0.000 A 
ATOM     22  C   UNL     1      -3.382  11.888  18.680  0.00  0.00    +0.000 A 
ATOM     23  C   UNL     1      -4.736  11.812  18.366  0.00  0.00    +0.000 A 
ATOM     24  C   UNL     1      -5.117  11.420  17.089  0.00  0.00    +0.000 A 
ATOM     25  C   UNL     1      -4.124  11.125  16.172  0.00  0.00    +0.000 A 
ATOM     26  N   UNL     1      -2.802  11.179  16.448  0.00  0.00    +0.000 NA
ENDBRANCH  20  21
ENDBRANCH  11  20
TORSDOF 4
ENDMDL
MODEL 7
REMARK VINA RESULT:      -6.8      1.212      6.599
REMARK  Name = 
REMARK  4 active torsions:
REMARK  status: ('A' for Active; 'I' for Inactive)
REMARK    1  A    between atoms: N_6  and  C_7
REMARK    2  A    between atoms: C_7  and  C_8
REMARK    3  A    between atoms: N_18  and  C_19
REMARK    4  A    between atoms: C_19  and  C_20
REMARK                            x       y       z     vdW  Elec       q    Type
REMARK                         _______ _______ _______ _____ _____    ______ ____
ROOT
ATOM      1  F   UNL     1       1.739   1.711  19.561  0.00  0.00    +0.000 F 
ATOM      2  C   UNL     1       2.011   2.955  20.034  0.00  0.00    +0.000 C 
ATOM      3  F   UNL     1       2.513   2.770  21.289  0.00  0.00    +0.000 F 
ATOM      4  C   UNL     1       0.724   3.746  20.146  0.00  0.00    +0.000 C 
ATOM      5  C   UNL     1       1.013   5.149  20.669  0.00  0.00    +0.000 C 
ATOM      6  N   UNL     1       2.035   5.834  19.864  0.00  0.00    +0.000 NA
ATOM      7  C   UNL     1       3.277   5.038  19.783  0.00  0.00    +0.000 C 
ATOM      8  C   UNL     1       3.060   3.643  19.166  0.00  0.00    +0.000 C 
ATOM      9  C   UNL     1       4.383   2.853  19.117  0.00  0.00    +0.000 C 
ATOM     10  C   UNL     1       4.587   2.480  17.651  0.00  0.00    +0.000 C 
ATOM     11  N   UNL     1       3.812   3.449  16.863  0.00  0.00    +0.000 NA
ATOM     12  C   UNL     1       2.620   3.700  17.693  0.00  0.00    +0.000 C 
ENDROOT
BRANCH   6  13
ATOM     13  C   UNL     1       2.376   7.165  20.412  0.00  0.00    +0.000 C 
BRANCH  13  14
ATOM     14  C   UNL     1       1.632   8.320  19.786  0.00  0.00    +0.000 A 
ATOM     15  C   UNL     1       0.746   9.090  20.547  0.00  0.00    +0.000 A 
ATOM     16  C   UNL     1       0.104  10.158  19.942  0.00  0.00    +0.000 A 
ATOM     17  N   UNL     1       0.282  10.507  18.651  0.00  0.00    +0.000 NA
ATOM     18  C   UNL     1       1.141   9.750  17.933  0.00  0.00    +0.000 A 
ATOM     19  C   UNL     1       1.832   8.662  18.447  0.00  0.00    +0.000 A 
ENDBRANCH  13  14
ENDBRANCH   6  13
BRANCH  11  20
ATOM     20  C   UNL     1       4.612   4.655  16.570  0.00  0.00    +0.000 C 
BRANCH  20  21
ATOM     21  C   UNL     1       5.544   4.549  15.374  0.00  0.00    +0.000 A 
ATOM     22  C   UNL     1       6.775   5.204  15.378  0.00  0.00    +0.000 A 
ATOM     23  C   UNL     1       7.573   5.147  14.239  0.00  0.00    +0.000 A 
ATOM     24  C   UNL     1       7.130   4.431  13.134  0.00  0.00    +0.000 A 
ATOM     25  C   UNL     1       5.906   3.791  13.215  0.00  0.00    +0.000 A 
ATOM     26  N   UNL     1       5.104   3.835  14.303  0.00  0.00    +0.000 NA
ENDBRANCH  20  21
ENDBRANCH  11  20
TORSDOF 4
ENDMDL
MODEL 8
REMARK VINA RESULT:      -6.8      1.367      5.759
REMARK  Name = 
REMARK  4 active torsions:
REMARK  status: ('A' for Active; 'I' for Inactive)
REMARK    1  A    between atoms: N_6  and  C_7
REMARK    2  A    between atoms: C_7  and  C_8
REMARK    3  A    between atoms: N_18  and  C_19
REMARK    4  A    between atoms: C_19  and  C_20
REMARK                            x       y       z     vdW  Elec       q    Type
REMARK                         _______ _______ _______ _____ _____    ______ ____
ROOT
ATOM      1  F   UNL     1       1.238   1.480  19.975  0.00  0.00    +0.000 F 
ATOM      2  C   UNL     1       1.426   2.735  20.461  0.00  0.00    +0.000 C 
ATOM      3  F   UNL     1       1.262   2.634  21.812  0.00  0.00    +0.000 F 
ATOM      4  C   UNL     1       0.353   3.654  19.917  0.00  0.00    +0.000 C 
ATOM      5  C   UNL     1       0.554   5.070  20.447  0.00  0.00    +0.000 C 
ATOM      6  N   UNL     1       1.914   5.564  20.187  0.00  0.00    +0.000 NA
ATOM      7  C   UNL     1       2.933   4.647  20.738  0.00  0.00    +0.000 C 
ATOM      8  C   UNL     1       2.839   3.223  20.158  0.00  0.00    +0.000 C 
ATOM      9  C   UNL     1       3.916   2.308  20.774  0.00  0.00    +0.000 C 
ATOM     10  C   UNL     1       4.721   1.765  19.596  0.00  0.00    +0.000 C 
ATOM     11  N   UNL     1       4.536   2.717  18.492  0.00  0.00    +0.000 NA
ATOM     12  C   UNL     1       3.141   3.167  18.650  0.00  0.00    +0.000 C 
ENDROOT
BRANCH   6  13
ATOM     13  C   UNL     1       2.139   6.905  20.768  0.00  0.00    +0.000 C 
BRANCH  13  14
ATOM     14  C   UNL     1       1.715   8.058  19.889  0.00  0.00    +0.000 A 
ATOM     15  C   UNL     1       0.930   9.094  20.406  0.00  0.00    +0.000 A 
ATOM     16  C   UNL     1       0.585  10.147  19.575  0.00  0.00    +0.000 A 
ATOM     17  N   UNL     1       0.964  10.238  18.284  0.00  0.00    +0.000 NA
ATOM     18  C   UNL     1       1.721   9.226  17.802  0.00  0.00    +0.000 A 
ATOM     19  C   UNL     1       2.118   8.131  18.554  0.00  0.00    +0.000 A 
ENDBRANCH  13  14
ENDBRANCH   6  13
BRANCH  11  20
ATOM     20  C   UNL     1       5.535   3.803  18.554  0.00  0.00    +0.000 C 
BRANCH  20  21
ATOM     21  C   UNL     1       5.478   4.810  17.417  0.00  0.00    +0.000 A 
ATOM     22  C   UNL     1       5.103   6.130  17.662  0.00  0.00    +0.000 A 
ATOM     23  C   UNL     1       4.990   7.009  16.589  0.00  0.00    +0.000 A 
ATOM     24  C   UNL     1       5.266   6.555  15.305  0.00  0.00    +0.000 A 
ATOM     25  C   UNL     1       5.652   5.236  15.147  0.00  0.00    +0.000 A 
ATOM     26  N   UNL     1       5.762   4.355  16.167  0.00  0.00    +0.000 NA
ENDBRANCH  20  21
ENDBRANCH  11  20
TORSDOF 4
ENDMDL
MODEL 9
REMARK VINA RESULT:      -6.7      6.272      9.982
REMARK  Name = 
REMARK  4 active torsions:
REMARK  status: ('A' for Active; 'I' for Inactive)
REMARK    1  A    between atoms: N_6  and  C_7
REMARK    2  A    between atoms: C_7  and  C_8
REMARK    3  A    between atoms: N_18  and  C_19
REMARK    4  A    between atoms: C_19  and  C_20
REMARK                            x       y       z     vdW  Elec       q    Type
REMARK                         _______ _______ _______ _____ _____    ______ ____
ROOT
ATOM      1  F   UNL     1       0.804   7.944  20.911  0.00  0.00    +0.000 F 
ATOM      2  C   UNL     1       0.590   9.143  21.513  0.00  0.00    +0.000 C 
ATOM      3  F   UNL     1       1.791   9.502  22.052  0.00  0.00    +0.000 F 
ATOM      4  C   UNL     1      -0.407   8.972  22.640  0.00  0.00    +0.000 C 
ATOM      5  C   UNL     1      -0.664  10.311  23.323  0.00  0.00    +0.000 C 
ATOM      6  N   UNL     1      -1.062  11.349  22.361  0.00  0.00    +0.000 NA
ATOM      7  C   UNL     1      -0.063  11.493  21.282  0.00  0.00    +0.000 C 
ATOM      8  C   UNL     1       0.161  10.191  20.490  0.00  0.00    +0.000 C 
ATOM      9  C   UNL     1       1.219  10.394  19.387  0.00  0.00    +0.000 C 
ATOM     10  C   UNL     1       0.532  10.009  18.080  0.00  0.00    +0.000 C 
ATOM     11  N   UNL     1      -0.912  10.156  18.310  0.00  0.00    +0.000 NA
ATOM     12  C   UNL     1      -1.086   9.737  19.713  0.00  0.00    +0.000 C 
ENDROOT
BRANCH   6  13
ATOM     13  C   UNL     1      -1.237  12.669  23.006  0.00  0.00    +0.000 C 
BRANCH  13  14
ATOM     14  C   UNL     1      -2.658  13.178  23.036  0.00  0.00    +0.000 A 
ATOM     15  C   UNL     1      -3.659  12.452  23.690  0.00  0.00    +0.000 A 
ATOM     16  C   UNL     1      -4.944  12.967  23.719  0.00  0.00    +0.000 A 
ATOM     17  N   UNL     1      -5.296  14.139  23.151  0.00  0.00    +0.000 NA
ATOM     18  C   UNL     1      -4.314  14.825  22.523  0.00  0.00    +0.000 A 
ATOM     19  C   UNL     1      -2.999  14.394  22.440  0.00  0.00    +0.000 A 
ENDBRANCH  13  14
ENDBRANCH   6  13
BRANCH  11  20
ATOM     20  C   UNL     1      -1.357  11.536  18.029  0.00  0.00    +0.000 C 
BRANCH  20  21
ATOM     21  C   UNL     1      -2.840  11.800  18.232  0.00  0.00    +0.000 A 
ATOM     22  C   UNL     1      -3.309  12.286  19.451  0.00  0.00    +0.000 A 
ATOM     23  C   UNL     1      -4.681  12.448  19.630  0.00  0.00    +0.000 A 
ATOM     24  C   UNL     1      -5.544  12.134  18.588  0.00  0.00    +0.000 A 
ATOM     25  C   UNL     1      -4.998  11.676  17.402  0.00  0.00    +0.000 A 
ATOM     26  N   UNL     1      -3.674  11.500  17.200  0.00  0.00    +0.000 NA
ENDBRANCH  20  21
ENDBRANCH  11  20
TORSDOF 4
ENDMDL
