MODEL 1
REMARK VINA RESULT:      -7.9      0.000      0.000
REMARK  Name = 
REMARK  6 active torsions:
REMARK  status: ('A' for Active; 'I' for Inactive)
REMARK    1  A    between atoms: C_1  and  C_2
REMARK    2  A    between atoms: C_3  and  C_4
REMARK    3  A    between atoms: N_6  and  N_7
REMARK    4  A    between atoms: C_8  and  C_10
REMARK    5  A    between atoms: N_17  and  C_18
REMARK    6  A    between atoms: C_26  and  C_27
REMARK                            x       y       z     vdW  Elec       q    Type
REMARK                         _______ _______ _______ _____ _____    ______ ____
ROOT
ATOM      1  C   UNL     1       2.528  12.229  17.906  0.00  0.00    +0.000 C 
ATOM      2  C   UNL     1       1.484  11.758  18.862  0.00  0.00    +0.000 A 
ATOM      3  C   UNL     1       1.116  10.399  19.144  0.00  0.00    +0.000 A 
ATOM      4  N   UNL     1       0.191  10.363  20.120  0.00  0.00    +0.000 NA
ATOM      5  N   UNL     1      -0.179  11.660  20.327  0.00  0.00    +0.000 N 
ATOM      6  C   UNL     1       0.695  12.555  19.698  0.00  0.00    +0.000 A 
ENDROOT
BRANCH   5   7
ATOM      7  C   UNL     1      -1.301  11.917  21.176  0.00  0.00    +0.000 A 
ATOM      8  C   UNL     1      -1.114  11.762  22.565  0.00  0.00    +0.000 A 
ATOM      9  C   UNL     1      -2.151  12.046  23.459  0.00  0.00    +0.000 A 
ATOM     10  C   UNL     1      -3.378  12.491  22.979  0.00  0.00    +0.000 A 
ATOM     11 CL   UNL     1      -4.663  12.817  24.075  0.00  0.00    +0.000 Cl
ATOM     12  C   UNL     1      -3.586  12.632  21.611  0.00  0.00    +0.000 A 
ATOM     13  C   UNL     1      -2.566  12.307  20.704  0.00  0.00    +0.000 A 
ATOM     14 CL   UNL     1      -3.058  12.218  19.047  0.00  0.00    +0.000 Cl
ENDBRANCH   5   7
BRANCH   6  15
ATOM     15  C   UNL     1       0.748  14.022  19.923  0.00  0.00    +0.000 A 
ATOM     16  C   UNL     1       0.052  14.922  19.099  0.00  0.00    +0.000 A 
ATOM     17  C   UNL     1       0.217  16.308  19.237  0.00  0.00    +0.000 A 
ATOM     18  C   UNL     1       1.027  16.815  20.248  0.00  0.00    +0.000 A 
ATOM     19 CL   UNL     1       1.241  18.513  20.412  0.00  0.00    +0.000 Cl
ATOM     20  C   UNL     1       1.675  15.947  21.119  0.00  0.00    +0.000 A 
ATOM     21  C   UNL     1       1.547  14.563  20.946  0.00  0.00    +0.000 A 
ENDBRANCH   6  15
BRANCH   3  22
ATOM     22  C   UNL     1       1.646   9.151  18.526  0.00  0.00    +0.000 C 
ATOM     23  O   UNL     1       1.824   9.012  17.315  0.00  0.00    +0.000 OA
ATOM     24  N   UNL     1       1.922   8.121  19.414  0.00  0.00    +0.000 N 
ATOM     25  H   UNL     1       1.788   8.241  20.419  0.00  0.00    +0.000 HD
BRANCH  24  26
ATOM     26  N   UNL     1       2.470   6.898  18.951  0.00  0.00    +0.000 N 
ATOM     27  C   UNL     1       2.177   5.743  19.658  0.00  0.00    +0.000 C 
ATOM     28  O   UNL     1       1.482   5.763  20.675  0.00  0.00    +0.000 OA
ATOM     29  H   UNL     1       2.887   6.911  18.023  0.00  0.00    +0.000 HD
BRANCH  27  30
ATOM     30  C   UNL     1       2.705   4.442  19.149  0.00  0.00    +0.000 A 
ATOM     31  C   UNL     1       3.705   3.718  19.800  0.00  0.00    +0.000 A 
ATOM     32  C   UNL     1       4.071   2.486  19.263  0.00  0.00    +0.000 A 
ATOM     33  N   UNL     1       3.525   1.955  18.151  0.00  0.00    +0.000 NA
ATOM     34  C   UNL     1       2.557   2.667  17.543  0.00  0.00    +0.000 A 
ATOM     35  C   UNL     1       2.117   3.898  18.003  0.00  0.00    +0.000 A 
ENDBRANCH  27  30
ENDBRANCH  24  26
ENDBRANCH   3  22
TORSDOF 5
ENDMDL
MODEL 2
REMARK VINA RESULT:      -7.7      1.962      2.325
REMARK  Name = 
REMARK  6 active torsions:
REMARK  status: ('A' for Active; 'I' for Inactive)
REMARK    1  A    between atoms: C_1  and  C_2
REMARK    2  A    between atoms: C_3  and  C_4
REMARK    3  A    between atoms: N_6  and  N_7
REMARK    4  A    between atoms: C_8  and  C_10
REMARK    5  A    between atoms: N_17  and  C_18
REMARK    6  A    between atoms: C_26  and  C_27
REMARK                            x       y       z     vdW  Elec       q    Type
REMARK                         _______ _______ _______ _____ _____    ______ ____
ROOT
ATOM      1  C   UNL     1       1.236  11.004  19.155  0.00  0.00    +0.000 C 
ATOM      2  C   UNL     1       0.418  11.347  20.353  0.00  0.00    +0.000 A 
ATOM      3  C   UNL     1      -0.041  10.450  21.377  0.00  0.00    +0.000 A 
ATOM      4  N   UNL     1      -0.684  11.135  22.339  0.00  0.00    +0.000 NA
ATOM      5  N   UNL     1      -0.815  12.408  21.862  0.00  0.00    +0.000 N 
ATOM      6  C   UNL     1      -0.020  12.621  20.729  0.00  0.00    +0.000 A 
ENDROOT
BRANCH   5   7
ATOM      7  C   UNL     1      -1.640  13.322  22.590  0.00  0.00    +0.000 A 
ATOM      8  C   UNL     1      -1.063  13.981  23.694  0.00  0.00    +0.000 A 
ATOM      9  C   UNL     1      -1.792  14.927  24.421  0.00  0.00    +0.000 A 
ATOM     10  C   UNL     1      -3.100  15.228  24.050  0.00  0.00    +0.000 A 
ATOM     11 CL   UNL     1      -4.008  16.372  24.958  0.00  0.00    +0.000 Cl
ATOM     12  C   UNL     1      -3.691  14.573  22.975  0.00  0.00    +0.000 A 
ATOM     13  C   UNL     1      -2.982  13.591  22.269  0.00  0.00    +0.000 A 
ATOM     14 CL   UNL     1      -3.932  12.640  21.179  0.00  0.00    +0.000 Cl
ENDBRANCH   5   7
BRANCH   6  15
ATOM     15  C   UNL     1       0.280  13.939  20.114  0.00  0.00    +0.000 A 
ATOM     16  C   UNL     1      -0.675  14.635  19.353  0.00  0.00    +0.000 A 
ATOM     17  C   UNL     1      -0.337  15.810  18.666  0.00  0.00    +0.000 A 
ATOM     18  C   UNL     1       0.941  16.345  18.787  0.00  0.00    +0.000 A 
ATOM     19 CL   UNL     1       1.361  17.779  17.937  0.00  0.00    +0.000 Cl
ATOM     20  C   UNL     1       1.885  15.711  19.587  0.00  0.00    +0.000 A 
ATOM     21  C   UNL     1       1.560  14.511  20.230  0.00  0.00    +0.000 A 
ENDBRANCH   6  15
BRANCH   3  22
ATOM     22  C   UNL     1       0.145   8.975  21.463  0.00  0.00    +0.000 C 
ATOM     23  O   UNL     1      -0.769   8.185  21.704  0.00  0.00    +0.000 OA
ATOM     24  N   UNL     1       1.444   8.529  21.264  0.00  0.00    +0.000 N 
ATOM     25  H   UNL     1       2.199   9.182  21.050  0.00  0.00    +0.000 HD
BRANCH  24  26
ATOM     26  N   UNL     1       1.740   7.142  21.281  0.00  0.00    +0.000 N 
ATOM     27  C   UNL     1       2.216   6.563  20.115  0.00  0.00    +0.000 C 
ATOM     28  O   UNL     1       2.363   7.213  19.080  0.00  0.00    +0.000 OA
ATOM     29  H   UNL     1       1.767   6.696  22.194  0.00  0.00    +0.000 HD
BRANCH  27  30
ATOM     30  C   UNL     1       2.582   5.116  20.137  0.00  0.00    +0.000 A 
ATOM     31  C   UNL     1       1.767   4.132  20.704  0.00  0.00    +0.000 A 
ATOM     32  C   UNL     1       2.185   2.807  20.607  0.00  0.00    +0.000 A 
ATOM     33  N   UNL     1       3.327   2.417  20.009  0.00  0.00    +0.000 NA
ATOM     34  C   UNL     1       4.094   3.381  19.462  0.00  0.00    +0.000 A 
ATOM     35  C   UNL     1       3.762   4.725  19.498  0.00  0.00    +0.000 A 
ENDBRANCH  27  30
ENDBRANCH  24  26
ENDBRANCH   3  22
TORSDOF 5
ENDMDL
MODEL 3
REMARK VINA RESULT:      -7.6      2.219      2.865
REMARK  Name = 
REMARK  6 active torsions:
REMARK  status: ('A' for Active; 'I' for Inactive)
REMARK    1  A    between atoms: C_1  and  C_2
REMARK    2  A    between atoms: C_3  and  C_4
REMARK    3  A    between atoms: N_6  and  N_7
REMARK    4  A    between atoms: C_8  and  C_10
REMARK    5  A    between atoms: N_17  and  C_18
REMARK    6  A    between atoms: C_26  and  C_27
REMARK                            x       y       z     vdW  Elec       q    Type
REMARK                         _______ _______ _______ _____ _____    ______ ____
ROOT
ATOM      1  C   UNL     1       2.006  12.380  19.575  0.00  0.00    +0.000 C 
ATOM      2  C   UNL     1       0.685  11.804  19.193  0.00  0.00    +0.000 A 
ATOM      3  C   UNL     1       0.424  10.478  18.706  0.00  0.00    +0.000 A 
ATOM      4  N   UNL     1      -0.899  10.296  18.544  0.00  0.00    +0.000 NA
ATOM      5  N   UNL     1      -1.466  11.524  18.726  0.00  0.00    +0.000 N 
ATOM      6  C   UNL     1      -0.559  12.437  19.278  0.00  0.00    +0.000 A 
ENDROOT
BRANCH   5   7
ATOM      7  C   UNL     1      -2.854  11.681  18.417  0.00  0.00    +0.000 A 
ATOM      8  C   UNL     1      -3.720  12.030  19.473  0.00  0.00    +0.000 A 
ATOM      9  C   UNL     1      -5.080  12.251  19.237  0.00  0.00    +0.000 A 
ATOM     10  C   UNL     1      -5.587  12.134  17.946  0.00  0.00    +0.000 A 
ATOM     11 CL   UNL     1      -7.264  12.381  17.657  0.00  0.00    +0.000 Cl
ATOM     12  C   UNL     1      -4.750  11.773  16.895  0.00  0.00    +0.000 A 
ATOM     13  C   UNL     1      -3.394  11.505  17.131  0.00  0.00    +0.000 A 
ATOM     14 CL   UNL     1      -2.553  10.762  15.815  0.00  0.00    +0.000 Cl
ENDBRANCH   5   7
BRANCH   6  15
ATOM     15  C   UNL     1      -0.901  13.768  19.842  0.00  0.00    +0.000 A 
ATOM     16  C   UNL     1      -0.740  14.950  19.099  0.00  0.00    +0.000 A 
ATOM     17  C   UNL     1      -0.937  16.208  19.686  0.00  0.00    +0.000 A 
ATOM     18  C   UNL     1      -1.365  16.301  21.006  0.00  0.00    +0.000 A 
ATOM     19 CL   UNL     1      -1.595  17.842  21.732  0.00  0.00    +0.000 Cl
ATOM     20  C   UNL     1      -1.594  15.146  21.744  0.00  0.00    +0.000 A 
ATOM     21  C   UNL     1      -1.349  13.892  21.170  0.00  0.00    +0.000 A 
ENDBRANCH   6  15
BRANCH   3  22
ATOM     22  C   UNL     1       1.400   9.389  18.425  0.00  0.00    +0.000 C 
ATOM     23  O   UNL     1       2.046   9.304  17.379  0.00  0.00    +0.000 OA
ATOM     24  N   UNL     1       1.536   8.441  19.429  0.00  0.00    +0.000 N 
ATOM     25  H   UNL     1       1.012   8.518  20.302  0.00  0.00    +0.000 HD
BRANCH  24  26
ATOM     26  N   UNL     1       2.465   7.378  19.296  0.00  0.00    +0.000 N 
ATOM     27  C   UNL     1       2.275   6.245  20.070  0.00  0.00    +0.000 C 
ATOM     28  O   UNL     1       1.346   6.155  20.873  0.00  0.00    +0.000 OA
ATOM     29  H   UNL     1       3.104   7.431  18.506  0.00  0.00    +0.000 HD
BRANCH  27  30
ATOM     30  C   UNL     1       3.217   5.099  19.899  0.00  0.00    +0.000 A 
ATOM     31  C   UNL     1       2.878   3.780  20.212  0.00  0.00    +0.000 A 
ATOM     32  C   UNL     1       3.818   2.787  19.950  0.00  0.00    +0.000 A 
ATOM     33  N   UNL     1       5.035   3.020  19.421  0.00  0.00    +0.000 NA
ATOM     34  C   UNL     1       5.339   4.298  19.119  0.00  0.00    +0.000 A 
ATOM     35  C   UNL     1       4.470   5.355  19.334  0.00  0.00    +0.000 A 
ENDBRANCH  27  30
ENDBRANCH  24  26
ENDBRANCH   3  22
TORSDOF 5
ENDMDL
MODEL 4
REMARK VINA RESULT:      -7.6      1.309      4.204
REMARK  Name = 
REMARK  6 active torsions:
REMARK  status: ('A' for Active; 'I' for Inactive)
REMARK    1  A    between atoms: C_1  and  C_2
REMARK    2  A    between atoms: C_3  and  C_4
REMARK    3  A    between atoms: N_6  and  N_7
REMARK    4  A    between atoms: C_8  and  C_10
REMARK    5  A    between atoms: N_17  and  C_18
REMARK    6  A    between atoms: C_26  and  C_27
REMARK                            x       y       z     vdW  Elec       q    Type
REMARK                         _______ _______ _______ _____ _____    ______ ____
ROOT
ATOM      1  C   UNL     1      -0.633   8.492  21.354  0.00  0.00    +0.000 C 
ATOM      2  C   UNL     1       0.104   9.602  20.685  0.00  0.00    +0.000 A 
ATOM      3  C   UNL     1       1.169   9.486  19.729  0.00  0.00    +0.000 A 
ATOM      4  N   UNL     1       1.530  10.703  19.288  0.00  0.00    +0.000 NA
ATOM      5  N   UNL     1       0.863  11.596  20.076  0.00  0.00    +0.000 N 
ATOM      6  C   UNL     1      -0.137  10.972  20.832  0.00  0.00    +0.000 A 
ENDROOT
BRANCH   5   7
ATOM      7  C   UNL     1       1.204  12.981  19.969  0.00  0.00    +0.000 A 
ATOM      8  C   UNL     1       2.074  13.513  20.943  0.00  0.00    +0.000 A 
ATOM      9  C   UNL     1       2.493  14.845  20.873  0.00  0.00    +0.000 A 
ATOM     10  C   UNL     1       2.054  15.655  19.830  0.00  0.00    +0.000 A 
ATOM     11 CL   UNL     1       2.548  17.301  19.756  0.00  0.00    +0.000 Cl
ATOM     12  C   UNL     1       1.181  15.152  18.871  0.00  0.00    +0.000 A 
ATOM     13  C   UNL     1       0.721  13.831  18.959  0.00  0.00    +0.000 A 
ATOM     14 CL   UNL     1      -0.594  13.440  17.904  0.00  0.00    +0.000 Cl
ENDBRANCH   5   7
BRANCH   6  15
ATOM     15  C   UNL     1      -1.212  11.663  21.589  0.00  0.00    +0.000 A 
ATOM     16  C   UNL     1      -1.277  11.613  22.993  0.00  0.00    +0.000 A 
ATOM     17  C   UNL     1      -2.370  12.154  23.687  0.00  0.00    +0.000 A 
ATOM     18  C   UNL     1      -3.378  12.814  22.992  0.00  0.00    +0.000 A 
ATOM     19 CL   UNL     1      -4.724  13.467  23.840  0.00  0.00    +0.000 Cl
ATOM     20  C   UNL     1      -3.304  12.934  21.610  0.00  0.00    +0.000 A 
ATOM     21  C   UNL     1      -2.238  12.350  20.916  0.00  0.00    +0.000 A 
ENDBRANCH   6  15
BRANCH   3  22
ATOM     22  C   UNL     1       1.819   8.247  19.218  0.00  0.00    +0.000 C 
ATOM     23  O   UNL     1       1.995   8.013  18.021  0.00  0.00    +0.000 OA
ATOM     24  N   UNL     1       2.214   7.340  20.191  0.00  0.00    +0.000 N 
ATOM     25  H   UNL     1       2.081   7.539  21.183  0.00  0.00    +0.000 HD
BRANCH  24  26
ATOM     26  N   UNL     1       2.881   6.141  19.830  0.00  0.00    +0.000 N 
ATOM     27  C   UNL     1       2.194   4.946  19.968  0.00  0.00    +0.000 C 
ATOM     28  O   UNL     1       1.045   4.904  20.410  0.00  0.00    +0.000 OA
ATOM     29  H   UNL     1       3.752   6.245  19.315  0.00  0.00    +0.000 HD
BRANCH  27  30
ATOM     30  C   UNL     1       2.868   3.684  19.540  0.00  0.00    +0.000 A 
ATOM     31  C   UNL     1       3.850   3.048  20.304  0.00  0.00    +0.000 A 
ATOM     32  C   UNL     1       4.361   1.842  19.832  0.00  0.00    +0.000 A 
ATOM     33  N   UNL     1       3.973   1.255  18.683  0.00  0.00    +0.000 NA
ATOM     34  C   UNL     1       3.020   1.881  17.966  0.00  0.00    +0.000 A 
ATOM     35  C   UNL     1       2.443   3.080  18.354  0.00  0.00    +0.000 A 
ENDBRANCH  27  30
ENDBRANCH  24  26
ENDBRANCH   3  22
TORSDOF 5
ENDMDL
MODEL 5
REMARK VINA RESULT:      -7.6      1.199      1.666
REMARK  Name = 
REMARK  6 active torsions:
REMARK  status: ('A' for Active; 'I' for Inactive)
REMARK    1  A    between atoms: C_1  and  C_2
REMARK    2  A    between atoms: C_3  and  C_4
REMARK    3  A    between atoms: N_6  and  N_7
REMARK    4  A    between atoms: C_8  and  C_10
REMARK    5  A    between atoms: N_17  and  C_18
REMARK    6  A    between atoms: C_26  and  C_27
REMARK                            x       y       z     vdW  Elec       q    Type
REMARK                         _______ _______ _______ _____ _____    ______ ____
ROOT
ATOM      1  C   UNL     1       2.588  12.215  18.188  0.00  0.00    +0.000 C 
ATOM      2  C   UNL     1       1.305  11.813  18.834  0.00  0.00    +0.000 A 
ATOM      3  C   UNL     1       0.813  10.478  19.030  0.00  0.00    +0.000 A 
ATOM      4  N   UNL     1      -0.341  10.507  19.720  0.00  0.00    +0.000 NA
ATOM      5  N   UNL     1      -0.694  11.823  19.797  0.00  0.00    +0.000 N 
ATOM      6  C   UNL     1       0.357  12.664  19.411  0.00  0.00    +0.000 A 
ENDROOT
BRANCH   5   7
ATOM      7  C   UNL     1      -1.990  12.148  20.306  0.00  0.00    +0.000 A 
ATOM      8  C   UNL     1      -3.050  12.232  19.380  0.00  0.00    +0.000 A 
ATOM      9  C   UNL     1      -4.354  12.494  19.811  0.00  0.00    +0.000 A 
ATOM     10  C   UNL     1      -4.614  12.668  21.167  0.00  0.00    +0.000 A 
ATOM     11 CL   UNL     1      -6.213  13.015  21.697  0.00  0.00    +0.000 Cl
ATOM     12  C   UNL     1      -3.577  12.606  22.093  0.00  0.00    +0.000 A 
ATOM     13  C   UNL     1      -2.260  12.388  21.665  0.00  0.00    +0.000 A 
ATOM     14 CL   UNL     1      -1.044  12.656  22.866  0.00  0.00    +0.000 Cl
ENDBRANCH   5   7
BRANCH   6  15
ATOM     15  C   UNL     1       0.413  14.134  19.616  0.00  0.00    +0.000 A 
ATOM     16  C   UNL     1      -0.275  15.025  18.774  0.00  0.00    +0.000 A 
ATOM     17  C   UNL     1      -0.105  16.412  18.894  0.00  0.00    +0.000 A 
ATOM     18  C   UNL     1       0.700  16.930  19.903  0.00  0.00    +0.000 A 
ATOM     19 CL   UNL     1       0.919  18.630  20.044  0.00  0.00    +0.000 Cl
ATOM     20  C   UNL     1       1.339  16.073  20.789  0.00  0.00    +0.000 A 
ATOM     21  C   UNL     1       1.208  14.687  20.636  0.00  0.00    +0.000 A 
ENDBRANCH   6  15
BRANCH   3  22
ATOM     22  C   UNL     1       1.433   9.193  18.601  0.00  0.00    +0.000 C 
ATOM     23  O   UNL     1       1.560   8.857  17.423  0.00  0.00    +0.000 OA
ATOM     24  N   UNL     1       1.858   8.367  19.632  0.00  0.00    +0.000 N 
ATOM     25  H   UNL     1       1.766   8.651  20.608  0.00  0.00    +0.000 HD
BRANCH  24  26
ATOM     26  N   UNL     1       2.501   7.135  19.349  0.00  0.00    +0.000 N 
ATOM     27  C   UNL     1       2.062   6.003  20.016  0.00  0.00    +0.000 C 
ATOM     28  O   UNL     1       1.158   6.049  20.850  0.00  0.00    +0.000 OA
ATOM     29  H   UNL     1       3.115   7.120  18.538  0.00  0.00    +0.000 HD
BRANCH  27  30
ATOM     30  C   UNL     1       2.696   4.691  19.686  0.00  0.00    +0.000 A 
ATOM     31  C   UNL     1       1.965   3.514  19.511  0.00  0.00    +0.000 A 
ATOM     32  C   UNL     1       2.661   2.365  19.144  0.00  0.00    +0.000 A 
ATOM     33  N   UNL     1       3.995   2.318  18.954  0.00  0.00    +0.000 NA
ATOM     34  C   UNL     1       4.679   3.466  19.121  0.00  0.00    +0.000 A 
ATOM     35  C   UNL     1       4.078   4.662  19.478  0.00  0.00    +0.000 A 
ENDBRANCH  27  30
ENDBRANCH  24  26
ENDBRANCH   3  22
TORSDOF 5
ENDMDL
MODEL 6
REMARK VINA RESULT:      -7.6      2.474      4.440
REMARK  Name = 
REMARK  6 active torsions:
REMARK  status: ('A' for Active; 'I' for Inactive)
REMARK    1  A    between atoms: C_1  and  C_2
REMARK    2  A    between atoms: C_3  and  C_4
REMARK    3  A    between atoms: N_6  and  N_7
REMARK    4  A    between atoms: C_8  and  C_10
REMARK    5  A    between atoms: N_17  and  C_18
REMARK    6  A    between atoms: C_26  and  C_27
REMARK                            x       y       z     vdW  Elec       q    Type
REMARK                         _______ _______ _______ _____ _____    ______ ____
ROOT
ATOM      1  C   UNL     1      -1.567  11.078  23.216  0.00  0.00    +0.000 C 
ATOM      2  C   UNL     1      -0.541  11.465  22.205  0.00  0.00    +0.000 A 
ATOM      3  C   UNL     1       0.284  10.586  21.424  0.00  0.00    +0.000 A 
ATOM      4  N   UNL     1       1.032  11.296  20.562  0.00  0.00    +0.000 NA
ATOM      5  N   UNL     1       0.851  12.605  20.906  0.00  0.00    +0.000 N 
ATOM      6  C   UNL     1      -0.220  12.763  21.795  0.00  0.00    +0.000 A 
ENDROOT
BRANCH   5   7
ATOM      7  C   UNL     1       1.682  13.590  20.286  0.00  0.00    +0.000 A 
ATOM      8  C   UNL     1       2.935  13.849  20.878  0.00  0.00    +0.000 A 
ATOM      9  C   UNL     1       3.822  14.760  20.299  0.00  0.00    +0.000 A 
ATOM     10  C   UNL     1       3.473  15.415  19.122  0.00  0.00    +0.000 A 
ATOM     11 CL   UNL     1       4.553  16.556  18.420  0.00  0.00    +0.000 Cl
ATOM     12  C   UNL     1       2.234  15.185  18.533  0.00  0.00    +0.000 A 
ATOM     13  C   UNL     1       1.320  14.307  19.132  0.00  0.00    +0.000 A 
ATOM     14 CL   UNL     1      -0.284  14.360  18.483  0.00  0.00    +0.000 Cl
ENDBRANCH   5   7
BRANCH   6  15
ATOM     15  C   UNL     1      -0.855  14.052  22.168  0.00  0.00    +0.000 A 
ATOM     16  C   UNL     1      -0.296  14.899  23.141  0.00  0.00    +0.000 A 
ATOM     17  C   UNL     1      -0.974  16.044  23.582  0.00  0.00    +0.000 A 
ATOM     18  C   UNL     1      -2.189  16.398  23.006  0.00  0.00    +0.000 A 
ATOM     19 CL   UNL     1      -3.028  17.796  23.553  0.00  0.00    +0.000 Cl
ATOM     20  C   UNL     1      -2.732  15.615  21.996  0.00  0.00    +0.000 A 
ATOM     21  C   UNL     1      -2.077  14.444  21.593  0.00  0.00    +0.000 A 
ENDBRANCH   6  15
BRANCH   3  22
ATOM     22  C   UNL     1       0.348   9.098  21.469  0.00  0.00    +0.000 C 
ATOM     23  O   UNL     1      -0.621   8.381  21.723  0.00  0.00    +0.000 OA
ATOM     24  N   UNL     1       1.597   8.551  21.213  0.00  0.00    +0.000 N 
ATOM     25  H   UNL     1       2.397   9.144  20.988  0.00  0.00    +0.000 HD
BRANCH  24  26
ATOM     26  N   UNL     1       1.775   7.144  21.186  0.00  0.00    +0.000 N 
ATOM     27  C   UNL     1       2.187   6.562  19.998  0.00  0.00    +0.000 C 
ATOM     28  O   UNL     1       2.375   7.228  18.979  0.00  0.00    +0.000 OA
ATOM     29  H   UNL     1       1.775   6.670  22.085  0.00  0.00    +0.000 HD
BRANCH  27  30
ATOM     30  C   UNL     1       2.429   5.089  19.973  0.00  0.00    +0.000 A 
ATOM     31  C   UNL     1       3.659   4.525  19.625  0.00  0.00    +0.000 A 
ATOM     32  C   UNL     1       3.783   3.140  19.699  0.00  0.00    +0.000 A 
ATOM     33  N   UNL     1       2.790   2.312  20.078  0.00  0.00    +0.000 NA
ATOM     34  C   UNL     1       1.615   2.877  20.416  0.00  0.00    +0.000 A 
ATOM     35  C   UNL     1       1.393   4.244  20.383  0.00  0.00    +0.000 A 
ENDBRANCH  27  30
ENDBRANCH  24  26
ENDBRANCH   3  22
TORSDOF 5
ENDMDL
MODEL 7
REMARK VINA RESULT:      -7.6      1.885      2.351
REMARK  Name = 
REMARK  6 active torsions:
REMARK  status: ('A' for Active; 'I' for Inactive)
REMARK    1  A    between atoms: C_1  and  C_2
REMARK    2  A    between atoms: C_3  and  C_4
REMARK    3  A    between atoms: N_6  and  N_7
REMARK    4  A    between atoms: C_8  and  C_10
REMARK    5  A    between atoms: N_17  and  C_18
REMARK    6  A    between atoms: C_26  and  C_27
REMARK                            x       y       z     vdW  Elec       q    Type
REMARK                         _______ _______ _______ _____ _____    ______ ____
ROOT
ATOM      1  C   UNL     1       1.283  10.999  19.106  0.00  0.00    +0.000 C 
ATOM      2  C   UNL     1       0.431  11.342  20.281  0.00  0.00    +0.000 A 
ATOM      3  C   UNL     1      -0.060  10.445  21.289  0.00  0.00    +0.000 A 
ATOM      4  N   UNL     1      -0.728  11.130  22.233  0.00  0.00    +0.000 NA
ATOM      5  N   UNL     1      -0.842  12.404  21.755  0.00  0.00    +0.000 N 
ATOM      6  C   UNL     1      -0.015  12.617  20.646  0.00  0.00    +0.000 A 
ENDROOT
BRANCH   5   7
ATOM      7  C   UNL     1      -1.686  13.319  22.460  0.00  0.00    +0.000 A 
ATOM      8  C   UNL     1      -1.189  13.870  23.658  0.00  0.00    +0.000 A 
ATOM      9  C   UNL     1      -1.936  14.811  24.374  0.00  0.00    +0.000 A 
ATOM     10  C   UNL     1      -3.180  15.214  23.899  0.00  0.00    +0.000 A 
ATOM     11 CL   UNL     1      -4.112  16.352  24.790  0.00  0.00    +0.000 Cl
ATOM     12  C   UNL     1      -3.694  14.667  22.728  0.00  0.00    +0.000 A 
ATOM     13  C   UNL     1      -2.971  13.690  22.028  0.00  0.00    +0.000 A 
ATOM     14 CL   UNL     1      -3.856  12.869  20.788  0.00  0.00    +0.000 Cl
ENDBRANCH   5   7
BRANCH   6  15
ATOM     15  C   UNL     1       0.307  13.935  20.042  0.00  0.00    +0.000 A 
ATOM     16  C   UNL     1       1.500  14.615  20.343  0.00  0.00    +0.000 A 
ATOM     17  C   UNL     1       1.730  15.917  19.874  0.00  0.00    +0.000 A 
ATOM     18  C   UNL     1       0.801  16.530  19.039  0.00  0.00    +0.000 A 
ATOM     19 CL   UNL     1       1.075  18.130  18.473  0.00  0.00    +0.000 Cl
ATOM     20  C   UNL     1      -0.356  15.854  18.673  0.00  0.00    +0.000 A 
ATOM     21  C   UNL     1      -0.606  14.574  19.184  0.00  0.00    +0.000 A 
ENDBRANCH   6  15
BRANCH   3  22
ATOM     22  C   UNL     1       0.120   8.969  21.378  0.00  0.00    +0.000 C 
ATOM     23  O   UNL     1      -0.766   8.194  21.740  0.00  0.00    +0.000 OA
ATOM     24  N   UNL     1       1.382   8.504  21.035  0.00  0.00    +0.000 N 
ATOM     25  H   UNL     1       2.113   9.144  20.722  0.00  0.00    +0.000 HD
BRANCH  24  26
ATOM     26  N   UNL     1       1.664   7.114  21.040  0.00  0.00    +0.000 N 
ATOM     27  C   UNL     1       2.238   6.561  19.907  0.00  0.00    +0.000 C 
ATOM     28  O   UNL     1       2.483   7.236  18.907  0.00  0.00    +0.000 OA
ATOM     29  H   UNL     1       1.604   6.644  21.940  0.00  0.00    +0.000 HD
BRANCH  27  30
ATOM     30  C   UNL     1       2.588   5.109  19.923  0.00  0.00    +0.000 A 
ATOM     31  C   UNL     1       3.819   4.618  19.482  0.00  0.00    +0.000 A 
ATOM     32  C   UNL     1       4.055   3.251  19.603  0.00  0.00    +0.000 A 
ATOM     33  N   UNL     1       3.167   2.374  20.112  0.00  0.00    +0.000 NA
ATOM     34  C   UNL     1       1.989   2.870  20.538  0.00  0.00    +0.000 A 
ATOM     35  C   UNL     1       1.663   4.215  20.468  0.00  0.00    +0.000 A 
ENDBRANCH  27  30
ENDBRANCH  24  26
ENDBRANCH   3  22
TORSDOF 5
ENDMDL
MODEL 8
REMARK VINA RESULT:      -7.5      2.416      3.008
REMARK  Name = 
REMARK  6 active torsions:
REMARK  status: ('A' for Active; 'I' for Inactive)
REMARK    1  A    between atoms: C_1  and  C_2
REMARK    2  A    between atoms: C_3  and  C_4
REMARK    3  A    between atoms: N_6  and  N_7
REMARK    4  A    between atoms: C_8  and  C_10
REMARK    5  A    between atoms: N_17  and  C_18
REMARK    6  A    between atoms: C_26  and  C_27
REMARK                            x       y       z     vdW  Elec       q    Type
REMARK                         _______ _______ _______ _____ _____    ______ ____
ROOT
ATOM      1  C   UNL     1       1.959  12.535  20.624  0.00  0.00    +0.000 C 
ATOM      2  C   UNL     1       0.612  11.972  20.321  0.00  0.00    +0.000 A 
ATOM      3  C   UNL     1       0.201  10.600  20.420  0.00  0.00    +0.000 A 
ATOM      4  N   UNL     1      -1.109  10.487  20.142  0.00  0.00    +0.000 NA
ATOM      5  N   UNL     1      -1.497  11.712  19.680  0.00  0.00    +0.000 N 
ATOM      6  C   UNL     1      -0.522  12.688  19.922  0.00  0.00    +0.000 A 
ENDROOT
BRANCH   5   7
ATOM      7  C   UNL     1      -2.804  11.840  19.114  0.00  0.00    +0.000 A 
ATOM      8  C   UNL     1      -3.805  12.423  19.916  0.00  0.00    +0.000 A 
ATOM      9  C   UNL     1      -5.093  12.628  19.412  0.00  0.00    +0.000 A 
ATOM     10  C   UNL     1      -5.392  12.261  18.104  0.00  0.00    +0.000 A 
ATOM     11 CL   UNL     1      -6.982  12.489  17.489  0.00  0.00    +0.000 Cl
ATOM     12  C   UNL     1      -4.421  11.667  17.304  0.00  0.00    +0.000 A 
ATOM     13  C   UNL     1      -3.140  11.417  17.816  0.00  0.00    +0.000 A 
ATOM     14 CL   UNL     1      -2.144  10.395  16.837  0.00  0.00    +0.000 Cl
ENDBRANCH   5   7
BRANCH   6  15
ATOM     15  C   UNL     1      -0.711  14.155  19.792  0.00  0.00    +0.000 A 
ATOM     16  C   UNL     1      -1.474  14.888  20.718  0.00  0.00    +0.000 A 
ATOM     17  C   UNL     1      -1.758  16.246  20.511  0.00  0.00    +0.000 A 
ATOM     18  C   UNL     1      -1.224  16.908  19.410  0.00  0.00    +0.000 A 
ATOM     19 CL   UNL     1      -1.580  18.569  19.147  0.00  0.00    +0.000 Cl
ATOM     20  C   UNL     1      -0.413  16.222  18.514  0.00  0.00    +0.000 A 
ATOM     21  C   UNL     1      -0.173  14.855  18.697  0.00  0.00    +0.000 A 
ENDBRANCH   6  15
BRANCH   3  22
ATOM     22  C   UNL     1       1.022   9.416  20.799  0.00  0.00    +0.000 C 
ATOM     23  O   UNL     1       1.313   9.131  21.962  0.00  0.00    +0.000 OA
ATOM     24  N   UNL     1       1.463   8.637  19.739  0.00  0.00    +0.000 N 
ATOM     25  H   UNL     1       1.211   8.864  18.776  0.00  0.00    +0.000 HD
BRANCH  24  26
ATOM     26  N   UNL     1       2.218   7.460  19.975  0.00  0.00    +0.000 N 
ATOM     27  C   UNL     1       2.589   6.694  18.881  0.00  0.00    +0.000 C 
ATOM     28  O   UNL     1       2.263   6.998  17.734  0.00  0.00    +0.000 OA
ATOM     29  H   UNL     1       2.604   7.349  20.909  0.00  0.00    +0.000 HD
BRANCH  27  30
ATOM     30  C   UNL     1       3.430   5.481  19.114  0.00  0.00    +0.000 A 
ATOM     31  C   UNL     1       4.798   5.438  18.836  0.00  0.00    +0.000 A 
ATOM     32  C   UNL     1       5.490   4.272  19.154  0.00  0.00    +0.000 A 
ATOM     33  N   UNL     1       4.919   3.182  19.705  0.00  0.00    +0.000 NA
ATOM     34  C   UNL     1       3.601   3.248  19.971  0.00  0.00    +0.000 A 
ATOM     35  C   UNL     1       2.827   4.365  19.700  0.00  0.00    +0.000 A 
ENDBRANCH  27  30
ENDBRANCH  24  26
ENDBRANCH   3  22
TORSDOF 5
ENDMDL
MODEL 9
REMARK VINA RESULT:      -7.5      2.416      4.311
REMARK  Name = 
REMARK  6 active torsions:
REMARK  status: ('A' for Active; 'I' for Inactive)
REMARK    1  A    between atoms: C_1  and  C_2
REMARK    2  A    between atoms: C_3  and  C_4
REMARK    3  A    between atoms: N_6  and  N_7
REMARK    4  A    between atoms: C_8  and  C_10
REMARK    5  A    between atoms: N_17  and  C_18
REMARK    6  A    between atoms: C_26  and  C_27
REMARK                            x       y       z     vdW  Elec       q    Type
REMARK                         _______ _______ _______ _____ _____    ______ ____
ROOT
ATOM      1  C   UNL     1      -1.651  11.056  23.201  0.00  0.00    +0.000 C 
ATOM      2  C   UNL     1      -0.604  11.419  22.204  0.00  0.00    +0.000 A 
ATOM      3  C   UNL     1       0.234  10.523  21.457  0.00  0.00    +0.000 A 
ATOM      4  N   UNL     1       1.001  11.214  20.596  0.00  0.00    +0.000 NA
ATOM      5  N   UNL     1       0.818  12.529  20.911  0.00  0.00    +0.000 N 
ATOM      6  C   UNL     1      -0.270  12.708  21.774  0.00  0.00    +0.000 A 
ENDROOT
BRANCH   5   7
ATOM      7  C   UNL     1       1.665  13.499  20.288  0.00  0.00    +0.000 A 
ATOM      8  C   UNL     1       2.891  13.791  20.919  0.00  0.00    +0.000 A 
ATOM      9  C   UNL     1       3.794  14.690  20.341  0.00  0.00    +0.000 A 
ATOM     10  C   UNL     1       3.485  15.299  19.129  0.00  0.00    +0.000 A 
ATOM     11 CL   UNL     1       4.582  16.424  18.429  0.00  0.00    +0.000 Cl
ATOM     12  C   UNL     1       2.271  15.037  18.502  0.00  0.00    +0.000 A 
ATOM     13  C   UNL     1       1.341  14.171  19.096  0.00  0.00    +0.000 A 
ATOM     14 CL   UNL     1      -0.236  14.187  18.385  0.00  0.00    +0.000 Cl
ENDBRANCH   5   7
BRANCH   6  15
ATOM     15  C   UNL     1      -0.908  14.007  22.110  0.00  0.00    +0.000 A 
ATOM     16  C   UNL     1      -2.048  14.468  21.429  0.00  0.00    +0.000 A 
ATOM     17  C   UNL     1      -2.560  15.753  21.660  0.00  0.00    +0.000 A 
ATOM     18  C   UNL     1      -1.982  16.569  22.627  0.00  0.00    +0.000 A 
ATOM     19 CL   UNL     1      -2.601  18.149  22.905  0.00  0.00    +0.000 Cl
ATOM     20  C   UNL     1      -0.895  16.111  23.361  0.00  0.00    +0.000 A 
ATOM     21  C   UNL     1      -0.355  14.847  23.092  0.00  0.00    +0.000 A 
ENDBRANCH   6  15
BRANCH   3  22
ATOM     22  C   UNL     1       0.291   9.036  21.532  0.00  0.00    +0.000 C 
ATOM     23  O   UNL     1      -0.652   8.334  21.898  0.00  0.00    +0.000 OA
ATOM     24  N   UNL     1       1.506   8.471  21.169  0.00  0.00    +0.000 N 
ATOM     25  H   UNL     1       2.284   9.051  20.852  0.00  0.00    +0.000 HD
BRANCH  24  26
ATOM     26  N   UNL     1       1.671   7.063  21.159  0.00  0.00    +0.000 N 
ATOM     27  C   UNL     1       2.207   6.477  20.023  0.00  0.00    +0.000 C 
ATOM     28  O   UNL     1       2.515   7.141  19.033  0.00  0.00    +0.000 OA
ATOM     29  H   UNL     1       1.566   6.588  22.052  0.00  0.00    +0.000 HD
BRANCH  27  30
ATOM     30  C   UNL     1       2.435   5.001  20.023  0.00  0.00    +0.000 A 
ATOM     31  C   UNL     1       1.621   4.104  20.718  0.00  0.00    +0.000 A 
ATOM     32  C   UNL     1       1.894   2.745  20.591  0.00  0.00    +0.000 A 
ATOM     33  N   UNL     1       2.899   2.243  19.846  0.00  0.00    +0.000 NA
ATOM     34  C   UNL     1       3.668   3.125  19.179  0.00  0.00    +0.000 A 
ATOM     35  C   UNL     1       3.472   4.496  19.233  0.00  0.00    +0.000 A 
ENDBRANCH  27  30
ENDBRANCH  24  26
ENDBRANCH   3  22
TORSDOF 5
ENDMDL
