MODEL 1
REMARK VINA RESULT:      -7.7      0.000      0.000
REMARK  Name = 
REMARK  8 active torsions:
REMARK  status: ('A' for Active; 'I' for Inactive)
REMARK    1  A    between atoms: C_1  and  N_2
REMARK    2  A    between atoms: N_2  and  C_3
REMARK    3  A    between atoms: C_4  and  C_6
REMARK    4  A    between atoms: C_6  and  O_7
REMARK    5  A    between atoms: O_7  and  C_8
REMARK    6  A    between atoms: C_8  and  C_9
REMARK    7  A    between atoms: N_15  and  C_16
REMARK    8  A    between atoms: C_16  and  C_17
REMARK                            x       y       z     vdW  Elec       q    Type
REMARK                         _______ _______ _______ _____ _____    ______ ____
ROOT
ATOM      1  C   UNL     1       3.082   5.798  18.001  0.00  0.00    +0.000 C 
ATOM      2  C   UNL     1       3.871   5.665  19.325  0.00  0.00    +0.000 C 
ATOM      3  C   UNL     1       5.284   5.340  18.877  0.00  0.00    +0.000 C 
ATOM      4  O   UNL     1       6.283   5.654  19.843  0.00  0.00    +0.000 OA
ATOM      5  C   UNL     1       7.594   5.462  19.272  0.00  0.00    +0.000 C 
ATOM      6  C   UNL     1       7.785   6.234  17.942  0.00  0.00    +0.000 C 
ATOM      7  N   UNL     1       6.723   5.990  16.920  0.00  0.00    +0.000 NA
ATOM      8  C   UNL     1       5.449   6.234  17.638  0.00  0.00    +0.000 C 
ATOM      9  C   UNL     1       4.120   6.101  16.897  0.00  0.00    +0.000 C 
ENDROOT
BRANCH   1  10
ATOM     10  C   UNL     1       2.286   4.538  17.648  0.00  0.00    +0.000 C 
BRANCH  10  11
ATOM     11  O   UNL     1       3.197   3.473  17.417  0.00  0.00    +0.000 OA
BRANCH  11  12
ATOM     12  C   UNL     1       2.682   2.222  17.853  0.00  0.00    +0.000 C 
BRANCH  12  16
ATOM     13  C   UNL     1       1.620   2.539  21.521  0.00  0.00    +0.000 C 
ATOM     14  N   UNL     1       2.451   2.460  20.336  0.00  0.00    +0.000 N 
ATOM     15  C   UNL     1       3.891   2.340  20.501  0.00  0.00    +0.000 C 
ATOM     16  C   UNL     1       1.807   2.369  19.103  0.00  0.00    +0.000 C 
ATOM     17  O   UNL     1       0.580   2.447  18.999  0.00  0.00    +0.000 OA
ENDBRANCH  12  16
ENDBRANCH  11  12
ENDBRANCH  10  11
ENDBRANCH   1  10
BRANCH   7  18
ATOM     18  C   UNL     1       6.801   4.625  16.358  0.00  0.00    +0.000 C 
BRANCH  18  19
ATOM     19  C   UNL     1       6.863   4.578  14.869  0.00  0.00    +0.000 A 
ATOM     20  C   UNL     1       6.187   3.863  13.905  0.00  0.00    +0.000 A 
ATOM     21  C   UNL     1       6.750   4.246  12.661  0.00  0.00    +0.000 A 
ATOM     22  C   UNL     1       7.724   5.170  12.945  0.00  0.00    +0.000 A 
ATOM     23  O   UNL     1       7.802   5.385  14.285  0.00  0.00    +0.000 OA
ENDBRANCH  18  19
ENDBRANCH   7  18
TORSDOF 6
ENDMDL
MODEL 2
REMARK VINA RESULT:      -7.6      0.872      1.174
REMARK  Name = 
REMARK  8 active torsions:
REMARK  status: ('A' for Active; 'I' for Inactive)
REMARK    1  A    between atoms: C_1  and  N_2
REMARK    2  A    between atoms: N_2  and  C_3
REMARK    3  A    between atoms: C_4  and  C_6
REMARK    4  A    between atoms: C_6  and  O_7
REMARK    5  A    between atoms: O_7  and  C_8
REMARK    6  A    between atoms: C_8  and  C_9
REMARK    7  A    between atoms: N_15  and  C_16
REMARK    8  A    between atoms: C_16  and  C_17
REMARK                            x       y       z     vdW  Elec       q    Type
REMARK                         _______ _______ _______ _____ _____    ______ ____
ROOT
ATOM      1  C   UNL     1       3.268   5.462  17.773  0.00  0.00    +0.000 C 
ATOM      2  C   UNL     1       3.953   5.417  19.159  0.00  0.00    +0.000 C 
ATOM      3  C   UNL     1       5.426   5.254  18.833  0.00  0.00    +0.000 C 
ATOM      4  O   UNL     1       6.299   5.677  19.877  0.00  0.00    +0.000 OA
ATOM      5  C   UNL     1       7.666   5.637  19.418  0.00  0.00    +0.000 C 
ATOM      6  C   UNL     1       7.880   6.428  18.104  0.00  0.00    +0.000 C 
ATOM      7  N   UNL     1       6.941   6.068  16.998  0.00  0.00    +0.000 NA
ATOM      8  C   UNL     1       5.593   6.164  17.605  0.00  0.00    +0.000 C 
ATOM      9  C   UNL     1       4.354   5.883  16.757  0.00  0.00    +0.000 C 
ENDROOT
BRANCH   1  10
ATOM     10  C   UNL     1       2.652   4.121  17.363  0.00  0.00    +0.000 C 
BRANCH  10  11
ATOM     11  O   UNL     1       3.646   3.111  17.470  0.00  0.00    +0.000 OA
BRANCH  11  12
ATOM     12  C   UNL     1       3.189   1.984  18.206  0.00  0.00    +0.000 C 
BRANCH  12  16
ATOM     13  C   UNL     1       2.194   2.772  21.822  0.00  0.00    +0.000 C 
ATOM     14  N   UNL     1       2.098   2.496  20.401  0.00  0.00    +0.000 N 
ATOM     15  C   UNL     1       0.811   2.663  19.745  0.00  0.00    +0.000 C 
ATOM     16  C   UNL     1       3.280   2.215  19.718  0.00  0.00    +0.000 C 
ATOM     17  O   UNL     1       4.362   2.105  20.302  0.00  0.00    +0.000 OA
ENDBRANCH  12  16
ENDBRANCH  11  12
ENDBRANCH  10  11
ENDBRANCH   1  10
BRANCH   7  18
ATOM     18  C   UNL     1       7.220   4.721  16.455  0.00  0.00    +0.000 C 
BRANCH  18  19
ATOM     19  C   UNL     1       7.046   4.608  14.978  0.00  0.00    +0.000 A 
ATOM     20  C   UNL     1       6.237   3.846  14.166  0.00  0.00    +0.000 A 
ATOM     21  C   UNL     1       6.590   4.177  12.833  0.00  0.00    +0.000 A 
ATOM     22  C   UNL     1       7.583   5.120  12.918  0.00  0.00    +0.000 A 
ATOM     23  O   UNL     1       7.869   5.395  14.218  0.00  0.00    +0.000 OA
ENDBRANCH  18  19
ENDBRANCH   7  18
TORSDOF 6
ENDMDL
MODEL 3
REMARK VINA RESULT:      -7.5      1.036      1.223
REMARK  Name = 
REMARK  8 active torsions:
REMARK  status: ('A' for Active; 'I' for Inactive)
REMARK    1  A    between atoms: C_1  and  N_2
REMARK    2  A    between atoms: N_2  and  C_3
REMARK    3  A    between atoms: C_4  and  C_6
REMARK    4  A    between atoms: C_6  and  O_7
REMARK    5  A    between atoms: O_7  and  C_8
REMARK    6  A    between atoms: C_8  and  C_9
REMARK    7  A    between atoms: N_15  and  C_16
REMARK    8  A    between atoms: C_16  and  C_17
REMARK                            x       y       z     vdW  Elec       q    Type
REMARK                         _______ _______ _______ _____ _____    ______ ____
ROOT
ATOM      1  C   UNL     1       3.624   4.555  17.835  0.00  0.00    +0.000 C 
ATOM      2  C   UNL     1       4.415   4.728  19.152  0.00  0.00    +0.000 C 
ATOM      3  C   UNL     1       5.838   4.985  18.692  0.00  0.00    +0.000 C 
ATOM      4  O   UNL     1       6.646   5.655  19.656  0.00  0.00    +0.000 OA
ATOM      5  C   UNL     1       7.921   5.996  19.075  0.00  0.00    +0.000 C 
ATOM      6  C   UNL     1       7.781   6.794  17.754  0.00  0.00    +0.000 C 
ATOM      7  N   UNL     1       6.888   6.165  16.736  0.00  0.00    +0.000 NA
ATOM      8  C   UNL     1       5.628   5.885  17.463  0.00  0.00    +0.000 C 
ATOM      9  C   UNL     1       4.449   5.251  16.729  0.00  0.00    +0.000 C 
ENDROOT
BRANCH   1  10
ATOM     10  C   UNL     1       3.379   3.088  17.470  0.00  0.00    +0.000 C 
BRANCH  10  11
ATOM     11  O   UNL     1       1.999   2.915  17.179  0.00  0.00    +0.000 OA
BRANCH  11  12
ATOM     12  C   UNL     1       1.164   3.490  18.174  0.00  0.00    +0.000 C 
BRANCH  12  16
ATOM     13  C   UNL     1       1.379   2.726  21.923  0.00  0.00    +0.000 C 
ATOM     14  N   UNL     1       1.252   3.457  20.677  0.00  0.00    +0.000 N 
ATOM     15  C   UNL     1       1.292   4.910  20.714  0.00  0.00    +0.000 C 
ATOM     16  C   UNL     1       1.234   2.717  19.496  0.00  0.00    +0.000 C 
ATOM     17  O   UNL     1       1.228   1.483  19.497  0.00  0.00    +0.000 OA
ENDBRANCH  12  16
ENDBRANCH  11  12
ENDBRANCH  10  11
ENDBRANCH   1  10
BRANCH   7  18
ATOM     18  C   UNL     1       7.488   4.944  16.155  0.00  0.00    +0.000 C 
BRANCH  18  19
ATOM     19  C   UNL     1       7.225   4.767  14.698  0.00  0.00    +0.000 A 
ATOM     20  C   UNL     1       6.377   3.961  13.970  0.00  0.00    +0.000 A 
ATOM     21  C   UNL     1       6.643   4.239  12.605  0.00  0.00    +0.000 A 
ATOM     22  C   UNL     1       7.627   5.195  12.589  0.00  0.00    +0.000 A 
ATOM     23  O   UNL     1       7.989   5.528  13.856  0.00  0.00    +0.000 OA
ENDBRANCH  18  19
ENDBRANCH   7  18
TORSDOF 6
ENDMDL
MODEL 4
REMARK VINA RESULT:      -7.1      1.401      1.818
REMARK  Name = 
REMARK  8 active torsions:
REMARK  status: ('A' for Active; 'I' for Inactive)
REMARK    1  A    between atoms: C_1  and  N_2
REMARK    2  A    between atoms: N_2  and  C_3
REMARK    3  A    between atoms: C_4  and  C_6
REMARK    4  A    between atoms: C_6  and  O_7
REMARK    5  A    between atoms: O_7  and  C_8
REMARK    6  A    between atoms: C_8  and  C_9
REMARK    7  A    between atoms: N_15  and  C_16
REMARK    8  A    between atoms: C_16  and  C_17
REMARK                            x       y       z     vdW  Elec       q    Type
REMARK                         _______ _______ _______ _____ _____    ______ ____
ROOT
ATOM      1  C   UNL     1       2.970   5.954  18.660  0.00  0.00    +0.000 C 
ATOM      2  C   UNL     1       4.112   5.550  19.621  0.00  0.00    +0.000 C 
ATOM      3  C   UNL     1       5.234   5.119  18.694  0.00  0.00    +0.000 C 
ATOM      4  O   UNL     1       6.528   5.177  19.288  0.00  0.00    +0.000 OA
ATOM      5  C   UNL     1       7.536   4.907  18.292  0.00  0.00    +0.000 C 
ATOM      6  C   UNL     1       7.408   5.822  17.048  0.00  0.00    +0.000 C 
ATOM      7  N   UNL     1       6.049   5.849  16.430  0.00  0.00    +0.000 NA
ATOM      8  C   UNL     1       5.130   6.146  17.555  0.00  0.00    +0.000 C 
ATOM      9  C   UNL     1       3.631   6.276  17.300  0.00  0.00    +0.000 C 
ENDROOT
BRANCH   1  10
ATOM     10  C   UNL     1       1.913   4.860  18.489  0.00  0.00    +0.000 C 
BRANCH  10  11
ATOM     11  O   UNL     1       1.402   4.516  19.769  0.00  0.00    +0.000 OA
BRANCH  11  12
ATOM     12  C   UNL     1       1.386   3.111  19.981  0.00  0.00    +0.000 C 
BRANCH  12  16
ATOM     13  C   UNL     1       4.823   1.564  20.672  0.00  0.00    +0.000 C 
ATOM     14  N   UNL     1       3.665   2.072  19.963  0.00  0.00    +0.000 N 
ATOM     15  C   UNL     1       3.573   1.849  18.529  0.00  0.00    +0.000 C 
ATOM     16  C   UNL     1       2.638   2.630  20.722  0.00  0.00    +0.000 C 
ATOM     17  O   UNL     1       2.735   2.781  21.943  0.00  0.00    +0.000 OA
ENDBRANCH  12  16
ENDBRANCH  11  12
ENDBRANCH  10  11
ENDBRANCH   1  10
BRANCH   7  18
ATOM     18  C   UNL     1       5.723   4.573  15.758  0.00  0.00    +0.000 C 
BRANCH  18  19
ATOM     19  C   UNL     1       6.302   4.435  14.391  0.00  0.00    +0.000 A 
ATOM     20  C   UNL     1       7.324   5.067  13.717  0.00  0.00    +0.000 A 
ATOM     21  C   UNL     1       7.346   4.505  12.415  0.00  0.00    +0.000 A 
ATOM     22  C   UNL     1       6.345   3.567  12.382  0.00  0.00    +0.000 A 
ATOM     23  O   UNL     1       5.703   3.511  13.579  0.00  0.00    +0.000 OA
ENDBRANCH  18  19
ENDBRANCH   7  18
TORSDOF 6
ENDMDL
MODEL 5
REMARK VINA RESULT:      -7.0      4.142      5.690
REMARK  Name = 
REMARK  8 active torsions:
REMARK  status: ('A' for Active; 'I' for Inactive)
REMARK    1  A    between atoms: C_1  and  N_2
REMARK    2  A    between atoms: N_2  and  C_3
REMARK    3  A    between atoms: C_4  and  C_6
REMARK    4  A    between atoms: C_6  and  O_7
REMARK    5  A    between atoms: O_7  and  C_8
REMARK    6  A    between atoms: C_8  and  C_9
REMARK    7  A    between atoms: N_15  and  C_16
REMARK    8  A    between atoms: C_16  and  C_17
REMARK                            x       y       z     vdW  Elec       q    Type
REMARK                         _______ _______ _______ _____ _____    ______ ____
ROOT
ATOM      1  C   UNL     1       2.213   5.787  20.716  0.00  0.00    +0.000 C 
ATOM      2  C   UNL     1       1.172   4.659  20.525  0.00  0.00    +0.000 C 
ATOM      3  C   UNL     1       1.680   3.895  19.315  0.00  0.00    +0.000 C 
ATOM      4  O   UNL     1       1.201   2.556  19.235  0.00  0.00    +0.000 OA
ATOM      5  C   UNL     1       1.858   1.865  18.153  0.00  0.00    +0.000 C 
ATOM      6  C   UNL     1       3.402   1.941  18.245  0.00  0.00    +0.000 C 
ATOM      7  N   UNL     1       3.951   3.322  18.400  0.00  0.00    +0.000 NA
ATOM      8  C   UNL     1       3.201   3.898  19.541  0.00  0.00    +0.000 C 
ATOM      9  C   UNL     1       3.509   5.315  20.018  0.00  0.00    +0.000 C 
ENDROOT
BRANCH   1  10
ATOM     10  C   UNL     1       1.757   7.129  20.137  0.00  0.00    +0.000 C 
BRANCH  10  11
ATOM     11  O   UNL     1       0.896   7.761  21.074  0.00  0.00    +0.000 OA
BRANCH  11  12
ATOM     12  C   UNL     1       1.486   8.917  21.652  0.00  0.00    +0.000 C 
BRANCH  12  16
ATOM     13  C   UNL     1      -1.333  11.218  22.854  0.00  0.00    +0.000 C 
ATOM     14  N   UNL     1      -0.449  10.473  21.978  0.00  0.00    +0.000 N 
ATOM     15  C   UNL     1      -0.518  10.719  20.546  0.00  0.00    +0.000 C 
ATOM     16  C   UNL     1       0.511   9.658  22.574  0.00  0.00    +0.000 C 
ATOM     17  O   UNL     1       0.560   9.490  23.795  0.00  0.00    +0.000 OA
ENDBRANCH  12  16
ENDBRANCH  11  12
ENDBRANCH  10  11
ENDBRANCH   1  10
BRANCH   7  18
ATOM     18  C   UNL     1       3.796   4.119  17.164  0.00  0.00    +0.000 C 
BRANCH  18  19
ATOM     19  C   UNL     1       5.070   4.353  16.423  0.00  0.00    +0.000 A 
ATOM     20  C   UNL     1       5.386   4.513  15.092  0.00  0.00    +0.000 A 
ATOM     21  C   UNL     1       6.796   4.654  15.035  0.00  0.00    +0.000 A 
ATOM     22  C   UNL     1       7.245   4.578  16.330  0.00  0.00    +0.000 A 
ATOM     23  O   UNL     1       6.205   4.398  17.186  0.00  0.00    +0.000 OA
ENDBRANCH  18  19
ENDBRANCH   7  18
TORSDOF 6
ENDMDL
MODEL 6
REMARK VINA RESULT:      -6.9      0.953      1.431
REMARK  Name = 
REMARK  8 active torsions:
REMARK  status: ('A' for Active; 'I' for Inactive)
REMARK    1  A    between atoms: C_1  and  N_2
REMARK    2  A    between atoms: N_2  and  C_3
REMARK    3  A    between atoms: C_4  and  C_6
REMARK    4  A    between atoms: C_6  and  O_7
REMARK    5  A    between atoms: O_7  and  C_8
REMARK    6  A    between atoms: C_8  and  C_9
REMARK    7  A    between atoms: N_15  and  C_16
REMARK    8  A    between atoms: C_16  and  C_17
REMARK                            x       y       z     vdW  Elec       q    Type
REMARK                         _______ _______ _______ _____ _____    ______ ____
ROOT
ATOM      1  C   UNL     1       3.190   5.481  17.838  0.00  0.00    +0.000 C 
ATOM      2  C   UNL     1       3.917   5.449  19.202  0.00  0.00    +0.000 C 
ATOM      3  C   UNL     1       5.377   5.264  18.833  0.00  0.00    +0.000 C 
ATOM      4  O   UNL     1       6.288   5.692  19.842  0.00  0.00    +0.000 OA
ATOM      5  C   UNL     1       7.639   5.628  19.342  0.00  0.00    +0.000 C 
ATOM      6  C   UNL     1       7.820   6.396  18.009  0.00  0.00    +0.000 C 
ATOM      7  N   UNL     1       6.843   6.031  16.939  0.00  0.00    +0.000 NA
ATOM      8  C   UNL     1       5.515   6.152  17.586  0.00  0.00    +0.000 C 
ATOM      9  C   UNL     1       4.248   5.874  16.782  0.00  0.00    +0.000 C 
ENDROOT
BRANCH   1  10
ATOM     10  C   UNL     1       2.545   4.142  17.469  0.00  0.00    +0.000 C 
BRANCH  10  11
ATOM     11  O   UNL     1       1.435   3.918  18.327  0.00  0.00    +0.000 OA
BRANCH  11  12
ATOM     12  C   UNL     1       1.390   2.582  18.809  0.00  0.00    +0.000 C 
BRANCH  12  16
ATOM     13  C   UNL     1       4.603   1.766  20.731  0.00  0.00    +0.000 C 
ATOM     14  N   UNL     1       3.258   2.222  20.438  0.00  0.00    +0.000 N 
ATOM     15  C   UNL     1       2.533   2.957  21.462  0.00  0.00    +0.000 C 
ATOM     16  C   UNL     1       2.787   2.045  19.138  0.00  0.00    +0.000 C 
ATOM     17  O   UNL     1       3.439   1.439  18.283  0.00  0.00    +0.000 OA
ENDBRANCH  12  16
ENDBRANCH  11  12
ENDBRANCH  10  11
ENDBRANCH   1  10
BRANCH   7  18
ATOM     18  C   UNL     1       7.089   4.672  16.409  0.00  0.00    +0.000 C 
BRANCH  18  19
ATOM     19  C   UNL     1       6.978   4.565  14.925  0.00  0.00    +0.000 A 
ATOM     20  C   UNL     1       7.548   5.246  13.872  0.00  0.00    +0.000 A 
ATOM     21  C   UNL     1       6.989   4.688  12.693  0.00  0.00    +0.000 A 
ATOM     22  C   UNL     1       6.124   3.705  13.102  0.00  0.00    +0.000 A 
ATOM     23  O   UNL     1       6.109   3.616  14.459  0.00  0.00    +0.000 OA
ENDBRANCH  18  19
ENDBRANCH   7  18
TORSDOF 6
ENDMDL
MODEL 7
REMARK VINA RESULT:      -6.9      1.096      1.117
REMARK  Name = 
REMARK  8 active torsions:
REMARK  status: ('A' for Active; 'I' for Inactive)
REMARK    1  A    between atoms: C_1  and  N_2
REMARK    2  A    between atoms: N_2  and  C_3
REMARK    3  A    between atoms: C_4  and  C_6
REMARK    4  A    between atoms: C_6  and  O_7
REMARK    5  A    between atoms: O_7  and  C_8
REMARK    6  A    between atoms: C_8  and  C_9
REMARK    7  A    between atoms: N_15  and  C_16
REMARK    8  A    between atoms: C_16  and  C_17
REMARK                            x       y       z     vdW  Elec       q    Type
REMARK                         _______ _______ _______ _____ _____    ______ ____
ROOT
ATOM      1  C   UNL     1       3.213   6.644  18.385  0.00  0.00    +0.000 C 
ATOM      2  C   UNL     1       4.171   5.893  19.338  0.00  0.00    +0.000 C 
ATOM      3  C   UNL     1       5.198   5.272  18.409  0.00  0.00    +0.000 C 
ATOM      4  O   UNL     1       6.435   4.959  19.042  0.00  0.00    +0.000 OA
ATOM      5  C   UNL     1       7.394   4.527  18.055  0.00  0.00    +0.000 C 
ATOM      6  C   UNL     1       7.557   5.541  16.896  0.00  0.00    +0.000 C 
ATOM      7  N   UNL     1       6.278   5.955  16.244  0.00  0.00    +0.000 NA
ATOM      8  C   UNL     1       5.406   6.380  17.364  0.00  0.00    +0.000 C 
ATOM      9  C   UNL     1       3.999   6.899  17.079  0.00  0.00    +0.000 C 
ENDROOT
BRANCH   1  10
ATOM     10  C   UNL     1       1.929   5.864  18.086  0.00  0.00    +0.000 C 
BRANCH  10  11
ATOM     11  O   UNL     1       2.280   4.561  17.642  0.00  0.00    +0.000 OA
BRANCH  11  12
ATOM     12  C   UNL     1       1.392   3.568  18.139  0.00  0.00    +0.000 C 
BRANCH  12  16
ATOM     13  C   UNL     1       2.693   2.514  21.586  0.00  0.00    +0.000 C 
ATOM     14  N   UNL     1       2.615   2.718  20.152  0.00  0.00    +0.000 N 
ATOM     15  C   UNL     1       3.611   2.083  19.304  0.00  0.00    +0.000 C 
ATOM     16  C   UNL     1       1.508   3.405  19.658  0.00  0.00    +0.000 C 
ATOM     17  O   UNL     1       0.665   3.910  20.405  0.00  0.00    +0.000 OA
ENDBRANCH  12  16
ENDBRANCH  11  12
ENDBRANCH  10  11
ENDBRANCH   1  10
BRANCH   7  18
ATOM     18  C   UNL     1       5.683   4.857  15.451  0.00  0.00    +0.000 C 
BRANCH  18  19
ATOM     19  C   UNL     1       6.332   4.637  14.126  0.00  0.00    +0.000 A 
ATOM     20  C   UNL     1       6.161   3.713  13.119  0.00  0.00    +0.000 A 
ATOM     21  C   UNL     1       7.131   4.022  12.131  0.00  0.00    +0.000 A 
ATOM     22  C   UNL     1       7.822   5.113  12.595  0.00  0.00    +0.000 A 
ATOM     23  O   UNL     1       7.344   5.501  13.807  0.00  0.00    +0.000 OA
ENDBRANCH  18  19
ENDBRANCH   7  18
TORSDOF 6
ENDMDL
MODEL 8
REMARK VINA RESULT:      -6.9      2.365      6.212
REMARK  Name = 
REMARK  8 active torsions:
REMARK  status: ('A' for Active; 'I' for Inactive)
REMARK    1  A    between atoms: C_1  and  N_2
REMARK    2  A    between atoms: N_2  and  C_3
REMARK    3  A    between atoms: C_4  and  C_6
REMARK    4  A    between atoms: C_6  and  O_7
REMARK    5  A    between atoms: O_7  and  C_8
REMARK    6  A    between atoms: C_8  and  C_9
REMARK    7  A    between atoms: N_15  and  C_16
REMARK    8  A    between atoms: C_16  and  C_17
REMARK                            x       y       z     vdW  Elec       q    Type
REMARK                         _______ _______ _______ _____ _____    ______ ____
ROOT
ATOM      1  C   UNL     1       3.837   2.970  17.157  0.00  0.00    +0.000 C 
ATOM      2  C   UNL     1       3.863   2.225  18.511  0.00  0.00    +0.000 C 
ATOM      3  C   UNL     1       3.336   3.247  19.501  0.00  0.00    +0.000 C 
ATOM      4  O   UNL     1       2.802   2.676  20.692  0.00  0.00    +0.000 OA
ATOM      5  C   UNL     1       2.184   3.705  21.493  0.00  0.00    +0.000 C 
ATOM      6  C   UNL     1       1.137   4.529  20.705  0.00  0.00    +0.000 C 
ATOM      7  N   UNL     1       1.630   5.092  19.412  0.00  0.00    +0.000 NA
ATOM      8  C   UNL     1       2.220   3.935  18.699  0.00  0.00    +0.000 C 
ATOM      9  C   UNL     1       2.816   4.121  17.306  0.00  0.00    +0.000 C 
ENDROOT
BRANCH   1  10
ATOM     10  C   UNL     1       5.205   3.525  16.749  0.00  0.00    +0.000 C 
BRANCH  10  11
ATOM     11  O   UNL     1       5.101   4.083  15.446  0.00  0.00    +0.000 OA
BRANCH  11  12
ATOM     12  C   UNL     1       6.028   5.140  15.240  0.00  0.00    +0.000 C 
BRANCH  12  16
ATOM     13  C   UNL     1       7.736   6.399  18.430  0.00  0.00    +0.000 C 
ATOM     14  N   UNL     1       6.766   6.242  17.365  0.00  0.00    +0.000 N 
ATOM     15  C   UNL     1       5.666   7.189  17.278  0.00  0.00    +0.000 C 
ATOM     16  C   UNL     1       7.020   5.267  16.401  0.00  0.00    +0.000 C 
ATOM     17  O   UNL     1       7.978   4.494  16.490  0.00  0.00    +0.000 OA
ENDBRANCH  12  16
ENDBRANCH  11  12
ENDBRANCH  10  11
ENDBRANCH   1  10
BRANCH   7  18
ATOM     18  C   UNL     1       2.608   6.182  19.622  0.00  0.00    +0.000 C 
BRANCH  18  19
ATOM     19  C   UNL     1       2.159   7.513  19.121  0.00  0.00    +0.000 A 
ATOM     20  C   UNL     1       2.212   8.142  17.896  0.00  0.00    +0.000 A 
ATOM     21  C   UNL     1       1.650   9.429  18.088  0.00  0.00    +0.000 A 
ATOM     22  C   UNL     1       1.287   9.500  19.410  0.00  0.00    +0.000 A 
ATOM     23  O   UNL     1       1.587   8.339  20.050  0.00  0.00    +0.000 OA
ENDBRANCH  18  19
ENDBRANCH   7  18
TORSDOF 6
ENDMDL
MODEL 9
REMARK VINA RESULT:      -6.9      2.593      6.769
REMARK  Name = 
REMARK  8 active torsions:
REMARK  status: ('A' for Active; 'I' for Inactive)
REMARK    1  A    between atoms: C_1  and  N_2
REMARK    2  A    between atoms: N_2  and  C_3
REMARK    3  A    between atoms: C_4  and  C_6
REMARK    4  A    between atoms: C_6  and  O_7
REMARK    5  A    between atoms: O_7  and  C_8
REMARK    6  A    between atoms: C_8  and  C_9
REMARK    7  A    between atoms: N_15  and  C_16
REMARK    8  A    between atoms: C_16  and  C_17
REMARK                            x       y       z     vdW  Elec       q    Type
REMARK                         _______ _______ _______ _____ _____    ______ ____
ROOT
ATOM      1  C   UNL     1       4.409   3.566  17.469  0.00  0.00    +0.000 C 
ATOM      2  C   UNL     1       4.338   2.686  18.738  0.00  0.00    +0.000 C 
ATOM      3  C   UNL     1       3.537   3.523  19.719  0.00  0.00    +0.000 C 
ATOM      4  O   UNL     1       2.916   2.766  20.753  0.00  0.00    +0.000 OA
ATOM      5  C   UNL     1       2.053   3.618  21.534  0.00  0.00    +0.000 C 
ATOM      6  C   UNL     1       1.031   4.391  20.665  0.00  0.00    +0.000 C 
ATOM      7  N   UNL     1       1.627   5.147  19.523  0.00  0.00    +0.000 NA
ATOM      8  C   UNL     1       2.467   4.154  18.812  0.00  0.00    +0.000 C 
ATOM      9  C   UNL     1       3.230   4.562  17.555  0.00  0.00    +0.000 C 
ENDROOT
BRANCH   1  10
ATOM     10  C   UNL     1       5.733   4.324  17.336  0.00  0.00    +0.000 C 
BRANCH  10  11
ATOM     11  O   UNL     1       5.731   5.034  16.105  0.00  0.00    +0.000 OA
BRANCH  11  12
ATOM     12  C   UNL     1       5.703   4.163  14.982  0.00  0.00    +0.000 C 
BRANCH  12  16
ATOM     13  C   UNL     1       7.535   4.425  11.627  0.00  0.00    +0.000 C 
ATOM     14  N   UNL     1       6.538   4.082  12.623  0.00  0.00    +0.000 N 
ATOM     15  C   UNL     1       5.490   3.140  12.263  0.00  0.00    +0.000 C 
ATOM     16  C   UNL     1       6.721   4.575  13.913  0.00  0.00    +0.000 C 
ATOM     17  O   UNL     1       7.637   5.353  14.193  0.00  0.00    +0.000 OA
ENDBRANCH  12  16
ENDBRANCH  11  12
ENDBRANCH  10  11
ENDBRANCH   1  10
BRANCH   7  18
ATOM     18  C   UNL     1       2.405   6.318  19.983  0.00  0.00    +0.000 C 
BRANCH  18  19
ATOM     19  C   UNL     1       2.100   7.582  19.252  0.00  0.00    +0.000 A 
ATOM     20  C   UNL     1       2.381   8.047  17.986  0.00  0.00    +0.000 A 
ATOM     21  C   UNL     1       1.847   9.359  17.920  0.00  0.00    +0.000 A 
ATOM     22  C   UNL     1       1.272   9.605  19.141  0.00  0.00    +0.000 A 
ATOM     23  O   UNL     1       1.415   8.531  19.961  0.00  0.00    +0.000 OA
ENDBRANCH  18  19
ENDBRANCH   7  18
TORSDOF 6
ENDMDL
