MODEL 1
REMARK VINA RESULT:      -7.5      0.000      0.000
REMARK  Name = 
REMARK  7 active torsions:
REMARK  status: ('A' for Active; 'I' for Inactive)
REMARK    1  A    between atoms: C_2  and  C_12
REMARK    2  A    between atoms: N_3  and  C_4
REMARK    3  A    between atoms: C_15  and  O_16
REMARK    4  A    between atoms: O_16  and  C_17
REMARK    5  A    between atoms: C_20  and  O_21
REMARK    6  A    between atoms: O_21  and  C_22
REMARK    7  A    between atoms: C_22  and  C_23
REMARK                            x       y       z     vdW  Elec       q    Type
REMARK                         _______ _______ _______ _____ _____    ______ ____
ROOT
ATOM      1  C   UNL     1       2.885   7.569  17.888  0.00  0.00    +0.000 A 
ATOM      2  C   UNL     1       4.074   7.694  17.169  0.00  0.00    +0.000 A 
ATOM      3  C   UNL     1       4.849   6.559  16.938  0.00  0.00    +0.000 A 
ATOM      4  C   UNL     1       4.443   5.293  17.390  0.00  0.00    +0.000 A 
ATOM      5  C   UNL     1       3.239   5.160  18.099  0.00  0.00    +0.000 A 
ATOM      6  C   UNL     1       2.477   6.309  18.356  0.00  0.00    +0.000 A 
ENDROOT
BRANCH   1   8
ATOM      7  O   UNL     1       2.293   9.824  17.686  0.00  0.00    +0.000 OA
ATOM      8  C   UNL     1       2.056   8.753  18.231  0.00  0.00    +0.000 C 
ATOM      9  N   UNL     1       1.141   8.565  19.257  0.00  0.00    +0.000 N 
ATOM     10  H   UNL     1       1.423   7.867  19.941  0.00  0.00    +0.000 HD
BRANCH   9  11
ATOM     11  C   UNL     1       0.392   9.662  19.775  0.00  0.00    +0.000 A 
ATOM     12  C   UNL     1      -0.553  10.371  19.015  0.00  0.00    +0.000 A 
ATOM     13 CL   UNL     1      -1.091   9.870  17.454  0.00  0.00    +0.000 Cl
ATOM     14  C   UNL     1      -1.187  11.460  19.606  0.00  0.00    +0.000 A 
ATOM     15  N   UNL     1      -0.966  11.876  20.877  0.00  0.00    +0.000 NA
ATOM     16  C   UNL     1      -0.078  11.155  21.598  0.00  0.00    +0.000 A 
ATOM     17  C   UNL     1       0.601  10.048  21.105  0.00  0.00    +0.000 A 
ATOM     18 CL   UNL     1       1.719   9.218  22.126  0.00  0.00    +0.000 Cl
ENDBRANCH   9  11
ENDBRANCH   1   8
BRANCH   4  19
ATOM     19  O   UNL     1       5.351   4.308  17.111  0.00  0.00    +0.000 OA
BRANCH  19  20
ATOM     20  C   UNL     1       6.591   4.705  16.550  0.00  0.00    +0.000 C 
ATOM     21  F   UNL     1       7.603   4.312  17.364  0.00  0.00    +0.000 F 
ATOM     22  F   UNL     1       6.739   3.993  15.398  0.00  0.00    +0.000 F 
ENDBRANCH  19  20
ENDBRANCH   4  19
BRANCH   5  23
ATOM     23  O   UNL     1       2.902   3.925  18.590  0.00  0.00    +0.000 OA
BRANCH  23  24
ATOM     24  C   UNL     1       3.359   3.616  19.912  0.00  0.00    +0.000 C 
BRANCH  24  25
ATOM     25  C   UNL     1       2.232   3.831  20.880  0.00  0.00    +0.000 C 
ATOM     26  C   UNL     1       0.816   3.438  20.536  0.00  0.00    +0.000 C 
ATOM     27  C   UNL     1       1.589   2.637  21.545  0.00  0.00    +0.000 C 
ENDBRANCH  24  25
ENDBRANCH  23  24
ENDBRANCH   5  23
TORSDOF 7
ENDMDL
MODEL 2
REMARK VINA RESULT:      -7.4      4.477      6.702
REMARK  Name = 
REMARK  7 active torsions:
REMARK  status: ('A' for Active; 'I' for Inactive)
REMARK    1  A    between atoms: C_2  and  C_12
REMARK    2  A    between atoms: N_3  and  C_4
REMARK    3  A    between atoms: C_15  and  O_16
REMARK    4  A    between atoms: O_16  and  C_17
REMARK    5  A    between atoms: C_20  and  O_21
REMARK    6  A    between atoms: O_21  and  C_22
REMARK    7  A    between atoms: C_22  and  C_23
REMARK                            x       y       z     vdW  Elec       q    Type
REMARK                         _______ _______ _______ _____ _____    ______ ____
ROOT
ATOM      1  C   UNL     1       5.250   4.107  16.474  0.00  0.00    +0.000 A 
ATOM      2  C   UNL     1       5.363   3.555  15.198  0.00  0.00    +0.000 A 
ATOM      3  C   UNL     1       6.320   4.063  14.322  0.00  0.00    +0.000 A 
ATOM      4  C   UNL     1       7.189   5.097  14.709  0.00  0.00    +0.000 A 
ATOM      5  C   UNL     1       7.090   5.643  15.998  0.00  0.00    +0.000 A 
ATOM      6  C   UNL     1       6.104   5.151  16.865  0.00  0.00    +0.000 A 
ENDROOT
BRANCH   1   8
ATOM      7  O   UNL     1       3.202   3.098  16.988  0.00  0.00    +0.000 OA
ATOM      8  C   UNL     1       4.199   3.660  17.424  0.00  0.00    +0.000 C 
ATOM      9  N   UNL     1       4.388   4.038  18.746  0.00  0.00    +0.000 N 
ATOM     10  H   UNL     1       4.905   4.906  18.859  0.00  0.00    +0.000 HD
BRANCH   9  11
ATOM     11  C   UNL     1       3.379   3.795  19.723  0.00  0.00    +0.000 A 
ATOM     12  C   UNL     1       3.403   2.692  20.593  0.00  0.00    +0.000 A 
ATOM     13 CL   UNL     1       4.754   1.629  20.746  0.00  0.00    +0.000 Cl
ATOM     14  C   UNL     1       2.337   2.525  21.472  0.00  0.00    +0.000 A 
ATOM     15  N   UNL     1       1.278   3.367  21.558  0.00  0.00    +0.000 NA
ATOM     16  C   UNL     1       1.297   4.440  20.735  0.00  0.00    +0.000 A 
ATOM     17  C   UNL     1       2.316   4.703  19.830  0.00  0.00    +0.000 A 
ATOM     18 CL   UNL     1       2.216   6.104  18.827  0.00  0.00    +0.000 Cl
ENDBRANCH   9  11
ENDBRANCH   1   8
BRANCH   4  19
ATOM     19  O   UNL     1       8.028   5.495  13.704  0.00  0.00    +0.000 OA
BRANCH  19  20
ATOM     20  C   UNL     1       7.497   5.540  12.390  0.00  0.00    +0.000 C 
ATOM     21  F   UNL     1       8.132   6.504  11.678  0.00  0.00    +0.000 F 
ATOM     22  F   UNL     1       7.828   4.359  11.799  0.00  0.00    +0.000 F 
ENDBRANCH  19  20
ENDBRANCH   4  19
BRANCH   5  23
ATOM     23  O   UNL     1       7.901   6.699  16.324  0.00  0.00    +0.000 OA
BRANCH  23  24
ATOM     24  C   UNL     1       7.474   7.520  17.417  0.00  0.00    +0.000 C 
BRANCH  24  25
ATOM     25  C   UNL     1       8.393   8.702  17.528  0.00  0.00    +0.000 C 
ATOM     26  C   UNL     1       7.894  10.038  18.022  0.00  0.00    +0.000 C 
ATOM     27  C   UNL     1       8.788   9.206  18.896  0.00  0.00    +0.000 C 
ENDBRANCH  24  25
ENDBRANCH  23  24
ENDBRANCH   5  23
TORSDOF 7
ENDMDL
MODEL 3
REMARK VINA RESULT:      -7.3      4.553      6.635
REMARK  Name = 
REMARK  7 active torsions:
REMARK  status: ('A' for Active; 'I' for Inactive)
REMARK    1  A    between atoms: C_2  and  C_12
REMARK    2  A    between atoms: N_3  and  C_4
REMARK    3  A    between atoms: C_15  and  O_16
REMARK    4  A    between atoms: O_16  and  C_17
REMARK    5  A    between atoms: C_20  and  O_21
REMARK    6  A    between atoms: O_21  and  C_22
REMARK    7  A    between atoms: C_22  and  C_23
REMARK                            x       y       z     vdW  Elec       q    Type
REMARK                         _______ _______ _______ _____ _____    ______ ____
ROOT
ATOM      1  C   UNL     1       5.299   4.140  16.561  0.00  0.00    +0.000 A 
ATOM      2  C   UNL     1       5.426   3.546  15.306  0.00  0.00    +0.000 A 
ATOM      3  C   UNL     1       6.378   4.040  14.415  0.00  0.00    +0.000 A 
ATOM      4  C   UNL     1       7.226   5.103  14.768  0.00  0.00    +0.000 A 
ATOM      5  C   UNL     1       7.112   5.692  16.037  0.00  0.00    +0.000 A 
ATOM      6  C   UNL     1       6.133   5.212  16.919  0.00  0.00    +0.000 A 
ENDROOT
BRANCH   1   8
ATOM      7  O   UNL     1       3.200   3.252  17.093  0.00  0.00    +0.000 OA
ATOM      8  C   UNL     1       4.252   3.708  17.524  0.00  0.00    +0.000 C 
ATOM      9  N   UNL     1       4.519   3.979  18.858  0.00  0.00    +0.000 N 
ATOM     10  H   UNL     1       5.105   4.797  19.006  0.00  0.00    +0.000 HD
BRANCH   9  11
ATOM     11  C   UNL     1       3.531   3.745  19.859  0.00  0.00    +0.000 A 
ATOM     12  C   UNL     1       2.507   4.660  20.155  0.00  0.00    +0.000 A 
ATOM     13 CL   UNL     1       2.177   6.062  19.204  0.00  0.00    +0.000 Cl
ATOM     14  C   UNL     1       1.628   4.351  21.188  0.00  0.00    +0.000 A 
ATOM     15  N   UNL     1       1.683   3.213  21.924  0.00  0.00    +0.000 NA
ATOM     16  C   UNL     1       2.656   2.333  21.596  0.00  0.00    +0.000 A 
ATOM     17  C   UNL     1       3.576   2.542  20.577  0.00  0.00    +0.000 A 
ATOM     18 CL   UNL     1       4.777   1.343  20.263  0.00  0.00    +0.000 Cl
ENDBRANCH   9  11
ENDBRANCH   1   8
BRANCH   4  19
ATOM     19  O   UNL     1       8.061   5.480  13.753  0.00  0.00    +0.000 OA
BRANCH  19  20
ATOM     20  C   UNL     1       7.517   5.528  12.444  0.00  0.00    +0.000 C 
ATOM     21  F   UNL     1       8.153   6.486  11.724  0.00  0.00    +0.000 F 
ATOM     22  F   UNL     1       7.833   4.343  11.851  0.00  0.00    +0.000 F 
ENDBRANCH  19  20
ENDBRANCH   4  19
BRANCH   5  23
ATOM     23  O   UNL     1       7.904   6.773  16.329  0.00  0.00    +0.000 OA
BRANCH  23  24
ATOM     24  C   UNL     1       7.557   7.522  17.499  0.00  0.00    +0.000 C 
BRANCH  24  25
ATOM     25  C   UNL     1       8.464   8.713  17.603  0.00  0.00    +0.000 C 
ATOM     26  C   UNL     1       7.934  10.070  17.996  0.00  0.00    +0.000 C 
ATOM     27  C   UNL     1       8.776   9.290  18.964  0.00  0.00    +0.000 C 
ENDBRANCH  24  25
ENDBRANCH  23  24
ENDBRANCH   5  23
TORSDOF 7
ENDMDL
MODEL 4
REMARK VINA RESULT:      -7.3      1.464      2.414
REMARK  Name = 
REMARK  7 active torsions:
REMARK  status: ('A' for Active; 'I' for Inactive)
REMARK    1  A    between atoms: C_2  and  C_12
REMARK    2  A    between atoms: N_3  and  C_4
REMARK    3  A    between atoms: C_15  and  O_16
REMARK    4  A    between atoms: O_16  and  C_17
REMARK    5  A    between atoms: C_20  and  O_21
REMARK    6  A    between atoms: O_21  and  C_22
REMARK    7  A    between atoms: C_22  and  C_23
REMARK                            x       y       z     vdW  Elec       q    Type
REMARK                         _______ _______ _______ _____ _____    ______ ____
ROOT
ATOM      1  C   UNL     1       2.429   8.228  18.253  0.00  0.00    +0.000 A 
ATOM      2  C   UNL     1       3.398   8.060  17.264  0.00  0.00    +0.000 A 
ATOM      3  C   UNL     1       4.204   6.923  17.290  0.00  0.00    +0.000 A 
ATOM      4  C   UNL     1       4.039   5.934  18.275  0.00  0.00    +0.000 A 
ATOM      5  C   UNL     1       3.054   6.092  19.261  0.00  0.00    +0.000 A 
ATOM      6  C   UNL     1       2.266   7.252  19.249  0.00  0.00    +0.000 A 
ENDROOT
BRANCH   1   8
ATOM      7  O   UNL     1       2.057  10.514  17.918  0.00  0.00    +0.000 OA
ATOM      8  C   UNL     1       1.594   9.455  18.321  0.00  0.00    +0.000 C 
ATOM      9  N   UNL     1       0.373   9.311  18.965  0.00  0.00    +0.000 N 
ATOM     10  H   UNL     1       0.366   8.595  19.686  0.00  0.00    +0.000 HD
BRANCH   9  11
ATOM     11  C   UNL     1      -0.452  10.446  19.222  0.00  0.00    +0.000 A 
ATOM     12  C   UNL     1      -0.263  11.297  20.323  0.00  0.00    +0.000 A 
ATOM     13 CL   UNL     1       1.110  11.218  21.366  0.00  0.00    +0.000 Cl
ATOM     14  C   UNL     1      -1.161  12.344  20.505  0.00  0.00    +0.000 A 
ATOM     15  N   UNL     1      -2.203  12.611  19.679  0.00  0.00    +0.000 NA
ATOM     16  C   UNL     1      -2.340  11.798  18.607  0.00  0.00    +0.000 A 
ATOM     17  C   UNL     1      -1.494  10.732  18.330  0.00  0.00    +0.000 A 
ATOM     18 CL   UNL     1      -1.783   9.763  16.931  0.00  0.00    +0.000 Cl
ENDBRANCH   9  11
ENDBRANCH   1   8
BRANCH   4  19
ATOM     19  O   UNL     1       4.948   4.917  18.169  0.00  0.00    +0.000 OA
BRANCH  19  20
ATOM     20  C   UNL     1       4.579   3.790  17.391  0.00  0.00    +0.000 C 
ATOM     21  F   UNL     1       3.231   3.764  17.243  0.00  0.00    +0.000 F 
ATOM     22  F   UNL     1       5.088   3.997  16.145  0.00  0.00    +0.000 F 
ENDBRANCH  19  20
ENDBRANCH   4  19
BRANCH   5  23
ATOM     23  O   UNL     1       2.962   5.147  20.251  0.00  0.00    +0.000 OA
BRANCH  23  24
ATOM     24  C   UNL     1       1.695   5.029  20.908  0.00  0.00    +0.000 C 
BRANCH  24  25
ATOM     25  C   UNL     1       1.139   3.658  20.653  0.00  0.00    +0.000 C 
ATOM     26  C   UNL     1       2.026   2.526  20.194  0.00  0.00    +0.000 C 
ATOM     27  C   UNL     1       1.489   2.531  21.597  0.00  0.00    +0.000 C 
ENDBRANCH  24  25
ENDBRANCH  23  24
ENDBRANCH   5  23
TORSDOF 7
ENDMDL
MODEL 5
REMARK VINA RESULT:      -7.2      0.729      1.015
REMARK  Name = 
REMARK  7 active torsions:
REMARK  status: ('A' for Active; 'I' for Inactive)
REMARK    1  A    between atoms: C_2  and  C_12
REMARK    2  A    between atoms: N_3  and  C_4
REMARK    3  A    between atoms: C_15  and  O_16
REMARK    4  A    between atoms: O_16  and  C_17
REMARK    5  A    between atoms: C_20  and  O_21
REMARK    6  A    between atoms: O_21  and  C_22
REMARK    7  A    between atoms: C_22  and  C_23
REMARK                            x       y       z     vdW  Elec       q    Type
REMARK                         _______ _______ _______ _____ _____    ______ ____
ROOT
ATOM      1  C   UNL     1       2.791   7.430  17.985  0.00  0.00    +0.000 A 
ATOM      2  C   UNL     1       4.168   7.493  17.775  0.00  0.00    +0.000 A 
ATOM      3  C   UNL     1       4.878   6.311  17.573  0.00  0.00    +0.000 A 
ATOM      4  C   UNL     1       4.230   5.065  17.549  0.00  0.00    +0.000 A 
ATOM      5  C   UNL     1       2.841   4.999  17.743  0.00  0.00    +0.000 A 
ATOM      6  C   UNL     1       2.136   6.188  17.976  0.00  0.00    +0.000 A 
ENDROOT
BRANCH   1   8
ATOM      7  O   UNL     1       2.250   9.687  17.685  0.00  0.00    +0.000 OA
ATOM      8  C   UNL     1       1.994   8.649  18.281  0.00  0.00    +0.000 C 
ATOM      9  N   UNL     1       1.086   8.529  19.324  0.00  0.00    +0.000 N 
ATOM     10  H   UNL     1       1.358   7.857  20.037  0.00  0.00    +0.000 HD
BRANCH   9  11
ATOM     11  C   UNL     1       0.369   9.666  19.798  0.00  0.00    +0.000 A 
ATOM     12  C   UNL     1      -0.554  10.374  19.009  0.00  0.00    +0.000 A 
ATOM     13 CL   UNL     1      -1.103   9.831  17.466  0.00  0.00    +0.000 Cl
ATOM     14  C   UNL     1      -1.157  11.502  19.557  0.00  0.00    +0.000 A 
ATOM     15  N   UNL     1      -0.927  11.959  20.813  0.00  0.00    +0.000 NA
ATOM     16  C   UNL     1      -0.062  11.239  21.563  0.00  0.00    +0.000 A 
ATOM     17  C   UNL     1       0.585  10.095  21.114  0.00  0.00    +0.000 A 
ATOM     18 CL   UNL     1       1.675   9.271  22.169  0.00  0.00    +0.000 Cl
ENDBRANCH   9  11
ENDBRANCH   1   8
BRANCH   4  19
ATOM     19  O   UNL     1       5.092   4.016  17.386  0.00  0.00    +0.000 OA
BRANCH  19  20
ATOM     20  C   UNL     1       5.564   3.756  16.074  0.00  0.00    +0.000 C 
ATOM     21  F   UNL     1       4.922   4.565  15.194  0.00  0.00    +0.000 F 
ATOM     22  F   UNL     1       6.870   4.139  16.050  0.00  0.00    +0.000 F 
ENDBRANCH  19  20
ENDBRANCH   4  19
BRANCH   5  23
ATOM     23  O   UNL     1       2.245   3.765  17.786  0.00  0.00    +0.000 OA
BRANCH  23  24
ATOM     24  C   UNL     1       1.344   3.528  18.873  0.00  0.00    +0.000 C 
BRANCH  24  25
ATOM     25  C   UNL     1       2.137   3.175  20.097  0.00  0.00    +0.000 C 
ATOM     26  C   UNL     1       2.169   4.086  21.300  0.00  0.00    +0.000 C 
ATOM     27  C   UNL     1       1.411   2.791  21.365  0.00  0.00    +0.000 C 
ENDBRANCH  24  25
ENDBRANCH  23  24
ENDBRANCH   5  23
TORSDOF 7
ENDMDL
MODEL 6
REMARK VINA RESULT:      -7.2      1.404      1.640
REMARK  Name = 
REMARK  7 active torsions:
REMARK  status: ('A' for Active; 'I' for Inactive)
REMARK    1  A    between atoms: C_2  and  C_12
REMARK    2  A    between atoms: N_3  and  C_4
REMARK    3  A    between atoms: C_15  and  O_16
REMARK    4  A    between atoms: O_16  and  C_17
REMARK    5  A    between atoms: C_20  and  O_21
REMARK    6  A    between atoms: O_21  and  C_22
REMARK    7  A    between atoms: C_22  and  C_23
REMARK                            x       y       z     vdW  Elec       q    Type
REMARK                         _______ _______ _______ _____ _____    ______ ____
ROOT
ATOM      1  C   UNL     1       2.489   8.110  18.299  0.00  0.00    +0.000 A 
ATOM      2  C   UNL     1       3.500   7.995  17.346  0.00  0.00    +0.000 A 
ATOM      3  C   UNL     1       4.332   6.877  17.371  0.00  0.00    +0.000 A 
ATOM      4  C   UNL     1       4.152   5.855  18.319  0.00  0.00    +0.000 A 
ATOM      5  C   UNL     1       3.125   5.959  19.268  0.00  0.00    +0.000 A 
ATOM      6  C   UNL     1       2.310   7.101  19.259  0.00  0.00    +0.000 A 
ENDROOT
BRANCH   1   8
ATOM      7  O   UNL     1       2.050  10.383  17.952  0.00  0.00    +0.000 OA
ATOM      8  C   UNL     1       1.621   9.315  18.370  0.00  0.00    +0.000 C 
ATOM      9  N   UNL     1       0.415   9.143  19.034  0.00  0.00    +0.000 N 
ATOM     10  H   UNL     1       0.438   8.433  19.761  0.00  0.00    +0.000 HD
BRANCH   9  11
ATOM     11  C   UNL     1      -0.437  10.257  19.294  0.00  0.00    +0.000 A 
ATOM     12  C   UNL     1      -1.390  10.725  18.374  0.00  0.00    +0.000 A 
ATOM     13 CL   UNL     1      -1.809   9.885  16.925  0.00  0.00    +0.000 Cl
ATOM     14  C   UNL     1      -2.131  11.853  18.712  0.00  0.00    +0.000 A 
ATOM     15  N   UNL     1      -2.007  12.527  19.881  0.00  0.00    +0.000 NA
ATOM     16  C   UNL     1      -1.108  12.035  20.764  0.00  0.00    +0.000 A 
ATOM     17  C   UNL     1      -0.327  10.912  20.528  0.00  0.00    +0.000 A 
ATOM     18 CL   UNL     1       0.793  10.391  21.734  0.00  0.00    +0.000 Cl
ENDBRANCH   9  11
ENDBRANCH   1   8
BRANCH   4  19
ATOM     19  O   UNL     1       5.089   4.863  18.219  0.00  0.00    +0.000 OA
BRANCH  19  20
ATOM     20  C   UNL     1       4.927   3.913  17.179  0.00  0.00    +0.000 C 
ATOM     21  F   UNL     1       3.684   4.032  16.648  0.00  0.00    +0.000 F 
ATOM     22  F   UNL     1       5.792   4.270  16.190  0.00  0.00    +0.000 F 
ENDBRANCH  19  20
ENDBRANCH   4  19
BRANCH   5  23
ATOM     23  O   UNL     1       3.017   4.983  20.225  0.00  0.00    +0.000 OA
BRANCH  23  24
ATOM     24  C   UNL     1       1.753   4.317  20.321  0.00  0.00    +0.000 C 
BRANCH  24  25
ATOM     25  C   UNL     1       1.503   3.559  19.049  0.00  0.00    +0.000 C 
ATOM     26  C   UNL     1       2.069   2.176  18.837  0.00  0.00    +0.000 C 
ATOM     27  C   UNL     1       0.596   2.352  19.074  0.00  0.00    +0.000 C 
ENDBRANCH  24  25
ENDBRANCH  23  24
ENDBRANCH   5  23
TORSDOF 7
ENDMDL
MODEL 7
REMARK VINA RESULT:      -7.1      1.578      2.402
REMARK  Name = 
REMARK  7 active torsions:
REMARK  status: ('A' for Active; 'I' for Inactive)
REMARK    1  A    between atoms: C_2  and  C_12
REMARK    2  A    between atoms: N_3  and  C_4
REMARK    3  A    between atoms: C_15  and  O_16
REMARK    4  A    between atoms: O_16  and  C_17
REMARK    5  A    between atoms: C_20  and  O_21
REMARK    6  A    between atoms: O_21  and  C_22
REMARK    7  A    between atoms: C_22  and  C_23
REMARK                            x       y       z     vdW  Elec       q    Type
REMARK                         _______ _______ _______ _____ _____    ______ ____
ROOT
ATOM      1  C   UNL     1       2.239   7.951  18.904  0.00  0.00    +0.000 A 
ATOM      2  C   UNL     1       2.954   8.221  17.738  0.00  0.00    +0.000 A 
ATOM      3  C   UNL     1       3.914   7.309  17.304  0.00  0.00    +0.000 A 
ATOM      4  C   UNL     1       4.154   6.114  18.003  0.00  0.00    +0.000 A 
ATOM      5  C   UNL     1       3.425   5.831  19.168  0.00  0.00    +0.000 A 
ATOM      6  C   UNL     1       2.482   6.766  19.618  0.00  0.00    +0.000 A 
ENDROOT
BRANCH   1   8
ATOM      7  O   UNL     1       0.713   8.672  20.525  0.00  0.00    +0.000 OA
ATOM      8  C   UNL     1       1.258   8.921  19.457  0.00  0.00    +0.000 C 
ATOM      9  N   UNL     1       0.949   9.993  18.632  0.00  0.00    +0.000 N 
ATOM     10  H   UNL     1       1.028   9.789  17.640  0.00  0.00    +0.000 HD
BRANCH   9  11
ATOM     11  C   UNL     1      -0.083  10.910  18.989  0.00  0.00    +0.000 A 
ATOM     12  C   UNL     1       0.082  11.910  19.962  0.00  0.00    +0.000 A 
ATOM     13 CL   UNL     1       1.602  12.301  20.678  0.00  0.00    +0.000 Cl
ATOM     14  C   UNL     1      -1.011  12.715  20.267  0.00  0.00    +0.000 A 
ATOM     15  N   UNL     1      -2.226  12.612  19.675  0.00  0.00    +0.000 NA
ATOM     16  C   UNL     1      -2.348  11.666  18.717  0.00  0.00    +0.000 A 
ATOM     17  C   UNL     1      -1.318  10.818  18.332  0.00  0.00    +0.000 A 
ATOM     18 CL   UNL     1      -1.605   9.643  17.100  0.00  0.00    +0.000 Cl
ENDBRANCH   9  11
ENDBRANCH   1   8
BRANCH   4  19
ATOM     19  O   UNL     1       5.162   5.367  17.456  0.00  0.00    +0.000 OA
BRANCH  19  20
ATOM     20  C   UNL     1       4.933   4.800  16.176  0.00  0.00    +0.000 C 
ATOM     21  F   UNL     1       6.037   4.118  15.780  0.00  0.00    +0.000 F 
ATOM     22  F   UNL     1       3.954   3.868  16.336  0.00  0.00    +0.000 F 
ENDBRANCH  19  20
ENDBRANCH   4  19
BRANCH   5  23
ATOM     23  O   UNL     1       3.729   4.692  19.869  0.00  0.00    +0.000 OA
BRANCH  23  24
ATOM     24  C   UNL     1       3.150   3.473  19.392  0.00  0.00    +0.000 C 
BRANCH  24  25
ATOM     25  C   UNL     1       2.569   2.721  20.554  0.00  0.00    +0.000 C 
ATOM     26  C   UNL     1       2.109   3.438  21.800  0.00  0.00    +0.000 C 
ATOM     27  C   UNL     1       1.095   2.854  20.859  0.00  0.00    +0.000 C 
ENDBRANCH  24  25
ENDBRANCH  23  24
ENDBRANCH   5  23
TORSDOF 7
ENDMDL
MODEL 8
REMARK VINA RESULT:      -7.1      1.424      1.627
REMARK  Name = 
REMARK  7 active torsions:
REMARK  status: ('A' for Active; 'I' for Inactive)
REMARK    1  A    between atoms: C_2  and  C_12
REMARK    2  A    between atoms: N_3  and  C_4
REMARK    3  A    between atoms: C_15  and  O_16
REMARK    4  A    between atoms: O_16  and  C_17
REMARK    5  A    between atoms: C_20  and  O_21
REMARK    6  A    between atoms: O_21  and  C_22
REMARK    7  A    between atoms: C_22  and  C_23
REMARK                            x       y       z     vdW  Elec       q    Type
REMARK                         _______ _______ _______ _____ _____    ______ ____
ROOT
ATOM      1  C   UNL     1       2.428   8.105  18.387  0.00  0.00    +0.000 A 
ATOM      2  C   UNL     1       3.396   7.960  17.394  0.00  0.00    +0.000 A 
ATOM      3  C   UNL     1       4.252   6.861  17.437  0.00  0.00    +0.000 A 
ATOM      4  C   UNL     1       4.140   5.886  18.442  0.00  0.00    +0.000 A 
ATOM      5  C   UNL     1       3.156   6.020  19.433  0.00  0.00    +0.000 A 
ATOM      6  C   UNL     1       2.317   7.143  19.405  0.00  0.00    +0.000 A 
ENDROOT
BRANCH   1   8
ATOM      7  O   UNL     1       1.941  10.358  17.986  0.00  0.00    +0.000 OA
ATOM      8  C   UNL     1       1.538   9.294  18.437  0.00  0.00    +0.000 C 
ATOM      9  N   UNL     1       0.343   9.117  19.120  0.00  0.00    +0.000 N 
ATOM     10  H   UNL     1       0.389   8.426  19.865  0.00  0.00    +0.000 HD
BRANCH   9  11
ATOM     11  C   UNL     1      -0.527  10.221  19.362  0.00  0.00    +0.000 A 
ATOM     12  C   UNL     1      -1.458  10.683  18.418  0.00  0.00    +0.000 A 
ATOM     13 CL   UNL     1      -1.828   9.847  16.954  0.00  0.00    +0.000 Cl
ATOM     14  C   UNL     1      -2.219  11.803  18.741  0.00  0.00    +0.000 A 
ATOM     15  N   UNL     1      -2.134  12.472  19.916  0.00  0.00    +0.000 NA
ATOM     16  C   UNL     1      -1.255  11.985  20.821  0.00  0.00    +0.000 A 
ATOM     17  C   UNL     1      -0.457  10.871  20.601  0.00  0.00    +0.000 A 
ATOM     18 CL   UNL     1       0.634  10.355  21.836  0.00  0.00    +0.000 Cl
ENDBRANCH   9  11
ENDBRANCH   1   8
BRANCH   4  19
ATOM     19  O   UNL     1       5.093   4.909  18.349  0.00  0.00    +0.000 OA
BRANCH  19  20
ATOM     20  C   UNL     1       6.449   5.306  18.465  0.00  0.00    +0.000 C 
ATOM     21  F   UNL     1       6.766   5.457  19.776  0.00  0.00    +0.000 F 
ATOM     22  F   UNL     1       7.198   4.262  18.016  0.00  0.00    +0.000 F 
ENDBRANCH  19  20
ENDBRANCH   4  19
BRANCH   5  23
ATOM     23  O   UNL     1       3.115   5.093  20.443  0.00  0.00    +0.000 OA
BRANCH  23  24
ATOM     24  C   UNL     1       2.776   3.753  20.068  0.00  0.00    +0.000 C 
BRANCH  24  25
ATOM     25  C   UNL     1       1.407   3.749  19.452  0.00  0.00    +0.000 C 
ATOM     26  C   UNL     1       1.220   3.631  17.960  0.00  0.00    +0.000 C 
ATOM     27  C   UNL     1       0.871   2.472  18.849  0.00  0.00    +0.000 C 
ENDBRANCH  24  25
ENDBRANCH  23  24
ENDBRANCH   5  23
TORSDOF 7
ENDMDL
MODEL 9
REMARK VINA RESULT:      -7.1      1.785      2.246
REMARK  Name = 
REMARK  7 active torsions:
REMARK  status: ('A' for Active; 'I' for Inactive)
REMARK    1  A    between atoms: C_2  and  C_12
REMARK    2  A    between atoms: N_3  and  C_4
REMARK    3  A    between atoms: C_15  and  O_16
REMARK    4  A    between atoms: O_16  and  C_17
REMARK    5  A    between atoms: C_20  and  O_21
REMARK    6  A    between atoms: O_21  and  C_22
REMARK    7  A    between atoms: C_22  and  C_23
REMARK                            x       y       z     vdW  Elec       q    Type
REMARK                         _______ _______ _______ _____ _____    ______ ____
ROOT
ATOM      1  C   UNL     1       1.811   8.729  18.864  0.00  0.00    +0.000 A 
ATOM      2  C   UNL     1       2.657   8.612  17.762  0.00  0.00    +0.000 A 
ATOM      3  C   UNL     1       3.409   7.448  17.604  0.00  0.00    +0.000 A 
ATOM      4  C   UNL     1       3.308   6.385  18.517  0.00  0.00    +0.000 A 
ATOM      5  C   UNL     1       2.445   6.493  19.618  0.00  0.00    +0.000 A 
ATOM      6  C   UNL     1       1.714   7.678  19.790  0.00  0.00    +0.000 A 
ENDROOT
BRANCH   1   8
ATOM      7  O   UNL     1       1.553  11.055  18.854  0.00  0.00    +0.000 OA
ATOM      8  C   UNL     1       1.044   9.975  19.126  0.00  0.00    +0.000 C 
ATOM      9  N   UNL     1      -0.164   9.805  19.786  0.00  0.00    +0.000 N 
ATOM     10  H   UNL     1      -0.190   8.998  20.403  0.00  0.00    +0.000 HD
BRANCH   9  11
ATOM     11  C   UNL     1      -0.920  10.933  20.221  0.00  0.00    +0.000 A 
ATOM     12  C   UNL     1      -1.641  11.758  19.343  0.00  0.00    +0.000 A 
ATOM     13 CL   UNL     1      -1.891  11.388  17.676  0.00  0.00    +0.000 Cl
ATOM     14  C   UNL     1      -2.300  12.864  19.872  0.00  0.00    +0.000 A 
ATOM     15  N   UNL     1      -2.307  13.192  21.187  0.00  0.00    +0.000 NA
ATOM     16  C   UNL     1      -1.636  12.361  22.017  0.00  0.00    +0.000 A 
ATOM     17  C   UNL     1      -0.954  11.229  21.591  0.00  0.00    +0.000 A 
ATOM     18 CL   UNL     1      -0.126  10.254  22.751  0.00  0.00    +0.000 Cl
ENDBRANCH   9  11
ENDBRANCH   1   8
BRANCH   4  19
ATOM     19  O   UNL     1       4.152   5.349  18.227  0.00  0.00    +0.000 OA
BRANCH  19  20
ATOM     20  C   UNL     1       3.617   4.253  17.504  0.00  0.00    +0.000 C 
ATOM     21  F   UNL     1       2.282   4.429  17.339  0.00  0.00    +0.000 F 
ATOM     22  F   UNL     1       4.159   4.310  16.257  0.00  0.00    +0.000 F 
ENDBRANCH  19  20
ENDBRANCH   4  19
BRANCH   5  23
ATOM     23  O   UNL     1       2.420   5.471  20.532  0.00  0.00    +0.000 OA
BRANCH  23  24
ATOM     24  C   UNL     1       1.193   4.741  20.642  0.00  0.00    +0.000 C 
BRANCH  24  25
ATOM     25  C   UNL     1       1.486   3.273  20.533  0.00  0.00    +0.000 C 
ATOM     26  C   UNL     1       2.853   2.721  20.857  0.00  0.00    +0.000 C 
ATOM     27  C   UNL     1       1.705   2.467  21.791  0.00  0.00    +0.000 C 
ENDBRANCH  24  25
ENDBRANCH  23  24
ENDBRANCH   5  23
TORSDOF 7
ENDMDL
