MODEL 1
REMARK VINA RESULT:      -7.8      0.000      0.000
REMARK  Name = 
REMARK  5 active torsions:
REMARK  status: ('A' for Active; 'I' for Inactive)
REMARK    1  A    between atoms: C_2  and  C_3
REMARK    2  A    between atoms: N_12  and  C_13
REMARK    3  A    between atoms: C_13  and  C_14
REMARK    4  A    between atoms: C_15  and  C_16
REMARK    5  A    between atoms: C_27  and  C_28
REMARK                            x       y       z     vdW  Elec       q    Type
REMARK                         _______ _______ _______ _____ _____    ______ ____
ROOT
ATOM      1  C   UNL     1       1.032  12.805  19.141  0.00  0.00    +0.000 A 
ATOM      2  C   UNL     1      -0.197  13.379  18.818  0.00  0.00    +0.000 A 
ATOM      3  N   UNL     1      -0.071  14.747  18.637  0.00  0.00    +0.000 NA
ATOM      4  C   UNL     1       1.210  14.985  18.792  0.00  0.00    +0.000 A 
ATOM      5  C   UNL     1       1.911  16.236  18.724  0.00  0.00    +0.000 A 
ATOM      6  N   UNL     1       3.204  16.317  18.901  0.00  0.00    +0.000 NA
ATOM      7  C   UNL     1       3.905  15.144  19.158  0.00  0.00    +0.000 A 
ATOM      8  C   UNL     1       3.301  13.939  19.227  0.00  0.00    +0.000 A 
ATOM      9  N   UNL     1       1.929  13.853  19.058  0.00  0.00    +0.000 N 
ENDROOT
BRANCH   2  10
ATOM     10  C   UNL     1      -1.488  12.706  18.713  0.00  0.00    +0.000 A 
ATOM     11  C   UNL     1      -2.417  12.815  19.759  0.00  0.00    +0.000 A 
ATOM     12  C   UNL     1      -3.663  12.179  19.680  0.00  0.00    +0.000 A 
ATOM     13  C   UNL     1      -3.988  11.428  18.553  0.00  0.00    +0.000 A 
ATOM     14 CL   UNL     1      -5.511  10.635  18.451  0.00  0.00    +0.000 Cl
ATOM     15  C   UNL     1      -3.087  11.322  17.500  0.00  0.00    +0.000 A 
ATOM     16  C   UNL     1      -1.852  11.972  17.577  0.00  0.00    +0.000 A 
ENDBRANCH   2  10
BRANCH   7  17
ATOM     17  C   UNL     1       5.341  15.322  19.442  0.00  0.00    +0.000 C 
ATOM     18  C   UNL     1       6.353  15.095  18.344  0.00  0.00    +0.000 C 
ATOM     19  C   UNL     1       6.111  16.481  18.866  0.00  0.00    +0.000 C 
ENDBRANCH   7  17
BRANCH   1  20
ATOM     20  C   UNL     1       1.450  11.425  19.526  0.00  0.00    +0.000 C 
BRANCH  20  26
ATOM     21  O   UNL     1       1.906   5.921  20.777  0.00  0.00    +0.000 OA
ATOM     22  C   UNL     1       2.232   6.510  19.742  0.00  0.00    +0.000 C 
ATOM     23  N   UNL     1       1.885   7.840  19.543  0.00  0.00    +0.000 N 
ATOM     24  C   UNL     1       2.140   8.640  18.338  0.00  0.00    +0.000 C 
ATOM     25  C   UNL     1       0.963   9.591  18.007  0.00  0.00    +0.000 C 
ATOM     26  N   UNL     1       0.470  10.395  19.148  0.00  0.00    +0.000 NA
ATOM     27  C   UNL     1       0.138   9.460  20.248  0.00  0.00    +0.000 C 
ATOM     28  C   UNL     1       1.312   8.571  20.678  0.00  0.00    +0.000 C 
BRANCH  22  29
ATOM     29  C   UNL     1       3.102   5.809  18.708  0.00  0.00    +0.000 C 
ATOM     30  C   UNL     1       2.348   4.619  18.096  0.00  0.00    +0.000 C 
ATOM     31  C   UNL     1       3.271   3.786  17.223  0.00  0.00    +0.000 C 
ATOM     32  O   UNL     1       4.400   3.342  17.972  0.00  0.00    +0.000 OA
ATOM     33  C   UNL     1       5.193   4.425  18.451  0.00  0.00    +0.000 C 
ATOM     34  C   UNL     1       4.390   5.324  19.381  0.00  0.00    +0.000 C 
ENDBRANCH  22  29
ENDBRANCH  20  26
ENDBRANCH   1  20
TORSDOF 5
ENDMDL
MODEL 2
REMARK VINA RESULT:      -7.5      0.568      1.001
REMARK  Name = 
REMARK  5 active torsions:
REMARK  status: ('A' for Active; 'I' for Inactive)
REMARK    1  A    between atoms: C_2  and  C_3
REMARK    2  A    between atoms: N_12  and  C_13
REMARK    3  A    between atoms: C_13  and  C_14
REMARK    4  A    between atoms: C_15  and  C_16
REMARK    5  A    between atoms: C_27  and  C_28
REMARK                            x       y       z     vdW  Elec       q    Type
REMARK                         _______ _______ _______ _____ _____    ______ ____
ROOT
ATOM      1  C   UNL     1       0.911  12.753  19.731  0.00  0.00    +0.000 A 
ATOM      2  C   UNL     1      -0.230  13.349  19.193  0.00  0.00    +0.000 A 
ATOM      3  N   UNL     1      -0.012  14.693  18.937  0.00  0.00    +0.000 NA
ATOM      4  C   UNL     1       1.244  14.891  19.259  0.00  0.00    +0.000 A 
ATOM      5  C   UNL     1       2.010  16.105  19.205  0.00  0.00    +0.000 A 
ATOM      6  N   UNL     1       3.267  16.149  19.561  0.00  0.00    +0.000 NA
ATOM      7  C   UNL     1       3.865  14.972  19.998  0.00  0.00    +0.000 A 
ATOM      8  C   UNL     1       3.198  13.800  20.064  0.00  0.00    +0.000 A 
ATOM      9  N   UNL     1       1.862  13.755  19.704  0.00  0.00    +0.000 N 
ENDROOT
BRANCH   2  10
ATOM     10  C   UNL     1      -1.526  12.720  18.951  0.00  0.00    +0.000 A 
ATOM     11  C   UNL     1      -1.750  12.026  17.752  0.00  0.00    +0.000 A 
ATOM     12  C   UNL     1      -2.985  11.414  17.499  0.00  0.00    +0.000 A 
ATOM     13  C   UNL     1      -4.004  11.492  18.444  0.00  0.00    +0.000 A 
ATOM     14 CL   UNL     1      -5.527  10.752  18.138  0.00  0.00    +0.000 Cl
ATOM     15  C   UNL     1      -3.795  12.162  19.645  0.00  0.00    +0.000 A 
ATOM     16  C   UNL     1      -2.556  12.757  19.899  0.00  0.00    +0.000 A 
ENDBRANCH   2  10
BRANCH   7  17
ATOM     17  C   UNL     1       5.254  15.114  20.473  0.00  0.00    +0.000 C 
ATOM     18  C   UNL     1       6.386  15.136  19.474  0.00  0.00    +0.000 C 
ATOM     19  C   UNL     1       6.033  16.380  20.234  0.00  0.00    +0.000 C 
ENDBRANCH   7  17
BRANCH   1  20
ATOM     20  C   UNL     1       1.201  11.391  20.267  0.00  0.00    +0.000 C 
BRANCH  20  26
ATOM     21  O   UNL     1       1.900   5.809  20.912  0.00  0.00    +0.000 OA
ATOM     22  C   UNL     1       2.182   6.518  19.942  0.00  0.00    +0.000 C 
ATOM     23  N   UNL     1       1.779   7.846  19.892  0.00  0.00    +0.000 N 
ATOM     24  C   UNL     1       1.979   8.780  18.776  0.00  0.00    +0.000 C 
ATOM     25  C   UNL     1       0.758   9.711  18.567  0.00  0.00    +0.000 C 
ATOM     26  N   UNL     1       0.256  10.367  19.795  0.00  0.00    +0.000 NA
ATOM     27  C   UNL     1      -0.018   9.307  20.793  0.00  0.00    +0.000 C 
ATOM     28  C   UNL     1       1.198   8.426  21.107  0.00  0.00    +0.000 C 
BRANCH  22  29
ATOM     29  C   UNL     1       3.060   5.968  18.826  0.00  0.00    +0.000 C 
ATOM     30  C   UNL     1       2.370   4.777  18.143  0.00  0.00    +0.000 C 
ATOM     31  C   UNL     1       3.317   4.088  17.176  0.00  0.00    +0.000 C 
ATOM     32  O   UNL     1       4.504   3.673  17.848  0.00  0.00    +0.000 OA
ATOM     33  C   UNL     1       5.234   4.771  18.387  0.00  0.00    +0.000 C 
ATOM     34  C   UNL     1       4.405   5.530  19.413  0.00  0.00    +0.000 C 
ENDBRANCH  22  29
ENDBRANCH  20  26
ENDBRANCH   1  20
TORSDOF 5
ENDMDL
MODEL 3
REMARK VINA RESULT:      -7.2      4.230      7.892
REMARK  Name = 
REMARK  5 active torsions:
REMARK  status: ('A' for Active; 'I' for Inactive)
REMARK    1  A    between atoms: C_2  and  C_3
REMARK    2  A    between atoms: N_12  and  C_13
REMARK    3  A    between atoms: C_13  and  C_14
REMARK    4  A    between atoms: C_15  and  C_16
REMARK    5  A    between atoms: C_27  and  C_28
REMARK                            x       y       z     vdW  Elec       q    Type
REMARK                         _______ _______ _______ _____ _____    ______ ____
ROOT
ATOM      1  C   UNL     1      -0.679  12.615  21.297  0.00  0.00    +0.000 A 
ATOM      2  C   UNL     1      -1.382  12.520  22.498  0.00  0.00    +0.000 A 
ATOM      3  N   UNL     1      -1.346  11.225  22.990  0.00  0.00    +0.000 NA
ATOM      4  C   UNL     1      -0.595  10.568  22.138  0.00  0.00    +0.000 A 
ATOM      5  C   UNL     1      -0.223   9.181  22.145  0.00  0.00    +0.000 A 
ATOM      6  N   UNL     1       0.541   8.664  21.219  0.00  0.00    +0.000 NA
ATOM      7  C   UNL     1       1.002   9.499  20.208  0.00  0.00    +0.000 A 
ATOM      8  C   UNL     1       0.691  10.811  20.153  0.00  0.00    +0.000 A 
ATOM      9  N   UNL     1      -0.134  11.358  21.122  0.00  0.00    +0.000 N 
ENDROOT
BRANCH   2  10
ATOM     10  C   UNL     1      -2.119  13.581  23.179  0.00  0.00    +0.000 A 
ATOM     11  C   UNL     1      -1.437  14.475  24.018  0.00  0.00    +0.000 A 
ATOM     12  C   UNL     1      -2.123  15.502  24.679  0.00  0.00    +0.000 A 
ATOM     13  C   UNL     1      -3.498  15.641  24.506  0.00  0.00    +0.000 A 
ATOM     14 CL   UNL     1      -4.351  16.892  25.322  0.00  0.00    +0.000 Cl
ATOM     15  C   UNL     1      -4.188  14.775  23.665  0.00  0.00    +0.000 A 
ATOM     16  C   UNL     1      -3.496  13.762  22.995  0.00  0.00    +0.000 A 
ENDBRANCH   2  10
BRANCH   7  17
ATOM     17  C   UNL     1       1.778   8.830  19.148  0.00  0.00    +0.000 C 
ATOM     18  C   UNL     1       1.113   8.494  17.834  0.00  0.00    +0.000 C 
ATOM     19  C   UNL     1       2.169   9.559  17.890  0.00  0.00    +0.000 C 
ENDBRANCH   7  17
BRANCH   1  20
ATOM     20  C   UNL     1      -0.479  13.717  20.311  0.00  0.00    +0.000 C 
BRANCH  20  26
ATOM     21  O   UNL     1       3.239  17.208  17.850  0.00  0.00    +0.000 OA
ATOM     22  C   UNL     1       3.449  16.294  18.652  0.00  0.00    +0.000 C 
ATOM     23  N   UNL     1       2.394  15.651  19.288  0.00  0.00    +0.000 N 
ATOM     24  C   UNL     1       2.497  14.604  20.313  0.00  0.00    +0.000 C 
ATOM     25  C   UNL     1       1.420  14.757  21.416  0.00  0.00    +0.000 C 
ATOM     26  N   UNL     1       0.040  14.952  20.917  0.00  0.00    +0.000 NA
ATOM     27  C   UNL     1       0.054  16.108  19.990  0.00  0.00    +0.000 C 
ATOM     28  C   UNL     1       1.036  15.949  18.822  0.00  0.00    +0.000 C 
BRANCH  22  29
ATOM     29  C   UNL     1       4.868  15.794  18.885  0.00  0.00    +0.000 C 
ATOM     30  C   UNL     1       5.852  16.974  18.898  0.00  0.00    +0.000 C 
ATOM     31  C   UNL     1       7.288  16.478  18.916  0.00  0.00    +0.000 C 
ATOM     32  O   UNL     1       7.535  15.621  17.804  0.00  0.00    +0.000 OA
ATOM     33  C   UNL     1       6.722  14.451  17.829  0.00  0.00    +0.000 C 
ATOM     34  C   UNL     1       5.243  14.810  17.773  0.00  0.00    +0.000 C 
ENDBRANCH  22  29
ENDBRANCH  20  26
ENDBRANCH   1  20
TORSDOF 5
ENDMDL
MODEL 4
REMARK VINA RESULT:      -7.1      3.030      5.750
REMARK  Name = 
REMARK  5 active torsions:
REMARK  status: ('A' for Active; 'I' for Inactive)
REMARK    1  A    between atoms: C_2  and  C_3
REMARK    2  A    between atoms: N_12  and  C_13
REMARK    3  A    between atoms: C_13  and  C_14
REMARK    4  A    between atoms: C_15  and  C_16
REMARK    5  A    between atoms: C_27  and  C_28
REMARK                            x       y       z     vdW  Elec       q    Type
REMARK                         _______ _______ _______ _____ _____    ______ ____
ROOT
ATOM      1  C   UNL     1       0.695  12.827  20.951  0.00  0.00    +0.000 A 
ATOM      2  C   UNL     1       1.214  14.035  20.485  0.00  0.00    +0.000 A 
ATOM      3  N   UNL     1       0.320  15.072  20.699  0.00  0.00    +0.000 NA
ATOM      4  C   UNL     1      -0.688  14.515  21.327  0.00  0.00    +0.000 A 
ATOM      5  C   UNL     1      -1.908  15.117  21.789  0.00  0.00    +0.000 A 
ATOM      6  N   UNL     1      -2.830  14.427  22.407  0.00  0.00    +0.000 NA
ATOM      7  C   UNL     1      -2.604  13.072  22.619  0.00  0.00    +0.000 A 
ATOM      8  C   UNL     1      -1.475  12.454  22.213  0.00  0.00    +0.000 A 
ATOM      9  N   UNL     1      -0.504  13.178  21.541  0.00  0.00    +0.000 N 
ENDROOT
BRANCH   2  10
ATOM     10  C   UNL     1       2.492  14.248  19.812  0.00  0.00    +0.000 A 
ATOM     11  C   UNL     1       2.616  13.959  18.444  0.00  0.00    +0.000 A 
ATOM     12  C   UNL     1       3.832  14.157  17.777  0.00  0.00    +0.000 A 
ATOM     13  C   UNL     1       4.933  14.647  18.474  0.00  0.00    +0.000 A 
ATOM     14 CL   UNL     1       6.433  14.884  17.666  0.00  0.00    +0.000 Cl
ATOM     15  C   UNL     1       4.825  14.955  19.826  0.00  0.00    +0.000 A 
ATOM     16  C   UNL     1       3.605  14.771  20.482  0.00  0.00    +0.000 A 
ENDBRANCH   2  10
BRANCH   7  17
ATOM     17  C   UNL     1      -3.725  12.339  23.235  0.00  0.00    +0.000 C 
ATOM     18  C   UNL     1      -4.096  12.612  24.673  0.00  0.00    +0.000 C 
ATOM     19  C   UNL     1      -5.020  13.030  23.567  0.00  0.00    +0.000 C 
ENDBRANCH   7  17
BRANCH   1  20
ATOM     20  C   UNL     1       1.174  11.415  20.893  0.00  0.00    +0.000 C 
BRANCH  20  26
ATOM     21  O   UNL     1       1.622   5.770  20.925  0.00  0.00    +0.000 OA
ATOM     22  C   UNL     1       1.950   6.568  20.042  0.00  0.00    +0.000 C 
ATOM     23  N   UNL     1       1.605   7.911  20.135  0.00  0.00    +0.000 N 
ATOM     24  C   UNL     1       1.862   8.952  19.132  0.00  0.00    +0.000 C 
ATOM     25  C   UNL     1       0.686   9.953  19.013  0.00  0.00    +0.000 C 
ATOM     26  N   UNL     1       0.194  10.493  20.301  0.00  0.00    +0.000 NA
ATOM     27  C   UNL     1      -0.141   9.342  21.173  0.00  0.00    +0.000 C 
ATOM     28  C   UNL     1       1.031   8.379  21.400  0.00  0.00    +0.000 C 
BRANCH  22  29
ATOM     29  C   UNL     1       2.820   6.106  18.882  0.00  0.00    +0.000 C 
ATOM     30  C   UNL     1       2.208   4.863  18.219  0.00  0.00    +0.000 C 
ATOM     31  C   UNL     1       3.166   4.267  17.202  0.00  0.00    +0.000 C 
ATOM     32  O   UNL     1       4.415   3.955  17.815  0.00  0.00    +0.000 OA
ATOM     33  C   UNL     1       5.069   5.110  18.332  0.00  0.00    +0.000 C 
ATOM     34  C   UNL     1       4.224   5.786  19.403  0.00  0.00    +0.000 C 
ENDBRANCH  22  29
ENDBRANCH  20  26
ENDBRANCH   1  20
TORSDOF 5
ENDMDL
MODEL 5
REMARK VINA RESULT:      -7.1      0.933      1.146
REMARK  Name = 
REMARK  5 active torsions:
REMARK  status: ('A' for Active; 'I' for Inactive)
REMARK    1  A    between atoms: C_2  and  C_3
REMARK    2  A    between atoms: N_12  and  C_13
REMARK    3  A    between atoms: C_13  and  C_14
REMARK    4  A    between atoms: C_15  and  C_16
REMARK    5  A    between atoms: C_27  and  C_28
REMARK                            x       y       z     vdW  Elec       q    Type
REMARK                         _______ _______ _______ _____ _____    ______ ____
ROOT
ATOM      1  C   UNL     1       1.256  13.104  19.270  0.00  0.00    +0.000 A 
ATOM      2  C   UNL     1       0.098  13.881  19.280  0.00  0.00    +0.000 A 
ATOM      3  N   UNL     1       0.373  15.182  18.890  0.00  0.00    +0.000 NA
ATOM      4  C   UNL     1       1.652  15.177  18.599  0.00  0.00    +0.000 A 
ATOM      5  C   UNL     1       2.480  16.260  18.148  0.00  0.00    +0.000 A 
ATOM      6  N   UNL     1       3.753  16.101  17.895  0.00  0.00    +0.000 NA
ATOM      7  C   UNL     1       4.302  14.836  18.068  0.00  0.00    +0.000 A 
ATOM      8  C   UNL     1       3.572  13.779  18.483  0.00  0.00    +0.000 A 
ATOM      9  N   UNL     1       2.228  13.948  18.770  0.00  0.00    +0.000 N 
ENDROOT
BRANCH   2  10
ATOM     10  C   UNL     1      -1.243  13.465  19.680  0.00  0.00    +0.000 A 
ATOM     11  C   UNL     1      -1.824  14.005  20.837  0.00  0.00    +0.000 A 
ATOM     12  C   UNL     1      -3.111  13.623  21.239  0.00  0.00    +0.000 A 
ATOM     13  C   UNL     1      -3.825  12.695  20.484  0.00  0.00    +0.000 A 
ATOM     14 CL   UNL     1      -5.401  12.212  20.975  0.00  0.00    +0.000 Cl
ATOM     15  C   UNL     1      -3.273  12.162  19.325  0.00  0.00    +0.000 A 
ATOM     16  C   UNL     1      -1.996  12.560  18.920  0.00  0.00    +0.000 A 
ENDBRANCH   2  10
BRANCH   7  17
ATOM     17  C   UNL     1       5.759  14.752  17.856  0.00  0.00    +0.000 C 
ATOM     18  C   UNL     1       6.647  15.881  18.320  0.00  0.00    +0.000 C 
ATOM     19  C   UNL     1       6.703  14.551  19.011  0.00  0.00    +0.000 C 
ENDBRANCH   7  17
BRANCH   1  20
ATOM     20  C   UNL     1       1.553  11.700  19.681  0.00  0.00    +0.000 C 
BRANCH  20  26
ATOM     21  O   UNL     1       1.697   6.135  20.715  0.00  0.00    +0.000 OA
ATOM     22  C   UNL     1       2.126   6.752  19.736  0.00  0.00    +0.000 C 
ATOM     23  N   UNL     1       1.848   8.102  19.570  0.00  0.00    +0.000 N 
ATOM     24  C   UNL     1       2.228   8.941  18.426  0.00  0.00    +0.000 C 
ATOM     25  C   UNL     1       1.117   9.953  18.048  0.00  0.00    +0.000 C 
ATOM     26  N   UNL     1       0.567  10.728  19.182  0.00  0.00    +0.000 NA
ATOM     27  C   UNL     1       0.113   9.763  20.211  0.00  0.00    +0.000 C 
ATOM     28  C   UNL     1       1.215   8.808  20.689  0.00  0.00    +0.000 C 
BRANCH  22  29
ATOM     29  C   UNL     1       3.048   6.059  18.742  0.00  0.00    +0.000 C 
ATOM     30  C   UNL     1       2.316   4.891  18.062  0.00  0.00    +0.000 C 
ATOM     31  C   UNL     1       3.280   4.063  17.229  0.00  0.00    +0.000 C 
ATOM     32  O   UNL     1       4.356   3.589  18.035  0.00  0.00    +0.000 OA
ATOM     33  C   UNL     1       5.132   4.651  18.582  0.00  0.00    +0.000 C 
ATOM     34  C   UNL     1       4.287   5.543  19.480  0.00  0.00    +0.000 C 
ENDBRANCH  22  29
ENDBRANCH  20  26
ENDBRANCH   1  20
TORSDOF 5
ENDMDL
MODEL 6
REMARK VINA RESULT:      -7.0      0.963      1.010
REMARK  Name = 
REMARK  5 active torsions:
REMARK  status: ('A' for Active; 'I' for Inactive)
REMARK    1  A    between atoms: C_2  and  C_3
REMARK    2  A    between atoms: N_12  and  C_13
REMARK    3  A    between atoms: C_13  and  C_14
REMARK    4  A    between atoms: C_15  and  C_16
REMARK    5  A    between atoms: C_27  and  C_28
REMARK                            x       y       z     vdW  Elec       q    Type
REMARK                         _______ _______ _______ _____ _____    ______ ____
ROOT
ATOM      1  C   UNL     1       0.703  12.845  19.562  0.00  0.00    +0.000 A 
ATOM      2  C   UNL     1      -0.491  13.483  19.226  0.00  0.00    +0.000 A 
ATOM      3  N   UNL     1      -0.255  14.780  18.800  0.00  0.00    +0.000 NA
ATOM      4  C   UNL     1       1.050  14.904  18.825  0.00  0.00    +0.000 A 
ATOM      5  C   UNL     1       1.855  16.046  18.491  0.00  0.00    +0.000 A 
ATOM      6  N   UNL     1       3.160  16.019  18.564  0.00  0.00    +0.000 NA
ATOM      7  C   UNL     1       3.770  14.839  18.974  0.00  0.00    +0.000 A 
ATOM      8  C   UNL     1       3.065  13.733  19.295  0.00  0.00    +0.000 A 
ATOM      9  N   UNL     1       1.682  13.763  19.236  0.00  0.00    +0.000 N 
ENDROOT
BRANCH   2  10
ATOM     10  C   UNL     1      -1.843  12.941  19.329  0.00  0.00    +0.000 A 
ATOM     11  C   UNL     1      -2.633  13.246  20.448  0.00  0.00    +0.000 A 
ATOM     12  C   UNL     1      -3.933  12.739  20.567  0.00  0.00    +0.000 A 
ATOM     13  C   UNL     1      -4.453  11.922  19.566  0.00  0.00    +0.000 A 
ATOM     14 CL   UNL     1      -6.045  11.286  19.708  0.00  0.00    +0.000 Cl
ATOM     15  C   UNL     1      -3.692  11.623  18.442  0.00  0.00    +0.000 A 
ATOM     16  C   UNL     1      -2.401  12.144  18.321  0.00  0.00    +0.000 A 
ENDBRANCH   2  10
BRANCH   7  17
ATOM     17  C   UNL     1       5.234  14.909  19.125  0.00  0.00    +0.000 C 
ATOM     18  C   UNL     1       6.119  14.759  17.910  0.00  0.00    +0.000 C 
ATOM     19  C   UNL     1       6.015  16.086  18.604  0.00  0.00    +0.000 C 
ENDBRANCH   7  17
BRANCH   1  20
ATOM     20  C   UNL     1       1.023  11.513  20.154  0.00  0.00    +0.000 C 
BRANCH  20  26
ATOM     21  O   UNL     1       2.236   5.982  20.188  0.00  0.00    +0.000 OA
ATOM     22  C   UNL     1       2.321   6.788  19.256  0.00  0.00    +0.000 C 
ATOM     23  N   UNL     1       1.814   8.074  19.383  0.00  0.00    +0.000 N 
ATOM     24  C   UNL     1       1.779   9.108  18.340  0.00  0.00    +0.000 C 
ATOM     25  C   UNL     1       0.473   9.940  18.384  0.00  0.00    +0.000 C 
ATOM     26  N   UNL     1       0.102  10.450  19.723  0.00  0.00    +0.000 NA
ATOM     27  C   UNL     1       0.057   9.294  20.649  0.00  0.00    +0.000 C 
ATOM     28  C   UNL     1       1.370   8.503  20.713  0.00  0.00    +0.000 C 
BRANCH  22  29
ATOM     29  C   UNL     1       3.070   6.409  17.986  0.00  0.00    +0.000 C 
ATOM     30  C   UNL     1       3.244   4.885  17.905  0.00  0.00    +0.000 C 
ATOM     31  C   UNL     1       4.168   4.507  16.760  0.00  0.00    +0.000 C 
ATOM     32  O   UNL     1       5.429   5.157  16.900  0.00  0.00    +0.000 OA
ATOM     33  C   UNL     1       5.316   6.577  16.854  0.00  0.00    +0.000 C 
ATOM     34  C   UNL     1       4.440   7.095  17.987  0.00  0.00    +0.000 C 
ENDBRANCH  22  29
ENDBRANCH  20  26
ENDBRANCH   1  20
TORSDOF 5
ENDMDL
MODEL 7
REMARK VINA RESULT:      -6.9      4.282      8.809
REMARK  Name = 
REMARK  5 active torsions:
REMARK  status: ('A' for Active; 'I' for Inactive)
REMARK    1  A    between atoms: C_2  and  C_3
REMARK    2  A    between atoms: N_12  and  C_13
REMARK    3  A    between atoms: C_13  and  C_14
REMARK    4  A    between atoms: C_15  and  C_16
REMARK    5  A    between atoms: C_27  and  C_28
REMARK                            x       y       z     vdW  Elec       q    Type
REMARK                         _______ _______ _______ _____ _____    ______ ____
ROOT
ATOM      1  C   UNL     1       0.893  11.294  20.683  0.00  0.00    +0.000 A 
ATOM      2  C   UNL     1       0.684   9.915  20.661  0.00  0.00    +0.000 A 
ATOM      3  N   UNL     1      -0.290   9.548  21.575  0.00  0.00    +0.000 NA
ATOM      4  C   UNL     1      -0.699  10.680  22.096  0.00  0.00    +0.000 A 
ATOM      5  C   UNL     1      -1.694  10.903  23.107  0.00  0.00    +0.000 A 
ATOM      6  N   UNL     1      -1.997  12.102  23.529  0.00  0.00    +0.000 NA
ATOM      7  C   UNL     1      -1.330  13.184  22.966  0.00  0.00    +0.000 A 
ATOM      8  C   UNL     1      -0.391  13.037  22.008  0.00  0.00    +0.000 A 
ATOM      9  N   UNL     1      -0.053  11.766  21.572  0.00  0.00    +0.000 N 
ENDROOT
BRANCH   2  10
ATOM     10  C   UNL     1       1.389   8.926  19.850  0.00  0.00    +0.000 A 
ATOM     11  C   UNL     1       1.770   7.702  20.420  0.00  0.00    +0.000 A 
ATOM     12  C   UNL     1       2.446   6.737  19.661  0.00  0.00    +0.000 A 
ATOM     13  C   UNL     1       2.745   6.992  18.325  0.00  0.00    +0.000 A 
ATOM     14 CL   UNL     1       3.583   5.818  17.387  0.00  0.00    +0.000 Cl
ATOM     15  C   UNL     1       2.360   8.192  17.738  0.00  0.00    +0.000 A 
ATOM     16  C   UNL     1       1.672   9.144  18.495  0.00  0.00    +0.000 A 
ENDBRANCH   2  10
BRANCH   7  17
ATOM     17  C   UNL     1      -1.653  14.496  23.555  0.00  0.00    +0.000 C 
ATOM     18  C   UNL     1      -2.470  15.489  22.764  0.00  0.00    +0.000 C 
ATOM     19  C   UNL     1      -3.058  14.834  23.980  0.00  0.00    +0.000 C 
ENDBRANCH   7  17
BRANCH   1  20
ATOM     20  C   UNL     1       1.863  12.195  19.996  0.00  0.00    +0.000 C 
BRANCH  20  26
ATOM     21  O   UNL     1       2.975  17.158  17.507  0.00  0.00    +0.000 OA
ATOM     22  C   UNL     1       1.958  16.805  18.110  0.00  0.00    +0.000 C 
ATOM     23  N   UNL     1       1.791  15.485  18.508  0.00  0.00    +0.000 N 
ATOM     24  C   UNL     1       0.608  14.912  19.165  0.00  0.00    +0.000 C 
ATOM     25  C   UNL     1       0.294  13.482  18.658  0.00  0.00    +0.000 C 
ATOM     26  N   UNL     1       1.452  12.560  18.631  0.00  0.00    +0.000 NA
ATOM     27  C   UNL     1       2.525  13.207  17.841  0.00  0.00    +0.000 C 
ATOM     28  C   UNL     1       2.940  14.584  18.375  0.00  0.00    +0.000 C 
BRANCH  22  29
ATOM     29  C   UNL     1       0.913  17.837  18.511  0.00  0.00    +0.000 C 
ATOM     30  C   UNL     1       0.639  17.760  20.021  0.00  0.00    +0.000 C 
ATOM     31  C   UNL     1      -0.547  18.631  20.400  0.00  0.00    +0.000 C 
ATOM     32  O   UNL     1      -1.701  18.254  19.653  0.00  0.00    +0.000 OA
ATOM     33  C   UNL     1      -1.523  18.432  18.251  0.00  0.00    +0.000 C 
ATOM     34  C   UNL     1      -0.379  17.574  17.730  0.00  0.00    +0.000 C 
ENDBRANCH  22  29
ENDBRANCH  20  26
ENDBRANCH   1  20
TORSDOF 5
ENDMDL
MODEL 8
REMARK VINA RESULT:      -6.9      4.208      7.723
REMARK  Name = 
REMARK  5 active torsions:
REMARK  status: ('A' for Active; 'I' for Inactive)
REMARK    1  A    between atoms: C_2  and  C_3
REMARK    2  A    between atoms: N_12  and  C_13
REMARK    3  A    between atoms: C_13  and  C_14
REMARK    4  A    between atoms: C_15  and  C_16
REMARK    5  A    between atoms: C_27  and  C_28
REMARK                            x       y       z     vdW  Elec       q    Type
REMARK                         _______ _______ _______ _____ _____    ______ ____
ROOT
ATOM      1  C   UNL     1      -0.629  12.665  21.376  0.00  0.00    +0.000 A 
ATOM      2  C   UNL     1      -1.340  12.574  22.572  0.00  0.00    +0.000 A 
ATOM      3  N   UNL     1      -1.344  11.272  23.046  0.00  0.00    +0.000 NA
ATOM      4  C   UNL     1      -0.608  10.606  22.189  0.00  0.00    +0.000 A 
ATOM      5  C   UNL     1      -0.276   9.208  22.178  0.00  0.00    +0.000 A 
ATOM      6  N   UNL     1       0.477   8.682  21.249  0.00  0.00    +0.000 NA
ATOM      7  C   UNL     1       0.967   9.517  20.251  0.00  0.00    +0.000 A 
ATOM      8  C   UNL     1       0.694  10.838  20.213  0.00  0.00    +0.000 A 
ATOM      9  N   UNL     1      -0.119  11.396  21.186  0.00  0.00    +0.000 N 
ENDROOT
BRANCH   2  10
ATOM     10  C   UNL     1      -2.050  13.646  23.264  0.00  0.00    +0.000 A 
ATOM     11  C   UNL     1      -3.436  13.785  23.097  0.00  0.00    +0.000 A 
ATOM     12  C   UNL     1      -4.138  14.805  23.753  0.00  0.00    +0.000 A 
ATOM     13  C   UNL     1      -3.457  15.695  24.580  0.00  0.00    +0.000 A 
ATOM     14 CL   UNL     1      -4.308  16.956  25.381  0.00  0.00    +0.000 Cl
ATOM     15  C   UNL     1      -2.086  15.562  24.771  0.00  0.00    +0.000 A 
ATOM     16  C   UNL     1      -1.394  14.533  24.128  0.00  0.00    +0.000 A 
ENDBRANCH   2  10
BRANCH   7  17
ATOM     17  C   UNL     1       1.728   8.840  19.185  0.00  0.00    +0.000 C 
ATOM     18  C   UNL     1       1.074   8.582  17.849  0.00  0.00    +0.000 C 
ATOM     19  C   UNL     1       2.184   9.586  17.960  0.00  0.00    +0.000 C 
ENDBRANCH   7  17
BRANCH   1  20
ATOM     20  C   UNL     1      -0.393  13.774  20.406  0.00  0.00    +0.000 C 
BRANCH  20  26
ATOM     21  O   UNL     1       3.871  16.594  17.969  0.00  0.00    +0.000 OA
ATOM     22  C   UNL     1       3.921  15.677  18.794  0.00  0.00    +0.000 C 
ATOM     23  N   UNL     1       2.766  15.219  19.416  0.00  0.00    +0.000 N 
ATOM     24  C   UNL     1       2.684  14.192  20.464  0.00  0.00    +0.000 C 
ATOM     25  C   UNL     1       1.621  14.535  21.537  0.00  0.00    +0.000 C 
ATOM     26  N   UNL     1       0.298  14.929  21.001  0.00  0.00    +0.000 NA
ATOM     27  C   UNL     1       0.510  16.046  20.051  0.00  0.00    +0.000 C 
ATOM     28  C   UNL     1       1.481  15.711  18.911  0.00  0.00    +0.000 C 
BRANCH  22  29
ATOM     29  C   UNL     1       5.240  14.970  19.071  0.00  0.00    +0.000 C 
ATOM     30  C   UNL     1       6.093  15.797  20.046  0.00  0.00    +0.000 C 
ATOM     31  C   UNL     1       7.491  15.216  20.167  0.00  0.00    +0.000 C 
ATOM     32  O   UNL     1       8.112  15.139  18.886  0.00  0.00    +0.000 OA
ATOM     33  C   UNL     1       7.411  14.277  17.994  0.00  0.00    +0.000 C 
ATOM     34  C   UNL     1       5.993  14.775  17.751  0.00  0.00    +0.000 C 
ENDBRANCH  22  29
ENDBRANCH  20  26
ENDBRANCH   1  20
TORSDOF 5
ENDMDL
MODEL 9
REMARK VINA RESULT:      -6.9      2.867      5.666
REMARK  Name = 
REMARK  5 active torsions:
REMARK  status: ('A' for Active; 'I' for Inactive)
REMARK    1  A    between atoms: C_2  and  C_3
REMARK    2  A    between atoms: N_12  and  C_13
REMARK    3  A    between atoms: C_13  and  C_14
REMARK    4  A    between atoms: C_15  and  C_16
REMARK    5  A    between atoms: C_27  and  C_28
REMARK                            x       y       z     vdW  Elec       q    Type
REMARK                         _______ _______ _______ _____ _____    ______ ____
ROOT
ATOM      1  C   UNL     1       0.776  13.096  20.419  0.00  0.00    +0.000 A 
ATOM      2  C   UNL     1       1.340  14.304  20.008  0.00  0.00    +0.000 A 
ATOM      3  N   UNL     1       0.426  15.338  20.117  0.00  0.00    +0.000 NA
ATOM      4  C   UNL     1      -0.645  14.781  20.632  0.00  0.00    +0.000 A 
ATOM      5  C   UNL     1      -1.909  15.381  20.953  0.00  0.00    +0.000 A 
ATOM      6  N   UNL     1      -2.893  14.691  21.468  0.00  0.00    +0.000 NA
ATOM      7  C   UNL     1      -2.688  13.337  21.709  0.00  0.00    +0.000 A 
ATOM      8  C   UNL     1      -1.520  12.721  21.433  0.00  0.00    +0.000 A 
ATOM      9  N   UNL     1      -0.482  13.445  20.871  0.00  0.00    +0.000 N 
ENDROOT
BRANCH   2  10
ATOM     10  C   UNL     1       2.685  14.518  19.480  0.00  0.00    +0.000 A 
ATOM     11  C   UNL     1       3.768  14.641  20.363  0.00  0.00    +0.000 A 
ATOM     12  C   UNL     1       5.067  14.844  19.879  0.00  0.00    +0.000 A 
ATOM     13  C   UNL     1       5.291  14.928  18.507  0.00  0.00    +0.000 A 
ATOM     14 CL   UNL     1       6.880  15.188  17.903  0.00  0.00    +0.000 Cl
ATOM     15  C   UNL     1       4.232  14.791  17.617  0.00  0.00    +0.000 A 
ATOM     16  C   UNL     1       2.941  14.572  18.104  0.00  0.00    +0.000 A 
ENDBRANCH   2  10
BRANCH   7  17
ATOM     17  C   UNL     1      -3.869  12.603  22.199  0.00  0.00    +0.000 C 
ATOM     18  C   UNL     1      -4.181  12.592  23.677  0.00  0.00    +0.000 C 
ATOM     19  C   UNL     1      -5.076  13.331  22.727  0.00  0.00    +0.000 C 
ENDBRANCH   7  17
BRANCH   1  20
ATOM     20  C   UNL     1       1.262  11.685  20.420  0.00  0.00    +0.000 C 
BRANCH  20  26
ATOM     21  O   UNL     1       1.624   6.057  20.926  0.00  0.00    +0.000 OA
ATOM     22  C   UNL     1       1.975   6.774  19.985  0.00  0.00    +0.000 C 
ATOM     23  N   UNL     1       1.649   8.124  19.961  0.00  0.00    +0.000 N 
ATOM     24  C   UNL     1       1.935   9.074  18.878  0.00  0.00    +0.000 C 
ATOM     25  C   UNL     1       0.776  10.079  18.661  0.00  0.00    +0.000 C 
ATOM     26  N   UNL     1       0.275  10.730  19.892  0.00  0.00    +0.000 NA
ATOM     27  C   UNL     1      -0.088   9.661  20.852  0.00  0.00    +0.000 C 
ATOM     28  C   UNL     1       1.066   8.704  21.175  0.00  0.00    +0.000 C 
BRANCH  22  29
ATOM     29  C   UNL     1       2.853   6.205  18.879  0.00  0.00    +0.000 C 
ATOM     30  C   UNL     1       2.143   5.033  18.184  0.00  0.00    +0.000 C 
ATOM     31  C   UNL     1       3.084   4.322  17.227  0.00  0.00    +0.000 C 
ATOM     32  O   UNL     1       4.250   3.875  17.914  0.00  0.00    +0.000 OA
ATOM     33  C   UNL     1       5.001   4.952  18.466  0.00  0.00    +0.000 C 
ATOM     34  C   UNL     1       4.178   5.730  19.484  0.00  0.00    +0.000 C 
ENDBRANCH  22  29
ENDBRANCH  20  26
ENDBRANCH   1  20
TORSDOF 5
ENDMDL
