MODEL 1
REMARK VINA RESULT:      -8.3      0.000      0.000
REMARK  Name = 
REMARK  6 active torsions:
REMARK  status: ('A' for Active; 'I' for Inactive)
REMARK    1  A    between atoms: C_1  and  C_2
REMARK    2  A    between atoms: C_2  and  C_3
REMARK    3  A    between atoms: C_3  and  C_4
REMARK    4  A    between atoms: C_7  and  C_8
REMARK    5  A    between atoms: C_11  and  C_13
REMARK    6  A    between atoms: C_18  and  C_19
REMARK                            x       y       z     vdW  Elec       q    Type
REMARK                         _______ _______ _______ _____ _____    ______ ____
ROOT
ATOM      1  C   UNL     1       6.609   4.804  15.619  0.00  0.00    +0.000 C 
ATOM      2  C   UNL     1       5.198   5.051  16.177  0.00  0.00    +0.000 C 
ATOM      3  N   UNL     1       5.248   5.550  17.562  0.00  0.00    +0.000 N 
ATOM      4  C   UNL     1       4.566   5.059  18.681  0.00  0.00    +0.000 C 
ATOM      5  O   UNL     1       4.800   5.504  19.804  0.00  0.00    +0.000 OA
ATOM      6  C   UNL     1       6.165   6.690  17.724  0.00  0.00    +0.000 C 
ATOM      7  C   UNL     1       7.531   6.405  17.079  0.00  0.00    +0.000 C 
ATOM      8  O   UNL     1       7.395   6.009  15.699  0.00  0.00    +0.000 OA
ENDROOT
BRANCH   4   9
ATOM      9  C   UNL     1       3.545   3.982  18.564  0.00  0.00    +0.000 A 
ATOM     10  C   UNL     1       3.882   2.645  18.692  0.00  0.00    +0.000 A 
ATOM     11  N   UNL     1       3.001   1.620  18.682  0.00  0.00    +0.000 NA
ATOM     12  C   UNL     1       1.729   1.962  18.470  0.00  0.00    +0.000 A 
ATOM     13  N   UNL     1       1.290   3.202  18.222  0.00  0.00    +0.000 NA
ATOM     14  C   UNL     1       2.211   4.206  18.233  0.00  0.00    +0.000 A 
ATOM     15  C   UNL     1       1.651   5.548  17.858  0.00  0.00    +0.000 C 
ENDBRANCH   4   9
BRANCH   1  19
ATOM     16  C   UNL     1       5.968   3.564  12.330  0.00  0.00    +0.000 A 
ATOM     17  N   UNL     1       7.116   4.193  12.053  0.00  0.00    +0.000 NA
ATOM     18  N   UNL     1       7.454   4.688  13.255  0.00  0.00    +0.000 N 
ATOM     19  C   UNL     1       6.528   4.373  14.195  0.00  0.00    +0.000 A 
ATOM     20  N   UNL     1       5.574   3.657  13.640  0.00  0.00    +0.000 NA
ATOM     21  H   UNL     1       8.316   5.223  13.365  0.00  0.00    +0.000 HD
BRANCH  16  22
ATOM     22  C   UNL     1       5.178   2.813  11.319  0.00  0.00    +0.000 C 
BRANCH  22  24
ATOM     23  C   UNL     1       3.297   3.775   9.940  0.00  0.00    +0.000 C 
ATOM     24  C   UNL     1       3.708   3.234  11.300  0.00  0.00    +0.000 C 
ENDBRANCH  22  24
ENDBRANCH  16  22
ENDBRANCH   1  19
TORSDOF 4
ENDMDL
MODEL 2
REMARK VINA RESULT:      -8.2      0.426      1.414
REMARK  Name = 
REMARK  6 active torsions:
REMARK  status: ('A' for Active; 'I' for Inactive)
REMARK    1  A    between atoms: C_1  and  C_2
REMARK    2  A    between atoms: C_2  and  C_3
REMARK    3  A    between atoms: C_3  and  C_4
REMARK    4  A    between atoms: C_7  and  C_8
REMARK    5  A    between atoms: C_11  and  C_13
REMARK    6  A    between atoms: C_18  and  C_19
REMARK                            x       y       z     vdW  Elec       q    Type
REMARK                         _______ _______ _______ _____ _____    ______ ____
ROOT
ATOM      1  C   UNL     1       6.494   4.812  15.691  0.00  0.00    +0.000 C 
ATOM      2  C   UNL     1       5.086   5.136  16.218  0.00  0.00    +0.000 C 
ATOM      3  N   UNL     1       5.135   5.654  17.595  0.00  0.00    +0.000 N 
ATOM      4  C   UNL     1       4.410   5.215  18.709  0.00  0.00    +0.000 C 
ATOM      5  O   UNL     1       4.644   5.667  19.828  0.00  0.00    +0.000 OA
ATOM      6  C   UNL     1       6.102   6.752  17.757  0.00  0.00    +0.000 C 
ATOM      7  C   UNL     1       7.464   6.392  17.143  0.00  0.00    +0.000 C 
ATOM      8  O   UNL     1       7.335   5.980  15.767  0.00  0.00    +0.000 OA
ENDROOT
BRANCH   4   9
ATOM      9  C   UNL     1       3.341   4.186  18.589  0.00  0.00    +0.000 A 
ATOM     10  C   UNL     1       2.113   4.476  18.018  0.00  0.00    +0.000 A 
ATOM     11  N   UNL     1       1.128   3.576  17.799  0.00  0.00    +0.000 NA
ATOM     12  C   UNL     1       1.376   2.340  18.235  0.00  0.00    +0.000 A 
ATOM     13  N   UNL     1       2.474   1.957  18.901  0.00  0.00    +0.000 NA
ATOM     14  C   UNL     1       3.439   2.896  19.108  0.00  0.00    +0.000 A 
ATOM     15  C   UNL     1       4.593   2.409  19.937  0.00  0.00    +0.000 C 
ENDBRANCH   4   9
BRANCH   1  19
ATOM     16  C   UNL     1       5.862   3.537  12.413  0.00  0.00    +0.000 A 
ATOM     17  N   UNL     1       7.025   4.140  12.139  0.00  0.00    +0.000 NA
ATOM     18  N   UNL     1       7.360   4.646  13.337  0.00  0.00    +0.000 N 
ATOM     19  C   UNL     1       6.419   4.363  14.273  0.00  0.00    +0.000 A 
ATOM     20  N   UNL     1       5.457   3.657  13.718  0.00  0.00    +0.000 NA
ATOM     21  H   UNL     1       8.231   5.166  13.449  0.00  0.00    +0.000 HD
BRANCH  16  22
ATOM     22  C   UNL     1       5.068   2.786  11.405  0.00  0.00    +0.000 C 
BRANCH  22  24
ATOM     23  C   UNL     1       3.280   3.780   9.929  0.00  0.00    +0.000 C 
ATOM     24  C   UNL     1       3.622   3.277  11.322  0.00  0.00    +0.000 C 
ENDBRANCH  22  24
ENDBRANCH  16  22
ENDBRANCH   1  19
TORSDOF 4
ENDMDL
MODEL 3
REMARK VINA RESULT:      -8.1      0.831      1.275
REMARK  Name = 
REMARK  6 active torsions:
REMARK  status: ('A' for Active; 'I' for Inactive)
REMARK    1  A    between atoms: C_1  and  C_2
REMARK    2  A    between atoms: C_2  and  C_3
REMARK    3  A    between atoms: C_3  and  C_4
REMARK    4  A    between atoms: C_7  and  C_8
REMARK    5  A    between atoms: C_11  and  C_13
REMARK    6  A    between atoms: C_18  and  C_19
REMARK                            x       y       z     vdW  Elec       q    Type
REMARK                         _______ _______ _______ _____ _____    ______ ____
ROOT
ATOM      1  C   UNL     1       6.694   4.911  15.725  0.00  0.00    +0.000 C 
ATOM      2  C   UNL     1       5.254   5.099  16.227  0.00  0.00    +0.000 C 
ATOM      3  N   UNL     1       5.228   5.616  17.606  0.00  0.00    +0.000 N 
ATOM      4  C   UNL     1       4.528   5.108  18.705  0.00  0.00    +0.000 C 
ATOM      5  O   UNL     1       4.699   5.577  19.830  0.00  0.00    +0.000 OA
ATOM      6  C   UNL     1       6.084   6.800  17.786  0.00  0.00    +0.000 C 
ATOM      7  C   UNL     1       7.486   6.572  17.196  0.00  0.00    +0.000 C 
ATOM      8  O   UNL     1       7.420   6.152  15.817  0.00  0.00    +0.000 OA
ENDROOT
BRANCH   4   9
ATOM      9  C   UNL     1       3.564   3.983  18.566  0.00  0.00    +0.000 A 
ATOM     10  C   UNL     1       3.961   2.663  18.704  0.00  0.00    +0.000 A 
ATOM     11  N   UNL     1       3.131   1.597  18.675  0.00  0.00    +0.000 NA
ATOM     12  C   UNL     1       1.850   1.877  18.432  0.00  0.00    +0.000 A 
ATOM     13  N   UNL     1       1.357   3.095  18.170  0.00  0.00    +0.000 NA
ATOM     14  C   UNL     1       2.228   4.142  18.202  0.00  0.00    +0.000 A 
ATOM     15  C   UNL     1       1.614   5.455  17.811  0.00  0.00    +0.000 C 
ENDBRANCH   4   9
BRANCH   1  19
ATOM     16  C   UNL     1       6.319   3.499  12.464  0.00  0.00    +0.000 A 
ATOM     17  N   UNL     1       7.215   4.438  12.140  0.00  0.00    +0.000 NA
ATOM     18  N   UNL     1       7.438   5.025  13.327  0.00  0.00    +0.000 N 
ATOM     19  C   UNL     1       6.688   4.460  14.306  0.00  0.00    +0.000 A 
ATOM     20  N   UNL     1       5.969   3.486  13.790  0.00  0.00    +0.000 NA
ATOM     21  H   UNL     1       8.105   5.793  13.402  0.00  0.00    +0.000 HD
BRANCH  16  22
ATOM     22  C   UNL     1       5.748   2.535  11.487  0.00  0.00    +0.000 C 
BRANCH  22  24
ATOM     23  C   UNL     1       6.157   0.059  11.229  0.00  0.00    +0.000 C 
ATOM     24  C   UNL     1       6.751   1.451  11.087  0.00  0.00    +0.000 C 
ENDBRANCH  22  24
ENDBRANCH  16  22
ENDBRANCH   1  19
TORSDOF 4
ENDMDL
MODEL 4
REMARK VINA RESULT:      -8.0      0.906      1.897
REMARK  Name = 
REMARK  6 active torsions:
REMARK  status: ('A' for Active; 'I' for Inactive)
REMARK    1  A    between atoms: C_1  and  C_2
REMARK    2  A    between atoms: C_2  and  C_3
REMARK    3  A    between atoms: C_3  and  C_4
REMARK    4  A    between atoms: C_7  and  C_8
REMARK    5  A    between atoms: C_11  and  C_13
REMARK    6  A    between atoms: C_18  and  C_19
REMARK                            x       y       z     vdW  Elec       q    Type
REMARK                         _______ _______ _______ _____ _____    ______ ____
ROOT
ATOM      1  C   UNL     1       6.604   4.944  15.786  0.00  0.00    +0.000 C 
ATOM      2  C   UNL     1       5.165   5.226  16.249  0.00  0.00    +0.000 C 
ATOM      3  N   UNL     1       5.138   5.769  17.618  0.00  0.00    +0.000 N 
ATOM      4  C   UNL     1       4.382   5.323  18.708  0.00  0.00    +0.000 C 
ATOM      5  O   UNL     1       4.554   5.802  19.828  0.00  0.00    +0.000 OA
ATOM      6  C   UNL     1       6.058   6.904  17.799  0.00  0.00    +0.000 C 
ATOM      7  C   UNL     1       7.457   6.582  17.249  0.00  0.00    +0.000 C 
ATOM      8  O   UNL     1       7.400   6.142  15.876  0.00  0.00    +0.000 OA
ENDROOT
BRANCH   4   9
ATOM      9  C   UNL     1       3.356   4.255  18.563  0.00  0.00    +0.000 A 
ATOM     10  C   UNL     1       2.118   4.507  17.996  0.00  0.00    +0.000 A 
ATOM     11  N   UNL     1       1.171   3.574  17.754  0.00  0.00    +0.000 NA
ATOM     12  C   UNL     1       1.468   2.340  18.164  0.00  0.00    +0.000 A 
ATOM     13  N   UNL     1       2.579   1.987  18.824  0.00  0.00    +0.000 NA
ATOM     14  C   UNL     1       3.506   2.959  19.054  0.00  0.00    +0.000 A 
ATOM     15  C   UNL     1       4.676   2.501  19.875  0.00  0.00    +0.000 C 
ENDBRANCH   4   9
BRANCH   1  19
ATOM     16  C   UNL     1       6.240   3.481  12.548  0.00  0.00    +0.000 A 
ATOM     17  N   UNL     1       7.151   4.403  12.215  0.00  0.00    +0.000 NA
ATOM     18  N   UNL     1       7.370   5.007  13.394  0.00  0.00    +0.000 N 
ATOM     19  C   UNL     1       6.605   4.469  14.375  0.00  0.00    +0.000 A 
ATOM     20  N   UNL     1       5.878   3.494  13.870  0.00  0.00    +0.000 NA
ATOM     21  H   UNL     1       8.047   5.769  13.461  0.00  0.00    +0.000 HD
BRANCH  16  22
ATOM     22  C   UNL     1       5.666   2.506  11.582  0.00  0.00    +0.000 C 
BRANCH  22  24
ATOM     23  C   UNL     1       6.166   0.056  11.249  0.00  0.00    +0.000 C 
ATOM     24  C   UNL     1       6.696   1.475  11.117  0.00  0.00    +0.000 C 
ENDBRANCH  22  24
ENDBRANCH  16  22
ENDBRANCH   1  19
TORSDOF 4
ENDMDL
MODEL 5
REMARK VINA RESULT:      -7.7      2.924      5.800
REMARK  Name = 
REMARK  6 active torsions:
REMARK  status: ('A' for Active; 'I' for Inactive)
REMARK    1  A    between atoms: C_1  and  C_2
REMARK    2  A    between atoms: C_2  and  C_3
REMARK    3  A    between atoms: C_3  and  C_4
REMARK    4  A    between atoms: C_7  and  C_8
REMARK    5  A    between atoms: C_11  and  C_13
REMARK    6  A    between atoms: C_18  and  C_19
REMARK                            x       y       z     vdW  Elec       q    Type
REMARK                         _______ _______ _______ _____ _____    ______ ____
ROOT
ATOM      1  C   UNL     1       6.009   6.228  16.725  0.00  0.00    +0.000 C 
ATOM      2  C   UNL     1       5.614   5.051  17.631  0.00  0.00    +0.000 C 
ATOM      3  N   UNL     1       4.688   4.133  16.946  0.00  0.00    +0.000 N 
ATOM      4  C   UNL     1       3.455   3.652  17.401  0.00  0.00    +0.000 C 
ATOM      5  O   UNL     1       2.732   2.983  16.665  0.00  0.00    +0.000 OA
ATOM      6  C   UNL     1       5.167   3.729  15.614  0.00  0.00    +0.000 C 
ATOM      7  C   UNL     1       5.616   4.945  14.788  0.00  0.00    +0.000 C 
ATOM      8  O   UNL     1       6.588   5.740  15.498  0.00  0.00    +0.000 OA
ENDROOT
BRANCH   4   9
ATOM      9  C   UNL     1       2.966   3.935  18.778  0.00  0.00    +0.000 A 
ATOM     10  C   UNL     1       2.899   2.945  19.744  0.00  0.00    +0.000 A 
ATOM     11  N   UNL     1       2.548   3.142  21.034  0.00  0.00    +0.000 NA
ATOM     12  C   UNL     1       2.187   4.389  21.343  0.00  0.00    +0.000 A 
ATOM     13  N   UNL     1       2.101   5.409  20.480  0.00  0.00    +0.000 NA
ATOM     14  C   UNL     1       2.458   5.166  19.187  0.00  0.00    +0.000 A 
ATOM     15  C   UNL     1       2.247   6.336  18.269  0.00  0.00    +0.000 C 
ENDBRANCH   4   9
BRANCH   1  19
ATOM     16  C   UNL     1       8.213   8.687  18.088  0.00  0.00    +0.000 A 
ATOM     17  N   UNL     1       8.583   7.672  18.877  0.00  0.00    +0.000 NA
ATOM     18  N   UNL     1       7.807   6.675  18.423  0.00  0.00    +0.000 N 
ATOM     19  C   UNL     1       7.002   7.096  17.416  0.00  0.00    +0.000 A 
ATOM     20  N   UNL     1       7.239   8.369  17.177  0.00  0.00    +0.000 NA
ATOM     21  H   UNL     1       7.874   5.744  18.835  0.00  0.00    +0.000 HD
BRANCH  16  22
ATOM     22  C   UNL     1       8.806  10.048  18.168  0.00  0.00    +0.000 C 
BRANCH  22  24
ATOM     23  C   UNL     1      10.578  11.270  19.483  0.00  0.00    +0.000 C 
ATOM     24  C   UNL     1       9.364  10.358  19.558  0.00  0.00    +0.000 C 
ENDBRANCH  22  24
ENDBRANCH  16  22
ENDBRANCH   1  19
TORSDOF 4
ENDMDL
MODEL 6
REMARK VINA RESULT:      -7.7      3.400      7.099
REMARK  Name = 
REMARK  6 active torsions:
REMARK  status: ('A' for Active; 'I' for Inactive)
REMARK    1  A    between atoms: C_1  and  C_2
REMARK    2  A    between atoms: C_2  and  C_3
REMARK    3  A    between atoms: C_3  and  C_4
REMARK    4  A    between atoms: C_7  and  C_8
REMARK    5  A    between atoms: C_11  and  C_13
REMARK    6  A    between atoms: C_18  and  C_19
REMARK                            x       y       z     vdW  Elec       q    Type
REMARK                         _______ _______ _______ _____ _____    ______ ____
ROOT
ATOM      1  C   UNL     1       2.668   6.748  19.578  0.00  0.00    +0.000 C 
ATOM      2  C   UNL     1       3.018   5.748  18.465  0.00  0.00    +0.000 C 
ATOM      3  N   UNL     1       3.488   4.468  19.021  0.00  0.00    +0.000 N 
ATOM      4  C   UNL     1       4.656   3.766  18.703  0.00  0.00    +0.000 C 
ATOM      5  O   UNL     1       4.979   2.764  19.339  0.00  0.00    +0.000 OA
ATOM      6  C   UNL     1       2.584   3.927  20.048  0.00  0.00    +0.000 C 
ATOM      7  C   UNL     1       2.214   4.997  21.088  0.00  0.00    +0.000 C 
ATOM      8  O   UNL     1       1.680   6.183  20.463  0.00  0.00    +0.000 OA
ENDROOT
BRANCH   4   9
ATOM      9  C   UNL     1       5.555   4.202  17.599  0.00  0.00    +0.000 A 
ATOM     10  C   UNL     1       5.420   3.707  16.313  0.00  0.00    +0.000 A 
ATOM     11  N   UNL     1       6.139   4.117  15.245  0.00  0.00    +0.000 NA
ATOM     12  C   UNL     1       7.082   5.024  15.505  0.00  0.00    +0.000 A 
ATOM     13  N   UNL     1       7.387   5.499  16.720  0.00  0.00    +0.000 NA
ATOM     14  C   UNL     1       6.642   5.055  17.771  0.00  0.00    +0.000 A 
ATOM     15  C   UNL     1       7.108   5.568  19.104  0.00  0.00    +0.000 C 
ENDBRANCH   4   9
BRANCH   1  19
ATOM     16  C   UNL     1       1.101   9.805  18.596  0.00  0.00    +0.000 A 
ATOM     17  N   UNL     1       1.880   9.660  17.518  0.00  0.00    +0.000 NA
ATOM     18  N   UNL     1       2.510   8.506  17.789  0.00  0.00    +0.000 N 
ATOM     19  C   UNL     1       2.125   8.003  18.988  0.00  0.00    +0.000 A 
ATOM     20  N   UNL     1       1.228   8.803  19.524  0.00  0.00    +0.000 NA
ATOM     21  H   UNL     1       3.181   8.119  17.124  0.00  0.00    +0.000 HD
BRANCH  16  22
ATOM     22  C   UNL     1       0.161  10.941  18.784  0.00  0.00    +0.000 C 
BRANCH  22  24
ATOM     23  C   UNL     1      -1.734  10.052  17.375  0.00  0.00    +0.000 C 
ATOM     24  C   UNL     1      -1.302  10.495  18.764  0.00  0.00    +0.000 C 
ENDBRANCH  22  24
ENDBRANCH  16  22
ENDBRANCH   1  19
TORSDOF 4
ENDMDL
MODEL 7
REMARK VINA RESULT:      -7.6      2.947      5.971
REMARK  Name = 
REMARK  6 active torsions:
REMARK  status: ('A' for Active; 'I' for Inactive)
REMARK    1  A    between atoms: C_1  and  C_2
REMARK    2  A    between atoms: C_2  and  C_3
REMARK    3  A    between atoms: C_3  and  C_4
REMARK    4  A    between atoms: C_7  and  C_8
REMARK    5  A    between atoms: C_11  and  C_13
REMARK    6  A    between atoms: C_18  and  C_19
REMARK                            x       y       z     vdW  Elec       q    Type
REMARK                         _______ _______ _______ _____ _____    ______ ____
ROOT
ATOM      1  C   UNL     1       6.003   6.299  16.724  0.00  0.00    +0.000 C 
ATOM      2  C   UNL     1       5.620   5.107  17.616  0.00  0.00    +0.000 C 
ATOM      3  N   UNL     1       4.685   4.200  16.929  0.00  0.00    +0.000 N 
ATOM      4  C   UNL     1       3.459   3.712  17.393  0.00  0.00    +0.000 C 
ATOM      5  O   UNL     1       2.726   3.055  16.656  0.00  0.00    +0.000 OA
ATOM      6  C   UNL     1       5.147   3.818  15.585  0.00  0.00    +0.000 C 
ATOM      7  C   UNL     1       5.585   5.048  14.773  0.00  0.00    +0.000 C 
ATOM      8  O   UNL     1       6.566   5.831  15.482  0.00  0.00    +0.000 OA
ENDROOT
BRANCH   4   9
ATOM      9  C   UNL     1       2.988   3.973  18.780  0.00  0.00    +0.000 A 
ATOM     10  C   UNL     1       2.219   5.082  19.091  0.00  0.00    +0.000 A 
ATOM     11  N   UNL     1       1.686   5.340  20.306  0.00  0.00    +0.000 NA
ATOM     12  C   UNL     1       1.999   4.467  21.264  0.00  0.00    +0.000 A 
ATOM     13  N   UNL     1       2.821   3.419  21.121  0.00  0.00    +0.000 NA
ATOM     14  C   UNL     1       3.343   3.198  19.882  0.00  0.00    +0.000 A 
ATOM     15  C   UNL     1       4.322   2.060  19.830  0.00  0.00    +0.000 C 
ENDBRANCH   4   9
BRANCH   1  19
ATOM     16  C   UNL     1       8.234   8.733  18.089  0.00  0.00    +0.000 A 
ATOM     17  N   UNL     1       8.593   7.714  18.878  0.00  0.00    +0.000 NA
ATOM     18  N   UNL     1       7.806   6.726  18.422  0.00  0.00    +0.000 N 
ATOM     19  C   UNL     1       7.006   7.156  17.416  0.00  0.00    +0.000 A 
ATOM     20  N   UNL     1       7.256   8.426  17.178  0.00  0.00    +0.000 NA
ATOM     21  H   UNL     1       7.864   5.793  18.834  0.00  0.00    +0.000 HD
BRANCH  16  22
ATOM     22  C   UNL     1       8.841  10.088  18.171  0.00  0.00    +0.000 C 
BRANCH  22  24
ATOM     23  C   UNL     1      10.593  11.327  19.497  0.00  0.00    +0.000 C 
ATOM     24  C   UNL     1       9.394  10.394  19.563  0.00  0.00    +0.000 C 
ENDBRANCH  22  24
ENDBRANCH  16  22
ENDBRANCH   1  19
TORSDOF 4
ENDMDL
MODEL 8
REMARK VINA RESULT:      -7.3      3.633      7.305
REMARK  Name = 
REMARK  6 active torsions:
REMARK  status: ('A' for Active; 'I' for Inactive)
REMARK    1  A    between atoms: C_1  and  C_2
REMARK    2  A    between atoms: C_2  and  C_3
REMARK    3  A    between atoms: C_3  and  C_4
REMARK    4  A    between atoms: C_7  and  C_8
REMARK    5  A    between atoms: C_11  and  C_13
REMARK    6  A    between atoms: C_18  and  C_19
REMARK                            x       y       z     vdW  Elec       q    Type
REMARK                         _______ _______ _______ _____ _____    ______ ____
ROOT
ATOM      1  C   UNL     1       2.650   6.693  19.610  0.00  0.00    +0.000 C 
ATOM      2  C   UNL     1       3.009   5.710  18.484  0.00  0.00    +0.000 C 
ATOM      3  N   UNL     1       3.468   4.419  19.025  0.00  0.00    +0.000 N 
ATOM      4  C   UNL     1       4.638   3.719  18.708  0.00  0.00    +0.000 C 
ATOM      5  O   UNL     1       4.950   2.705  19.331  0.00  0.00    +0.000 OA
ATOM      6  C   UNL     1       2.551   3.865  20.033  0.00  0.00    +0.000 C 
ATOM      7  C   UNL     1       2.174   4.920  21.086  0.00  0.00    +0.000 C 
ATOM      8  O   UNL     1       1.651   6.117  20.474  0.00  0.00    +0.000 OA
ENDROOT
BRANCH   4   9
ATOM      9  C   UNL     1       5.549   4.170  17.621  0.00  0.00    +0.000 A 
ATOM     10  C   UNL     1       5.437   3.683  16.329  0.00  0.00    +0.000 A 
ATOM     11  N   UNL     1       6.169   4.106  15.275  0.00  0.00    +0.000 NA
ATOM     12  C   UNL     1       7.101   5.018  15.557  0.00  0.00    +0.000 A 
ATOM     13  N   UNL     1       7.385   5.486  16.779  0.00  0.00    +0.000 NA
ATOM     14  C   UNL     1       6.628   5.029  17.816  0.00  0.00    +0.000 A 
ATOM     15  C   UNL     1       7.070   5.534  19.159  0.00  0.00    +0.000 C 
ENDBRANCH   4   9
BRANCH   1  19
ATOM     16  C   UNL     1       1.202   9.830  18.699  0.00  0.00    +0.000 A 
ATOM     17  N   UNL     1       1.742   9.541  17.510  0.00  0.00    +0.000 NA
ATOM     18  N   UNL     1       2.307   8.347  17.749  0.00  0.00    +0.000 N 
ATOM     19  C   UNL     1       2.118   7.960  19.035  0.00  0.00    +0.000 A 
ATOM     20  N   UNL     1       1.416   8.879  19.663  0.00  0.00    +0.000 NA
ATOM     21  H   UNL     1       2.800   7.854  17.003  0.00  0.00    +0.000 HD
BRANCH  16  22
ATOM     22  C   UNL     1       0.421  11.066  18.969  0.00  0.00    +0.000 C 
BRANCH  22  24
ATOM     23  C   UNL     1       2.123  12.902  18.655  0.00  0.00    +0.000 C 
ATOM     24  C   UNL     1       1.261  12.146  19.654  0.00  0.00    +0.000 C 
ENDBRANCH  22  24
ENDBRANCH  16  22
ENDBRANCH   1  19
TORSDOF 4
ENDMDL
MODEL 9
REMARK VINA RESULT:      -7.2      3.260      6.132
REMARK  Name = 
REMARK  6 active torsions:
REMARK  status: ('A' for Active; 'I' for Inactive)
REMARK    1  A    between atoms: C_1  and  C_2
REMARK    2  A    between atoms: C_2  and  C_3
REMARK    3  A    between atoms: C_3  and  C_4
REMARK    4  A    between atoms: C_7  and  C_8
REMARK    5  A    between atoms: C_11  and  C_13
REMARK    6  A    between atoms: C_18  and  C_19
REMARK                            x       y       z     vdW  Elec       q    Type
REMARK                         _______ _______ _______ _____ _____    ______ ____
ROOT
ATOM      1  C   UNL     1       6.757   6.783  16.974  0.00  0.00    +0.000 C 
ATOM      2  C   UNL     1       6.130   5.839  18.011  0.00  0.00    +0.000 C 
ATOM      3  N   UNL     1       5.357   4.766  17.363  0.00  0.00    +0.000 N 
ATOM      4  C   UNL     1       4.039   4.375  17.621  0.00  0.00    +0.000 C 
ATOM      5  O   UNL     1       3.483   3.536  16.913  0.00  0.00    +0.000 OA
ATOM      6  C   UNL     1       6.116   4.075  16.307  0.00  0.00    +0.000 C 
ATOM      7  C   UNL     1       6.778   5.078  15.349  0.00  0.00    +0.000 C 
ATOM      8  O   UNL     1       7.587   6.039  16.060  0.00  0.00    +0.000 OA
ENDROOT
BRANCH   4   9
ATOM      9  C   UNL     1       3.257   4.957  18.746  0.00  0.00    +0.000 A 
ATOM     10  C   UNL     1       2.869   4.193  19.834  0.00  0.00    +0.000 A 
ATOM     11  N   UNL     1       2.234   4.669  20.928  0.00  0.00    +0.000 NA
ATOM     12  C   UNL     1       1.921   5.965  20.888  0.00  0.00    +0.000 A 
ATOM     13  N   UNL     1       2.139   6.785  19.852  0.00  0.00    +0.000 NA
ATOM     14  C   UNL     1       2.775   6.264  18.765  0.00  0.00    +0.000 A 
ATOM     15  C   UNL     1       2.899   7.223  17.617  0.00  0.00    +0.000 C 
ENDBRANCH   4   9
BRANCH   1  19
ATOM     16  C   UNL     1       8.555   9.580  18.281  0.00  0.00    +0.000 A 
ATOM     17  N   UNL     1       9.001   8.670  19.154  0.00  0.00    +0.000 NA
ATOM     18  N   UNL     1       8.383   7.557  18.728  0.00  0.00    +0.000 N 
ATOM     19  C   UNL     1       7.593   7.811  17.655  0.00  0.00    +0.000 A 
ATOM     20  N   UNL     1       7.683   9.087  17.345  0.00  0.00    +0.000 NA
ATOM     21  H   UNL     1       8.541   6.668  19.204  0.00  0.00    +0.000 HD
BRANCH  16  22
ATOM     22  C   UNL     1       8.968  11.009  18.300  0.00  0.00    +0.000 C 
BRANCH  22  24
ATOM     23  C   UNL     1      11.243  11.915  18.906  0.00  0.00    +0.000 C 
ATOM     24  C   UNL     1      10.417  11.200  17.848  0.00  0.00    +0.000 C 
ENDBRANCH  22  24
ENDBRANCH  16  22
ENDBRANCH   1  19
TORSDOF 4
ENDMDL
