MODEL 1
REMARK VINA RESULT:      -7.0      0.000      0.000
REMARK  Name = 
REMARK  7 active torsions:
REMARK  status: ('A' for Active; 'I' for Inactive)
REMARK    1  A    between atoms: C_1  and  C_2
REMARK    2  A    between atoms: N_10  and  C_11
REMARK    3  A    between atoms: C_11  and  C_12
REMARK    4  A    between atoms: N_14  and  C_15
REMARK    5  A    between atoms: C_15  and  C_16
REMARK    6  A    between atoms: C_16  and  C_17
REMARK    7  A    between atoms: C_16  and  C_18
REMARK                            x       y       z     vdW  Elec       q    Type
REMARK                         _______ _______ _______ _____ _____    ______ ____
ROOT
ATOM      1  C   UNL     1       5.529   6.990  17.070  0.00  0.00    +0.000 C 
ATOM      2  C   UNL     1       4.797   5.695  17.032  0.00  0.00    +0.000 A 
ATOM      3  C   UNL     1       3.509   5.404  17.449  0.00  0.00    +0.000 A 
ATOM      4 CL   UNL     1       2.393   6.494  18.124  0.00  0.00    +0.000 Cl
ATOM      5  C   UNL     1       3.348   4.027  17.213  0.00  0.00    +0.000 A 
ATOM      6  N   UNL     1       2.216   3.158  17.494  0.00  0.00    +0.000 N 
ATOM      7  O   UNL     1       1.208   3.680  17.986  0.00  0.00    +0.000 OA
ATOM      8  O   UNL     1       2.327   1.950  17.229  0.00  0.00    +0.000 OA
ATOM      9  N   UNL     1       4.449   3.478  16.660  0.00  0.00    +0.000 NA
ATOM     10  N   UNL     1       5.315   4.513  16.545  0.00  0.00    +0.000 N 
ENDROOT
BRANCH  10  11
ATOM     11  C   UNL     1       6.675   4.197  16.116  0.00  0.00    +0.000 C 
BRANCH  11  12
ATOM     12  C   UNL     1       6.941   4.457  14.651  0.00  0.00    +0.000 C 
ATOM     13  O   UNL     1       7.760   5.294  14.277  0.00  0.00    +0.000 OA
ATOM     14  N   UNL     1       6.260   3.659  13.745  0.00  0.00    +0.000 N 
ATOM     15  H   UNL     1       5.547   3.014  14.061  0.00  0.00    +0.000 HD
BRANCH  14  16
ATOM     16  C   UNL     1       6.495   3.839  12.322  0.00  0.00    +0.000 C 
BRANCH  16  17
ATOM     17  C   UNL     1       5.645   2.969  11.386  0.00  0.00    +0.000 C 
ATOM     18  C   UNL     1       5.935   1.477  11.545  0.00  0.00    +0.000 C 
ATOM     19  C   UNL     1       4.151   3.257  11.526  0.00  0.00    +0.000 C 
ENDBRANCH  16  17
ENDBRANCH  14  16
ENDBRANCH  11  12
ENDBRANCH  10  11
TORSDOF 4
ENDMDL
MODEL 2
REMARK VINA RESULT:      -6.9      0.690      1.069
REMARK  Name = 
REMARK  7 active torsions:
REMARK  status: ('A' for Active; 'I' for Inactive)
REMARK    1  A    between atoms: C_1  and  C_2
REMARK    2  A    between atoms: N_10  and  C_11
REMARK    3  A    between atoms: C_11  and  C_12
REMARK    4  A    between atoms: N_14  and  C_15
REMARK    5  A    between atoms: C_15  and  C_16
REMARK    6  A    between atoms: C_16  and  C_17
REMARK    7  A    between atoms: C_16  and  C_18
REMARK                            x       y       z     vdW  Elec       q    Type
REMARK                         _______ _______ _______ _____ _____    ______ ____
ROOT
ATOM      1  C   UNL     1       5.573   7.116  17.274  0.00  0.00    +0.000 C 
ATOM      2  C   UNL     1       5.062   5.721  17.349  0.00  0.00    +0.000 A 
ATOM      3  C   UNL     1       3.891   5.244  17.913  0.00  0.00    +0.000 A 
ATOM      4 CL   UNL     1       2.689   6.168  18.681  0.00  0.00    +0.000 Cl
ATOM      5  C   UNL     1       3.934   3.850  17.728  0.00  0.00    +0.000 A 
ATOM      6  N   UNL     1       2.996   2.824  18.153  0.00  0.00    +0.000 N 
ATOM      7  O   UNL     1       1.974   3.197  18.742  0.00  0.00    +0.000 OA
ATOM      8  O   UNL     1       3.274   1.639  17.907  0.00  0.00    +0.000 OA
ATOM      9  N   UNL     1       5.045   3.463  17.069  0.00  0.00    +0.000 NA
ATOM     10  N   UNL     1       5.712   4.618  16.834  0.00  0.00    +0.000 N 
ENDROOT
BRANCH  10  11
ATOM     11  C   UNL     1       7.053   4.506  16.264  0.00  0.00    +0.000 C 
BRANCH  11  12
ATOM     12  C   UNL     1       7.094   4.567  14.755  0.00  0.00    +0.000 C 
ATOM     13  O   UNL     1       7.922   5.248  14.153  0.00  0.00    +0.000 OA
ATOM     14  N   UNL     1       6.189   3.766  14.077  0.00  0.00    +0.000 N 
ATOM     15  H   UNL     1       5.475   3.254  14.580  0.00  0.00    +0.000 HD
BRANCH  14  16
ATOM     16  C   UNL     1       6.197   3.756  12.623  0.00  0.00    +0.000 C 
BRANCH  16  17
ATOM     17  C   UNL     1       5.521   2.551  11.955  0.00  0.00    +0.000 C 
ATOM     18  C   UNL     1       4.219   2.925  11.246  0.00  0.00    +0.000 C 
ATOM     19  C   UNL     1       6.465   1.806  11.013  0.00  0.00    +0.000 C 
ENDBRANCH  16  17
ENDBRANCH  14  16
ENDBRANCH  11  12
ENDBRANCH  10  11
TORSDOF 4
ENDMDL
MODEL 3
REMARK VINA RESULT:      -6.9      3.462      4.969
REMARK  Name = 
REMARK  7 active torsions:
REMARK  status: ('A' for Active; 'I' for Inactive)
REMARK    1  A    between atoms: C_1  and  C_2
REMARK    2  A    between atoms: N_10  and  C_11
REMARK    3  A    between atoms: C_11  and  C_12
REMARK    4  A    between atoms: N_14  and  C_15
REMARK    5  A    between atoms: C_15  and  C_16
REMARK    6  A    between atoms: C_16  and  C_17
REMARK    7  A    between atoms: C_16  and  C_18
REMARK                            x       y       z     vdW  Elec       q    Type
REMARK                         _______ _______ _______ _____ _____    ______ ____
ROOT
ATOM      1  C   UNL     1       1.401   4.560  17.280  0.00  0.00    +0.000 C 
ATOM      2  C   UNL     1       2.359   3.826  18.149  0.00  0.00    +0.000 A 
ATOM      3  C   UNL     1       2.231   3.451  19.476  0.00  0.00    +0.000 A 
ATOM      4 CL   UNL     1       0.891   3.735  20.482  0.00  0.00    +0.000 Cl
ATOM      5  C   UNL     1       3.445   2.817  19.798  0.00  0.00    +0.000 A 
ATOM      6  N   UNL     1       3.897   2.258  21.062  0.00  0.00    +0.000 N 
ATOM      7  O   UNL     1       3.109   2.297  22.015  0.00  0.00    +0.000 OA
ATOM      8  O   UNL     1       5.042   1.779  21.113  0.00  0.00    +0.000 OA
ATOM      9  N   UNL     1       4.283   2.767  18.744  0.00  0.00    +0.000 NA
ATOM     10  N   UNL     1       3.599   3.374  17.745  0.00  0.00    +0.000 N 
ENDROOT
BRANCH  10  11
ATOM     11  C   UNL     1       4.320   3.617  16.497  0.00  0.00    +0.000 C 
BRANCH  11  12
ATOM     12  C   UNL     1       4.987   4.970  16.418  0.00  0.00    +0.000 C 
ATOM     13  O   UNL     1       5.174   5.541  15.346  0.00  0.00    +0.000 OA
ATOM     14  N   UNL     1       5.325   5.567  17.622  0.00  0.00    +0.000 N 
ATOM     15  H   UNL     1       5.220   5.064  18.495  0.00  0.00    +0.000 HD
BRANCH  14  16
ATOM     16  C   UNL     1       5.943   6.883  17.616  0.00  0.00    +0.000 C 
BRANCH  16  17
ATOM     17  C   UNL     1       7.469   6.909  17.772  0.00  0.00    +0.000 C 
ATOM     18  C   UNL     1       8.033   8.329  17.804  0.00  0.00    +0.000 C 
ATOM     19  C   UNL     1       7.940   6.103  18.982  0.00  0.00    +0.000 C 
ENDBRANCH  16  17
ENDBRANCH  14  16
ENDBRANCH  11  12
ENDBRANCH  10  11
TORSDOF 4
ENDMDL
MODEL 4
REMARK VINA RESULT:      -6.8      3.774      6.848
REMARK  Name = 
REMARK  7 active torsions:
REMARK  status: ('A' for Active; 'I' for Inactive)
REMARK    1  A    between atoms: C_1  and  C_2
REMARK    2  A    between atoms: N_10  and  C_11
REMARK    3  A    between atoms: C_11  and  C_12
REMARK    4  A    between atoms: N_14  and  C_15
REMARK    5  A    between atoms: C_15  and  C_16
REMARK    6  A    between atoms: C_16  and  C_17
REMARK    7  A    between atoms: C_16  and  C_18
REMARK                            x       y       z     vdW  Elec       q    Type
REMARK                         _______ _______ _______ _____ _____    ______ ____
ROOT
ATOM      1  C   UNL     1       2.689   3.305  17.074  0.00  0.00    +0.000 C 
ATOM      2  C   UNL     1       3.982   3.771  17.643  0.00  0.00    +0.000 A 
ATOM      3  C   UNL     1       5.206   3.939  17.017  0.00  0.00    +0.000 A 
ATOM      4 CL   UNL     1       5.552   3.654  15.377  0.00  0.00    +0.000 Cl
ATOM      5  C   UNL     1       6.082   4.366  18.032  0.00  0.00    +0.000 A 
ATOM      6  N   UNL     1       7.505   4.657  17.973  0.00  0.00    +0.000 N 
ATOM      7  O   UNL     1       8.061   4.556  16.871  0.00  0.00    +0.000 OA
ATOM      8  O   UNL     1       8.080   4.983  19.024  0.00  0.00    +0.000 OA
ATOM      9  N   UNL     1       5.457   4.488  19.220  0.00  0.00    +0.000 NA
ATOM     10  N   UNL     1       4.175   4.135  18.959  0.00  0.00    +0.000 N 
ENDROOT
BRANCH  10  11
ATOM     11  C   UNL     1       3.273   4.016  20.103  0.00  0.00    +0.000 C 
BRANCH  11  12
ATOM     12  C   UNL     1       2.319   5.176  20.266  0.00  0.00    +0.000 C 
ATOM     13  O   UNL     1       1.173   5.022  20.683  0.00  0.00    +0.000 OA
ATOM     14  N   UNL     1       2.820   6.436  19.981  0.00  0.00    +0.000 N 
ATOM     15  H   UNL     1       3.744   6.546  19.583  0.00  0.00    +0.000 HD
BRANCH  14  16
ATOM     16  C   UNL     1       1.961   7.597  20.147  0.00  0.00    +0.000 C 
BRANCH  16  17
ATOM     17  C   UNL     1       1.588   8.347  18.860  0.00  0.00    +0.000 C 
ATOM     18  C   UNL     1       1.124   9.778  19.127  0.00  0.00    +0.000 C 
ATOM     19  C   UNL     1       2.713   8.317  17.827  0.00  0.00    +0.000 C 
ENDBRANCH  16  17
ENDBRANCH  14  16
ENDBRANCH  11  12
ENDBRANCH  10  11
TORSDOF 4
ENDMDL
MODEL 5
REMARK VINA RESULT:      -6.7      3.699      7.049
REMARK  Name = 
REMARK  7 active torsions:
REMARK  status: ('A' for Active; 'I' for Inactive)
REMARK    1  A    between atoms: C_1  and  C_2
REMARK    2  A    between atoms: N_10  and  C_11
REMARK    3  A    between atoms: C_11  and  C_12
REMARK    4  A    between atoms: N_14  and  C_15
REMARK    5  A    between atoms: C_15  and  C_16
REMARK    6  A    between atoms: C_16  and  C_17
REMARK    7  A    between atoms: C_16  and  C_18
REMARK                            x       y       z     vdW  Elec       q    Type
REMARK                         _______ _______ _______ _____ _____    ______ ____
ROOT
ATOM      1  C   UNL     1       2.631   3.225  17.081  0.00  0.00    +0.000 C 
ATOM      2  C   UNL     1       3.941   3.658  17.638  0.00  0.00    +0.000 A 
ATOM      3  C   UNL     1       5.093   4.042  16.972  0.00  0.00    +0.000 A 
ATOM      4 CL   UNL     1       5.307   4.132  15.288  0.00  0.00    +0.000 Cl
ATOM      5  C   UNL     1       6.031   4.313  17.986  0.00  0.00    +0.000 A 
ATOM      6  N   UNL     1       7.424   4.715  17.883  0.00  0.00    +0.000 N 
ATOM      7  O   UNL     1       7.884   4.887  16.747  0.00  0.00    +0.000 OA
ATOM      8  O   UNL     1       8.071   4.857  18.934  0.00  0.00    +0.000 OA
ATOM      9  N   UNL     1       5.508   4.138  19.216  0.00  0.00    +0.000 NA
ATOM     10  N   UNL     1       4.231   3.753  18.983  0.00  0.00    +0.000 N 
ENDROOT
BRANCH  10  11
ATOM     11  C   UNL     1       3.442   3.331  20.139  0.00  0.00    +0.000 C 
BRANCH  11  12
ATOM     12  C   UNL     1       2.344   4.293  20.527  0.00  0.00    +0.000 C 
ATOM     13  O   UNL     1       1.283   3.907  21.013  0.00  0.00    +0.000 OA
ATOM     14  N   UNL     1       2.615   5.643  20.366  0.00  0.00    +0.000 N 
ATOM     15  H   UNL     1       3.467   5.947  19.912  0.00  0.00    +0.000 HD
BRANCH  14  16
ATOM     16  C   UNL     1       1.610   6.621  20.750  0.00  0.00    +0.000 C 
BRANCH  16  17
ATOM     17  C   UNL     1       1.842   8.053  20.250  0.00  0.00    +0.000 C 
ATOM     18  C   UNL     1       2.051   8.121  18.737  0.00  0.00    +0.000 C 
ATOM     19  C   UNL     1       0.735   9.007  20.695  0.00  0.00    +0.000 C 
ENDBRANCH  16  17
ENDBRANCH  14  16
ENDBRANCH  11  12
ENDBRANCH  10  11
TORSDOF 4
ENDMDL
MODEL 6
REMARK VINA RESULT:      -6.7      2.245      2.799
REMARK  Name = 
REMARK  7 active torsions:
REMARK  status: ('A' for Active; 'I' for Inactive)
REMARK    1  A    between atoms: C_1  and  C_2
REMARK    2  A    between atoms: N_10  and  C_11
REMARK    3  A    between atoms: C_11  and  C_12
REMARK    4  A    between atoms: N_14  and  C_15
REMARK    5  A    between atoms: C_15  and  C_16
REMARK    6  A    between atoms: C_16  and  C_17
REMARK    7  A    between atoms: C_16  and  C_18
REMARK                            x       y       z     vdW  Elec       q    Type
REMARK                         _______ _______ _______ _____ _____    ______ ____
ROOT
ATOM      1  C   UNL     1       2.484   6.944  18.060  0.00  0.00    +0.000 C 
ATOM      2  C   UNL     1       3.224   5.749  18.546  0.00  0.00    +0.000 A 
ATOM      3  C   UNL     1       2.784   4.714  19.355  0.00  0.00    +0.000 A 
ATOM      4 CL   UNL     1       1.226   4.534  20.011  0.00  0.00    +0.000 Cl
ATOM      5  C   UNL     1       3.903   3.878  19.523  0.00  0.00    +0.000 A 
ATOM      6  N   UNL     1       4.048   2.662  20.307  0.00  0.00    +0.000 N 
ATOM      7  O   UNL     1       3.048   2.249  20.906  0.00  0.00    +0.000 OA
ATOM      8  O   UNL     1       5.162   2.113  20.333  0.00  0.00    +0.000 OA
ATOM      9  N   UNL     1       4.978   4.332  18.848  0.00  0.00    +0.000 NA
ATOM     10  N   UNL     1       4.541   5.465  18.249  0.00  0.00    +0.000 N 
ENDROOT
BRANCH  10  11
ATOM     11  C   UNL     1       5.539   6.281  17.561  0.00  0.00    +0.000 C 
BRANCH  11  12
ATOM     12  C   UNL     1       6.300   5.551  16.479  0.00  0.00    +0.000 C 
ATOM     13  O   UNL     1       7.473   5.814  16.219  0.00  0.00    +0.000 OA
ATOM     14  N   UNL     1       5.631   4.524  15.833  0.00  0.00    +0.000 N 
ATOM     15  H   UNL     1       4.649   4.354  16.014  0.00  0.00    +0.000 HD
BRANCH  14  16
ATOM     16  C   UNL     1       6.319   3.763  14.803  0.00  0.00    +0.000 C 
BRANCH  16  17
ATOM     17  C   UNL     1       6.202   4.309  13.374  0.00  0.00    +0.000 C 
ATOM     18  C   UNL     1       7.512   4.910  12.865  0.00  0.00    +0.000 C 
ATOM     19  C   UNL     1       5.660   3.265  12.398  0.00  0.00    +0.000 C 
ENDBRANCH  16  17
ENDBRANCH  14  16
ENDBRANCH  11  12
ENDBRANCH  10  11
TORSDOF 4
ENDMDL
MODEL 7
REMARK VINA RESULT:      -6.7      3.486      4.910
REMARK  Name = 
REMARK  7 active torsions:
REMARK  status: ('A' for Active; 'I' for Inactive)
REMARK    1  A    between atoms: C_1  and  C_2
REMARK    2  A    between atoms: N_10  and  C_11
REMARK    3  A    between atoms: C_11  and  C_12
REMARK    4  A    between atoms: N_14  and  C_15
REMARK    5  A    between atoms: C_15  and  C_16
REMARK    6  A    between atoms: C_16  and  C_17
REMARK    7  A    between atoms: C_16  and  C_18
REMARK                            x       y       z     vdW  Elec       q    Type
REMARK                         _______ _______ _______ _____ _____    ______ ____
ROOT
ATOM      1  C   UNL     1       1.344   4.454  17.408  0.00  0.00    +0.000 C 
ATOM      2  C   UNL     1       2.331   3.747  18.267  0.00  0.00    +0.000 A 
ATOM      3  C   UNL     1       2.218   3.348  19.588  0.00  0.00    +0.000 A 
ATOM      4 CL   UNL     1       0.868   3.564  20.598  0.00  0.00    +0.000 Cl
ATOM      5  C   UNL     1       3.456   2.758  19.902  0.00  0.00    +0.000 A 
ATOM      6  N   UNL     1       3.930   2.199  21.158  0.00  0.00    +0.000 N 
ATOM      7  O   UNL     1       3.142   2.193  22.111  0.00  0.00    +0.000 OA
ATOM      8  O   UNL     1       5.094   1.766  21.202  0.00  0.00    +0.000 OA
ATOM      9  N   UNL     1       4.296   2.757  18.847  0.00  0.00    +0.000 NA
ATOM     10  N   UNL     1       3.587   3.350  17.857  0.00  0.00    +0.000 N 
ENDROOT
BRANCH  10  11
ATOM     11  C   UNL     1       4.298   3.639  16.613  0.00  0.00    +0.000 C 
BRANCH  11  12
ATOM     12  C   UNL     1       5.028   4.962  16.607  0.00  0.00    +0.000 C 
ATOM     13  O   UNL     1       4.430   6.035  16.650  0.00  0.00    +0.000 OA
ATOM     14  N   UNL     1       6.413   4.907  16.615  0.00  0.00    +0.000 N 
ATOM     15  H   UNL     1       6.894   4.021  16.521  0.00  0.00    +0.000 HD
BRANCH  14  16
ATOM     16  C   UNL     1       7.174   6.145  16.640  0.00  0.00    +0.000 C 
BRANCH  16  17
ATOM     17  C   UNL     1       7.341   6.803  18.017  0.00  0.00    +0.000 C 
ATOM     18  C   UNL     1       7.975   5.866  19.044  0.00  0.00    +0.000 C 
ATOM     19  C   UNL     1       8.101   8.126  17.937  0.00  0.00    +0.000 C 
ENDBRANCH  16  17
ENDBRANCH  14  16
ENDBRANCH  11  12
ENDBRANCH  10  11
TORSDOF 4
ENDMDL
MODEL 8
REMARK VINA RESULT:      -6.6      2.324      2.681
REMARK  Name = 
REMARK  7 active torsions:
REMARK  status: ('A' for Active; 'I' for Inactive)
REMARK    1  A    between atoms: C_1  and  C_2
REMARK    2  A    between atoms: N_10  and  C_11
REMARK    3  A    between atoms: C_11  and  C_12
REMARK    4  A    between atoms: N_14  and  C_15
REMARK    5  A    between atoms: C_15  and  C_16
REMARK    6  A    between atoms: C_16  and  C_17
REMARK    7  A    between atoms: C_16  and  C_18
REMARK                            x       y       z     vdW  Elec       q    Type
REMARK                         _______ _______ _______ _____ _____    ______ ____
ROOT
ATOM      1  C   UNL     1       3.061   7.146  18.199  0.00  0.00    +0.000 C 
ATOM      2  C   UNL     1       3.591   5.831  18.650  0.00  0.00    +0.000 A 
ATOM      3  C   UNL     1       3.064   4.943  19.573  0.00  0.00    +0.000 A 
ATOM      4 CL   UNL     1       1.619   5.131  20.448  0.00  0.00    +0.000 Cl
ATOM      5  C   UNL     1       3.989   3.885  19.634  0.00  0.00    +0.000 A 
ATOM      6  N   UNL     1       3.985   2.690  20.463  0.00  0.00    +0.000 N 
ATOM      7  O   UNL     1       3.019   2.526  21.219  0.00  0.00    +0.000 OA
ATOM      8  O   UNL     1       4.945   1.908  20.368  0.00  0.00    +0.000 OA
ATOM      9  N   UNL     1       5.025   4.070  18.791  0.00  0.00    +0.000 NA
ATOM     10  N   UNL     1       4.757   5.254  18.191  0.00  0.00    +0.000 N 
ENDROOT
BRANCH  10  11
ATOM     11  C   UNL     1       5.794   5.809  17.323  0.00  0.00    +0.000 C 
BRANCH  11  12
ATOM     12  C   UNL     1       5.470   5.746  15.848  0.00  0.00    +0.000 C 
ATOM     13  O   UNL     1       5.186   6.753  15.202  0.00  0.00    +0.000 OA
ATOM     14  N   UNL     1       5.569   4.504  15.243  0.00  0.00    +0.000 N 
ATOM     15  H   UNL     1       5.746   3.674  15.795  0.00  0.00    +0.000 HD
BRANCH  14  16
ATOM     16  C   UNL     1       5.300   4.382  13.820  0.00  0.00    +0.000 C 
BRANCH  16  17
ATOM     17  C   UNL     1       6.383   3.681  12.989  0.00  0.00    +0.000 C 
ATOM     18  C   UNL     1       5.800   2.812  11.876  0.00  0.00    +0.000 C 
ATOM     19  C   UNL     1       7.414   4.664  12.435  0.00  0.00    +0.000 C 
ENDBRANCH  16  17
ENDBRANCH  14  16
ENDBRANCH  11  12
ENDBRANCH  10  11
TORSDOF 4
ENDMDL
MODEL 9
REMARK VINA RESULT:      -6.6      2.030      2.489
REMARK  Name = 
REMARK  7 active torsions:
REMARK  status: ('A' for Active; 'I' for Inactive)
REMARK    1  A    between atoms: C_1  and  C_2
REMARK    2  A    between atoms: N_10  and  C_11
REMARK    3  A    between atoms: C_11  and  C_12
REMARK    4  A    between atoms: N_14  and  C_15
REMARK    5  A    between atoms: C_15  and  C_16
REMARK    6  A    between atoms: C_16  and  C_17
REMARK    7  A    between atoms: C_16  and  C_18
REMARK                            x       y       z     vdW  Elec       q    Type
REMARK                         _______ _______ _______ _____ _____    ______ ____
ROOT
ATOM      1  C   UNL     1       2.598   7.965  18.071  0.00  0.00    +0.000 C 
ATOM      2  C   UNL     1       3.194   6.615  18.262  0.00  0.00    +0.000 A 
ATOM      3  C   UNL     1       2.926   5.667  19.235  0.00  0.00    +0.000 A 
ATOM      4 CL   UNL     1       1.799   5.806  20.500  0.00  0.00    +0.000 Cl
ATOM      5  C   UNL     1       3.797   4.598  18.957  0.00  0.00    +0.000 A 
ATOM      6  N   UNL     1       3.993   3.346  19.669  0.00  0.00    +0.000 N 
ATOM      7  O   UNL     1       3.280   3.137  20.659  0.00  0.00    +0.000 OA
ATOM      8  O   UNL     1       4.862   2.564  19.250  0.00  0.00    +0.000 OA
ATOM      9  N   UNL     1       4.553   4.834  17.866  0.00  0.00    +0.000 NA
ATOM     10  N   UNL     1       4.161   6.062  17.448  0.00  0.00    +0.000 N 
ENDROOT
BRANCH  10  11
ATOM     11  C   UNL     1       4.923   6.668  16.359  0.00  0.00    +0.000 C 
BRANCH  11  12
ATOM     12  C   UNL     1       5.947   5.751  15.731  0.00  0.00    +0.000 C 
ATOM     13  O   UNL     1       7.150   5.868  15.958  0.00  0.00    +0.000 OA
ATOM     14  N   UNL     1       5.459   4.729  14.933  0.00  0.00    +0.000 N 
ATOM     15  H   UNL     1       4.474   4.677  14.706  0.00  0.00    +0.000 HD
BRANCH  14  16
ATOM     16  C   UNL     1       6.392   3.795  14.324  0.00  0.00    +0.000 C 
BRANCH  16  17
ATOM     17  C   UNL     1       6.207   3.544  12.821  0.00  0.00    +0.000 C 
ATOM     18  C   UNL     1       4.755   3.706  12.372  0.00  0.00    +0.000 C 
ATOM     19  C   UNL     1       7.144   4.402  11.972  0.00  0.00    +0.000 C 
ENDBRANCH  16  17
ENDBRANCH  14  16
ENDBRANCH  11  12
ENDBRANCH  10  11
TORSDOF 4
ENDMDL
