MODEL 1
REMARK VINA RESULT:      -9.2      0.000      0.000
REMARK  Name = 
REMARK  10 active torsions:
REMARK  status: ('A' for Active; 'I' for Inactive)
REMARK    1  A    between atoms: C_1  and  C_2
REMARK    2  A    between atoms: N_4  and  S_5
REMARK    3  A    between atoms: S_5  and  C_8
REMARK    4  A    between atoms: C_12  and  C_13
REMARK    5  A    between atoms: N_15  and  C_16
REMARK    6  A    between atoms: N_15  and  C_24
REMARK    7  A    between atoms: C_16  and  C_17
REMARK    8  A    between atoms: C_17  and  C_18
REMARK    9  A    between atoms: C_24  and  C_25
REMARK   10  A    between atoms: C_33  and  C_34
REMARK                            x       y       z     vdW  Elec       q    Type
REMARK                         _______ _______ _______ _____ _____    ______ ____
ROOT
ATOM      1  C   UNL     1       0.708   9.384  21.135  0.00  0.00    +0.000 C 
ATOM      2  O   UNL     1       0.990   8.832  22.201  0.00  0.00    +0.000 OA
ATOM      3  N   UNL     1      -0.179  10.489  21.091  0.00  0.00    +0.000 N 
ENDROOT
BRANCH   1   8
ATOM      4  C   UNL     1       2.586   6.978  18.868  0.00  0.00    +0.000 A 
ATOM      5  C   UNL     1       2.818   7.761  17.731  0.00  0.00    +0.000 A 
ATOM      6  C   UNL     1       2.311   9.056  17.673  0.00  0.00    +0.000 A 
ATOM      7  C   UNL     1       1.585   9.578  18.748  0.00  0.00    +0.000 A 
ATOM      8  C   UNL     1       1.408   8.838  19.922  0.00  0.00    +0.000 A 
ATOM      9  C   UNL     1       1.861   7.501  19.951  0.00  0.00    +0.000 A 
BRANCH   4  10
ATOM     10  S   UNL     1       3.155   5.278  18.856  0.00  0.00    +0.000 S 
ATOM     11  O   UNL     1       2.246   4.538  18.006  0.00  0.00    +0.000 OA
ATOM     12  O   UNL     1       3.384   4.883  20.228  0.00  0.00    +0.000 OA
BRANCH  10  16
ATOM     13  C   UNL     1       7.507   6.803  17.838  0.00  0.00    +0.000 C 
ATOM     14  C   UNL     1       7.171   5.342  18.126  0.00  0.00    +0.000 C 
ATOM     15  C   UNL     1       5.862   5.151  18.912  0.00  0.00    +0.000 C 
ATOM     16  N   UNL     1       4.659   5.337  18.051  0.00  0.00    +0.000 NA
ATOM     17  C   UNL     1       4.739   4.572  16.777  0.00  0.00    +0.000 C 
ATOM     18  C   UNL     1       6.076   4.837  16.064  0.00  0.00    +0.000 C 
ATOM     19  C   UNL     1       6.217   3.950  14.833  0.00  0.00    +0.000 C 
ATOM     20  O   UNL     1       7.190   4.552  16.925  0.00  0.00    +0.000 OA
ENDBRANCH  10  16
ENDBRANCH   4  10
ENDBRANCH   1   8
BRANCH   3  21
ATOM     21  C   UNL     1      -0.747  10.973  22.364  0.00  0.00    +0.000 C 
BRANCH  21  22
ATOM     22  C   UNL     1      -0.762  12.510  22.547  0.00  0.00    +0.000 C 
BRANCH  22  23
ATOM     23  C   UNL     1      -1.986  13.094  23.215  0.00  0.00    +0.000 A 
ATOM     24  C   UNL     1      -3.109  12.273  23.404  0.00  0.00    +0.000 A 
ATOM     25  C   UNL     1      -4.334  12.827  23.775  0.00  0.00    +0.000 A 
ATOM     26  C   UNL     1      -4.441  14.197  23.996  0.00  0.00    +0.000 A 
ATOM     27  C   UNL     1      -3.307  14.999  23.931  0.00  0.00    +0.000 A 
ATOM     28  C   UNL     1      -2.083  14.443  23.569  0.00  0.00    +0.000 A 
ENDBRANCH  22  23
ENDBRANCH  21  22
ENDBRANCH   3  21
BRANCH   3  29
ATOM     29  C   UNL     1      -0.405  11.373  19.939  0.00  0.00    +0.000 C 
BRANCH  29  30
ATOM     30  C   UNL     1      -1.719  11.152  19.236  0.00  0.00    +0.000 A 
ATOM     31  C   UNL     1      -1.835  10.106  18.312  0.00  0.00    +0.000 A 
ATOM     32  C   UNL     1      -2.984   9.989  17.524  0.00  0.00    +0.000 A 
ATOM     33  C   UNL     1      -4.027  10.896  17.688  0.00  0.00    +0.000 A 
ATOM     34  C   UNL     1      -3.958  11.885  18.660  0.00  0.00    +0.000 A 
ATOM     35  C   UNL     1      -2.816  11.998  19.457  0.00  0.00    +0.000 A 
ENDBRANCH  29  30
ENDBRANCH   3  29
TORSDOF 8
ENDMDL
MODEL 2
REMARK VINA RESULT:      -9.1      4.192      9.850
REMARK  Name = 
REMARK  10 active torsions:
REMARK  status: ('A' for Active; 'I' for Inactive)
REMARK    1  A    between atoms: C_1  and  C_2
REMARK    2  A    between atoms: N_4  and  S_5
REMARK    3  A    between atoms: S_5  and  C_8
REMARK    4  A    between atoms: C_12  and  C_13
REMARK    5  A    between atoms: N_15  and  C_16
REMARK    6  A    between atoms: N_15  and  C_24
REMARK    7  A    between atoms: C_16  and  C_17
REMARK    8  A    between atoms: C_17  and  C_18
REMARK    9  A    between atoms: C_24  and  C_25
REMARK   10  A    between atoms: C_33  and  C_34
REMARK                            x       y       z     vdW  Elec       q    Type
REMARK                         _______ _______ _______ _____ _____    ______ ____
ROOT
ATOM      1  C   UNL     1      -0.338  10.501  22.514  0.00  0.00    +0.000 C 
ATOM      2  O   UNL     1      -0.014  10.059  23.619  0.00  0.00    +0.000 OA
ATOM      3  N   UNL     1      -0.068   9.778  21.325  0.00  0.00    +0.000 N 
ENDROOT
BRANCH   1   8
ATOM      4  C   UNL     1      -3.198  12.997  22.738  0.00  0.00    +0.000 A 
ATOM      5  C   UNL     1      -2.550  14.213  22.492  0.00  0.00    +0.000 A 
ATOM      6  C   UNL     1      -1.170  14.233  22.313  0.00  0.00    +0.000 A 
ATOM      7  C   UNL     1      -0.434  13.045  22.365  0.00  0.00    +0.000 A 
ATOM      8  C   UNL     1      -1.073  11.812  22.534  0.00  0.00    +0.000 A 
ATOM      9  C   UNL     1      -2.462  11.802  22.786  0.00  0.00    +0.000 A 
BRANCH   4  10
ATOM     10  S   UNL     1      -4.957  13.027  23.079  0.00  0.00    +0.000 S 
ATOM     11  O   UNL     1      -5.368  14.416  23.036  0.00  0.00    +0.000 OA
ATOM     12  O   UNL     1      -5.191  12.215  24.251  0.00  0.00    +0.000 OA
BRANCH  10  16
ATOM     13  C   UNL     1      -7.634   9.921  20.735  0.00  0.00    +0.000 C 
ATOM     14  C   UNL     1      -7.707  11.431  20.518  0.00  0.00    +0.000 C 
ATOM     15  C   UNL     1      -7.157  12.253  21.697  0.00  0.00    +0.000 C 
ATOM     16  N   UNL     1      -5.666  12.254  21.732  0.00  0.00    +0.000 NA
ATOM     17  C   UNL     1      -5.059  12.573  20.411  0.00  0.00    +0.000 C 
ATOM     18  C   UNL     1      -5.666  11.694  19.304  0.00  0.00    +0.000 C 
ATOM     19  C   UNL     1      -5.147  12.115  17.935  0.00  0.00    +0.000 C 
ATOM     20  O   UNL     1      -7.098  11.813  19.273  0.00  0.00    +0.000 OA
ENDBRANCH  10  16
ENDBRANCH   4  10
ENDBRANCH   1   8
BRANCH   3  21
ATOM     21  C   UNL     1       0.599   8.467  21.447  0.00  0.00    +0.000 C 
BRANCH  21  22
ATOM     22  C   UNL     1       1.762   8.215  20.458  0.00  0.00    +0.000 C 
BRANCH  22  23
ATOM     23  C   UNL     1       1.961   6.787  20.005  0.00  0.00    +0.000 A 
ATOM     24  C   UNL     1       2.504   6.551  18.732  0.00  0.00    +0.000 A 
ATOM     25  C   UNL     1       2.468   5.273  18.175  0.00  0.00    +0.000 A 
ATOM     26  C   UNL     1       1.923   4.214  18.895  0.00  0.00    +0.000 A 
ATOM     27  C   UNL     1       1.495   4.414  20.203  0.00  0.00    +0.000 A 
ATOM     28  C   UNL     1       1.540   5.688  20.761  0.00  0.00    +0.000 A 
ENDBRANCH  22  23
ENDBRANCH  21  22
ENDBRANCH   3  21
BRANCH   3  29
ATOM     29  C   UNL     1      -0.608  10.073  19.990  0.00  0.00    +0.000 C 
BRANCH  29  30
ATOM     30  C   UNL     1      -0.098  11.355  19.385  0.00  0.00    +0.000 A 
ATOM     31  C   UNL     1       1.276  11.628  19.418  0.00  0.00    +0.000 A 
ATOM     32  C   UNL     1       1.753  12.882  19.021  0.00  0.00    +0.000 A 
ATOM     33  C   UNL     1       0.859  13.843  18.561  0.00  0.00    +0.000 A 
ATOM     34  C   UNL     1      -0.494  13.554  18.444  0.00  0.00    +0.000 A 
ATOM     35  C   UNL     1      -0.972  12.300  18.828  0.00  0.00    +0.000 A 
ENDBRANCH  29  30
ENDBRANCH   3  29
TORSDOF 8
ENDMDL
MODEL 3
REMARK VINA RESULT:      -8.9      3.362     10.181
REMARK  Name = 
REMARK  10 active torsions:
REMARK  status: ('A' for Active; 'I' for Inactive)
REMARK    1  A    between atoms: C_1  and  C_2
REMARK    2  A    between atoms: N_4  and  S_5
REMARK    3  A    between atoms: S_5  and  C_8
REMARK    4  A    between atoms: C_12  and  C_13
REMARK    5  A    between atoms: N_15  and  C_16
REMARK    6  A    between atoms: N_15  and  C_24
REMARK    7  A    between atoms: C_16  and  C_17
REMARK    8  A    between atoms: C_17  and  C_18
REMARK    9  A    between atoms: C_24  and  C_25
REMARK   10  A    between atoms: C_33  and  C_34
REMARK                            x       y       z     vdW  Elec       q    Type
REMARK                         _______ _______ _______ _____ _____    ______ ____
ROOT
ATOM      1  C   UNL     1       1.788   8.979  18.493  0.00  0.00    +0.000 C 
ATOM      2  O   UNL     1       2.044   9.828  17.637  0.00  0.00    +0.000 OA
ATOM      3  N   UNL     1       2.311   7.664  18.404  0.00  0.00    +0.000 N 
ENDROOT
BRANCH   1   8
ATOM      4  C   UNL     1      -0.715  11.040  20.478  0.00  0.00    +0.000 A 
ATOM      5  C   UNL     1      -0.616  10.478  21.756  0.00  0.00    +0.000 A 
ATOM      6  C   UNL     1       0.222   9.386  21.963  0.00  0.00    +0.000 A 
ATOM      7  C   UNL     1       0.971   8.859  20.906  0.00  0.00    +0.000 A 
ATOM      8  C   UNL     1       0.941   9.454  19.639  0.00  0.00    +0.000 A 
ATOM      9  C   UNL     1       0.038  10.516  19.415  0.00  0.00    +0.000 A 
BRANCH   4  10
ATOM     10  S   UNL     1      -1.892  12.369  20.226  0.00  0.00    +0.000 S 
ATOM     11  O   UNL     1      -1.171  13.450  19.586  0.00  0.00    +0.000 OA
ATOM     12  O   UNL     1      -2.595  12.574  21.472  0.00  0.00    +0.000 OA
BRANCH  10  16
ATOM     13  C   UNL     1      -5.823  10.310  18.610  0.00  0.00    +0.000 C 
ATOM     14  C   UNL     1      -5.312  11.660  18.112  0.00  0.00    +0.000 C 
ATOM     15  C   UNL     1      -4.354  12.360  19.093  0.00  0.00    +0.000 C 
ATOM     16  N   UNL     1      -2.992  11.752  19.077  0.00  0.00    +0.000 NA
ATOM     17  C   UNL     1      -2.457  11.577  17.699  0.00  0.00    +0.000 C 
ATOM     18  C   UNL     1      -3.481  10.862  16.801  0.00  0.00    +0.000 C 
ATOM     19  C   UNL     1      -2.990  10.806  15.360  0.00  0.00    +0.000 C 
ATOM     20  O   UNL     1      -4.741  11.553  16.797  0.00  0.00    +0.000 OA
ENDBRANCH  10  16
ENDBRANCH   4  10
ENDBRANCH   1   8
BRANCH   3  21
ATOM     21  C   UNL     1       3.188   7.343  17.261  0.00  0.00    +0.000 C 
BRANCH  21  22
ATOM     22  C   UNL     1       4.706   7.350  17.563  0.00  0.00    +0.000 C 
BRANCH  22  23
ATOM     23  C   UNL     1       5.482   6.127  17.130  0.00  0.00    +0.000 A 
ATOM     24  C   UNL     1       6.590   5.726  17.893  0.00  0.00    +0.000 A 
ATOM     25  C   UNL     1       7.480   4.771  17.399  0.00  0.00    +0.000 A 
ATOM     26  C   UNL     1       7.251   4.183  16.158  0.00  0.00    +0.000 A 
ATOM     27  C   UNL     1       6.090   4.483  15.453  0.00  0.00    +0.000 A 
ATOM     28  C   UNL     1       5.200   5.430  15.952  0.00  0.00    +0.000 A 
ENDBRANCH  22  23
ENDBRANCH  21  22
ENDBRANCH   3  21
BRANCH   3  29
ATOM     29  C   UNL     1       2.280   6.646  19.464  0.00  0.00    +0.000 C 
BRANCH  29  30
ATOM     30  C   UNL     1       2.575   5.247  18.988  0.00  0.00    +0.000 A 
ATOM     31  C   UNL     1       3.580   4.505  19.621  0.00  0.00    +0.000 A 
ATOM     32  C   UNL     1       3.988   3.278  19.091  0.00  0.00    +0.000 A 
ATOM     33  C   UNL     1       3.366   2.781  17.949  0.00  0.00    +0.000 A 
ATOM     34  C   UNL     1       2.312   3.467  17.362  0.00  0.00    +0.000 A 
ATOM     35  C   UNL     1       1.894   4.688  17.897  0.00  0.00    +0.000 A 
ENDBRANCH  29  30
ENDBRANCH   3  29
TORSDOF 8
ENDMDL
MODEL 4
REMARK VINA RESULT:      -8.9      2.221      3.240
REMARK  Name = 
REMARK  10 active torsions:
REMARK  status: ('A' for Active; 'I' for Inactive)
REMARK    1  A    between atoms: C_1  and  C_2
REMARK    2  A    between atoms: N_4  and  S_5
REMARK    3  A    between atoms: S_5  and  C_8
REMARK    4  A    between atoms: C_12  and  C_13
REMARK    5  A    between atoms: N_15  and  C_16
REMARK    6  A    between atoms: N_15  and  C_24
REMARK    7  A    between atoms: C_16  and  C_17
REMARK    8  A    between atoms: C_17  and  C_18
REMARK    9  A    between atoms: C_24  and  C_25
REMARK   10  A    between atoms: C_33  and  C_34
REMARK                            x       y       z     vdW  Elec       q    Type
REMARK                         _______ _______ _______ _____ _____    ______ ____
ROOT
ATOM      1  C   UNL     1       2.194   8.961  18.294  0.00  0.00    +0.000 C 
ATOM      2  O   UNL     1       2.777   9.002  17.208  0.00  0.00    +0.000 OA
ATOM      3  N   UNL     1       1.522  10.097  18.812  0.00  0.00    +0.000 N 
ENDROOT
BRANCH   1   8
ATOM      4  C   UNL     1       2.788   5.255  18.903  0.00  0.00    +0.000 A 
ATOM      5  C   UNL     1       2.197   5.061  20.157  0.00  0.00    +0.000 A 
ATOM      6  C   UNL     1       1.656   6.149  20.837  0.00  0.00    +0.000 A 
ATOM      7  C   UNL     1       1.690   7.426  20.267  0.00  0.00    +0.000 A 
ATOM      8  C   UNL     1       2.209   7.626  18.983  0.00  0.00    +0.000 A 
ATOM      9  C   UNL     1       2.820   6.535  18.327  0.00  0.00    +0.000 A 
BRANCH   4  10
ATOM     10  S   UNL     1       3.575   3.852  18.112  0.00  0.00    +0.000 S 
ATOM     11  O   UNL     1       2.684   3.410  17.059  0.00  0.00    +0.000 OA
ATOM     12  O   UNL     1       4.009   2.948  19.152  0.00  0.00    +0.000 OA
BRANCH  10  16
ATOM     13  C   UNL     1       7.263   6.739  17.501  0.00  0.00    +0.000 C 
ATOM     14  C   UNL     1       7.367   5.217  17.454  0.00  0.00    +0.000 C 
ATOM     15  C   UNL     1       6.208   4.494  18.165  0.00  0.00    +0.000 C 
ATOM     16  N   UNL     1       4.956   4.511  17.354  0.00  0.00    +0.000 NA
ATOM     17  C   UNL     1       5.179   4.095  15.943  0.00  0.00    +0.000 C 
ATOM     18  C   UNL     1       6.347   4.878  15.320  0.00  0.00    +0.000 C 
ATOM     19  C   UNL     1       6.664   4.357  13.924  0.00  0.00    +0.000 C 
ATOM     20  O   UNL     1       7.541   4.744  16.107  0.00  0.00    +0.000 OA
ENDBRANCH  10  16
ENDBRANCH   4  10
ENDBRANCH   1   8
BRANCH   3  21
ATOM     21  C   UNL     1       1.523  11.331  18.003  0.00  0.00    +0.000 C 
BRANCH  21  22
ATOM     22  C   UNL     1       2.371  12.497  18.566  0.00  0.00    +0.000 C 
BRANCH  22  23
ATOM     23  C   UNL     1       1.622  13.562  19.334  0.00  0.00    +0.000 A 
ATOM     24  C   UNL     1       1.843  13.679  20.715  0.00  0.00    +0.000 A 
ATOM     25  C   UNL     1       0.997  14.463  21.501  0.00  0.00    +0.000 A 
ATOM     26  C   UNL     1      -0.051  15.163  20.912  0.00  0.00    +0.000 A 
ATOM     27  C   UNL     1      -0.201  15.150  19.529  0.00  0.00    +0.000 A 
ATOM     28  C   UNL     1       0.649  14.375  18.745  0.00  0.00    +0.000 A 
ENDBRANCH  22  23
ENDBRANCH  21  22
ENDBRANCH   3  21
BRANCH   3  29
ATOM     29  C   UNL     1       0.601  10.111  19.958  0.00  0.00    +0.000 C 
BRANCH  29  30
ATOM     30  C   UNL     1      -0.764  10.669  19.649  0.00  0.00    +0.000 A 
ATOM     31  C   UNL     1      -1.463  10.190  18.534  0.00  0.00    +0.000 A 
ATOM     32  C   UNL     1      -2.649  10.810  18.129  0.00  0.00    +0.000 A 
ATOM     33  C   UNL     1      -3.149  11.883  18.860  0.00  0.00    +0.000 A 
ATOM     34  C   UNL     1      -2.509  12.312  20.015  0.00  0.00    +0.000 A 
ATOM     35  C   UNL     1      -1.330  11.687  20.429  0.00  0.00    +0.000 A 
ENDBRANCH  29  30
ENDBRANCH   3  29
TORSDOF 8
ENDMDL
MODEL 5
REMARK VINA RESULT:      -8.8      3.055     10.646
REMARK  Name = 
REMARK  10 active torsions:
REMARK  status: ('A' for Active; 'I' for Inactive)
REMARK    1  A    between atoms: C_1  and  C_2
REMARK    2  A    between atoms: N_4  and  S_5
REMARK    3  A    between atoms: S_5  and  C_8
REMARK    4  A    between atoms: C_12  and  C_13
REMARK    5  A    between atoms: N_15  and  C_16
REMARK    6  A    between atoms: N_15  and  C_24
REMARK    7  A    between atoms: C_16  and  C_17
REMARK    8  A    between atoms: C_17  and  C_18
REMARK    9  A    between atoms: C_24  and  C_25
REMARK   10  A    between atoms: C_33  and  C_34
REMARK                            x       y       z     vdW  Elec       q    Type
REMARK                         _______ _______ _______ _____ _____    ______ ____
ROOT
ATOM      1  C   UNL     1       1.824   9.034  18.604  0.00  0.00    +0.000 C 
ATOM      2  O   UNL     1       1.965   9.897  17.735  0.00  0.00    +0.000 OA
ATOM      3  N   UNL     1       2.428   7.757  18.478  0.00  0.00    +0.000 N 
ENDROOT
BRANCH   1   8
ATOM      4  C   UNL     1       0.016  11.262  21.099  0.00  0.00    +0.000 A 
ATOM      5  C   UNL     1      -0.389  10.346  22.076  0.00  0.00    +0.000 A 
ATOM      6  C   UNL     1      -0.129   8.990  21.898  0.00  0.00    +0.000 A 
ATOM      7  C   UNL     1       0.545   8.545  20.755  0.00  0.00    +0.000 A 
ATOM      8  C   UNL     1       1.024   9.453  19.805  0.00  0.00    +0.000 A 
ATOM      9  C   UNL     1       0.697  10.819  19.953  0.00  0.00    +0.000 A 
BRANCH   4  10
ATOM     10  S   UNL     1      -0.439  12.983  21.310  0.00  0.00    +0.000 S 
ATOM     11  O   UNL     1      -0.457  13.576  19.988  0.00  0.00    +0.000 OA
ATOM     12  O   UNL     1       0.385  13.530  22.363  0.00  0.00    +0.000 OA
BRANCH  10  16
ATOM     13  C   UNL     1      -4.000  12.461  24.369  0.00  0.00    +0.000 C 
ATOM     14  C   UNL     1      -3.835  13.683  23.467  0.00  0.00    +0.000 C 
ATOM     15  C   UNL     1      -2.397  13.884  22.954  0.00  0.00    +0.000 C 
ATOM     16  N   UNL     1      -2.055  12.932  21.857  0.00  0.00    +0.000 NA
ATOM     17  C   UNL     1      -3.096  12.881  20.795  0.00  0.00    +0.000 C 
ATOM     18  C   UNL     1      -4.491  12.668  21.405  0.00  0.00    +0.000 C 
ATOM     19  C   UNL     1      -5.570  12.754  20.333  0.00  0.00    +0.000 C 
ATOM     20  O   UNL     1      -4.787  13.673  22.390  0.00  0.00    +0.000 OA
ENDBRANCH  10  16
ENDBRANCH   4  10
ENDBRANCH   1   8
BRANCH   3  21
ATOM     21  C   UNL     1       3.249   7.495  17.280  0.00  0.00    +0.000 C 
BRANCH  21  22
ATOM     22  C   UNL     1       4.780   7.494  17.507  0.00  0.00    +0.000 C 
BRANCH  22  23
ATOM     23  C   UNL     1       5.556   6.377  16.845  0.00  0.00    +0.000 A 
ATOM     24  C   UNL     1       5.043   5.803  15.672  0.00  0.00    +0.000 A 
ATOM     25  C   UNL     1       5.580   4.615  15.174  0.00  0.00    +0.000 A 
ATOM     26  C   UNL     1       6.655   4.012  15.821  0.00  0.00    +0.000 A 
ATOM     27  C   UNL     1       7.247   4.640  16.912  0.00  0.00    +0.000 A 
ATOM     28  C   UNL     1       6.715   5.829  17.402  0.00  0.00    +0.000 A 
ENDBRANCH  22  23
ENDBRANCH  21  22
ENDBRANCH   3  21
BRANCH   3  29
ATOM     29  C   UNL     1       2.537   6.742  19.536  0.00  0.00    +0.000 C 
BRANCH  29  30
ATOM     30  C   UNL     1       2.793   5.347  19.031  0.00  0.00    +0.000 A 
ATOM     31  C   UNL     1       3.884   4.625  19.534  0.00  0.00    +0.000 A 
ATOM     32  C   UNL     1       4.242   3.402  18.959  0.00  0.00    +0.000 A 
ATOM     33  C   UNL     1       3.490   2.889  17.907  0.00  0.00    +0.000 A 
ATOM     34  C   UNL     1       2.357   3.554  17.457  0.00  0.00    +0.000 A 
ATOM     35  C   UNL     1       1.989   4.770  18.037  0.00  0.00    +0.000 A 
ENDBRANCH  29  30
ENDBRANCH   3  29
TORSDOF 8
ENDMDL
MODEL 6
REMARK VINA RESULT:      -8.8      3.379     10.198
REMARK  Name = 
REMARK  10 active torsions:
REMARK  status: ('A' for Active; 'I' for Inactive)
REMARK    1  A    between atoms: C_1  and  C_2
REMARK    2  A    between atoms: N_4  and  S_5
REMARK    3  A    between atoms: S_5  and  C_8
REMARK    4  A    between atoms: C_12  and  C_13
REMARK    5  A    between atoms: N_15  and  C_16
REMARK    6  A    between atoms: N_15  and  C_24
REMARK    7  A    between atoms: C_16  and  C_17
REMARK    8  A    between atoms: C_17  and  C_18
REMARK    9  A    between atoms: C_24  and  C_25
REMARK   10  A    between atoms: C_33  and  C_34
REMARK                            x       y       z     vdW  Elec       q    Type
REMARK                         _______ _______ _______ _____ _____    ______ ____
ROOT
ATOM      1  C   UNL     1       1.884   8.927  18.389  0.00  0.00    +0.000 C 
ATOM      2  O   UNL     1       2.125   9.784  17.536  0.00  0.00    +0.000 OA
ATOM      3  N   UNL     1       2.430   7.622  18.295  0.00  0.00    +0.000 N 
ENDROOT
BRANCH   1   8
ATOM      4  C   UNL     1      -0.612  10.972  20.400  0.00  0.00    +0.000 A 
ATOM      5  C   UNL     1      -0.544  10.369  21.660  0.00  0.00    +0.000 A 
ATOM      6  C   UNL     1       0.270   9.255  21.846  0.00  0.00    +0.000 A 
ATOM      7  C   UNL     1       1.026   8.748  20.784  0.00  0.00    +0.000 A 
ATOM      8  C   UNL     1       1.028   9.382  19.537  0.00  0.00    +0.000 A 
ATOM      9  C   UNL     1       0.148  10.468  19.332  0.00  0.00    +0.000 A 
BRANCH   4  10
ATOM     10  S   UNL     1      -1.759  12.331  20.172  0.00  0.00    +0.000 S 
ATOM     11  O   UNL     1      -0.980  13.465  19.718  0.00  0.00    +0.000 OA
ATOM     12  O   UNL     1      -2.581  12.415  21.358  0.00  0.00    +0.000 OA
BRANCH  10  16
ATOM     13  C   UNL     1      -2.812  10.885  15.800  0.00  0.00    +0.000 C 
ATOM     14  C   UNL     1      -3.306  10.183  17.063  0.00  0.00    +0.000 C 
ATOM     15  C   UNL     1      -2.459  10.487  18.312  0.00  0.00    +0.000 C 
ATOM     16  N   UNL     1      -2.743  11.844  18.864  0.00  0.00    +0.000 NA
ATOM     17  C   UNL     1      -4.199  12.110  19.016  0.00  0.00    +0.000 C 
ATOM     18  C   UNL     1      -4.953  11.786  17.716  0.00  0.00    +0.000 C 
ATOM     19  C   UNL     1      -6.457  11.927  17.913  0.00  0.00    +0.000 C 
ATOM     20  O   UNL     1      -4.702  10.436  17.293  0.00  0.00    +0.000 OA
ENDBRANCH  10  16
ENDBRANCH   4  10
ENDBRANCH   1   8
BRANCH   3  21
ATOM     21  C   UNL     1       3.314   7.322  17.152  0.00  0.00    +0.000 C 
BRANCH  21  22
ATOM     22  C   UNL     1       4.832   7.425  17.437  0.00  0.00    +0.000 C 
BRANCH  22  23
ATOM     23  C   UNL     1       5.701   6.339  16.843  0.00  0.00    +0.000 A 
ATOM     24  C   UNL     1       5.354   5.806  15.591  0.00  0.00    +0.000 A 
ATOM     25  C   UNL     1       5.966   4.642  15.126  0.00  0.00    +0.000 A 
ATOM     26  C   UNL     1       6.953   4.022  15.887  0.00  0.00    +0.000 A 
ATOM     27  C   UNL     1       7.389   4.612  17.068  0.00  0.00    +0.000 A 
ATOM     28  C   UNL     1       6.783   5.778  17.527  0.00  0.00    +0.000 A 
ENDBRANCH  22  23
ENDBRANCH  21  22
ENDBRANCH   3  21
BRANCH   3  29
ATOM     29  C   UNL     1       2.418   6.599  19.351  0.00  0.00    +0.000 C 
BRANCH  29  30
ATOM     30  C   UNL     1       2.766   5.213  18.874  0.00  0.00    +0.000 A 
ATOM     31  C   UNL     1       3.852   4.543  19.453  0.00  0.00    +0.000 A 
ATOM     32  C   UNL     1       4.299   3.333  18.913  0.00  0.00    +0.000 A 
ATOM     33  C   UNL     1       3.639   2.782  17.819  0.00  0.00    +0.000 A 
ATOM     34  C   UNL     1       2.511   3.395  17.290  0.00  0.00    +0.000 A 
ATOM     35  C   UNL     1       2.054   4.597  17.835  0.00  0.00    +0.000 A 
ENDBRANCH  29  30
ENDBRANCH   3  29
TORSDOF 8
ENDMDL
MODEL 7
REMARK VINA RESULT:      -8.8      3.370     10.361
REMARK  Name = 
REMARK  10 active torsions:
REMARK  status: ('A' for Active; 'I' for Inactive)
REMARK    1  A    between atoms: C_1  and  C_2
REMARK    2  A    between atoms: N_4  and  S_5
REMARK    3  A    between atoms: S_5  and  C_8
REMARK    4  A    between atoms: C_12  and  C_13
REMARK    5  A    between atoms: N_15  and  C_16
REMARK    6  A    between atoms: N_15  and  C_24
REMARK    7  A    between atoms: C_16  and  C_17
REMARK    8  A    between atoms: C_17  and  C_18
REMARK    9  A    between atoms: C_24  and  C_25
REMARK   10  A    between atoms: C_33  and  C_34
REMARK                            x       y       z     vdW  Elec       q    Type
REMARK                         _______ _______ _______ _____ _____    ______ ____
ROOT
ATOM      1  C   UNL     1       1.949   8.358  18.498  0.00  0.00    +0.000 C 
ATOM      2  O   UNL     1       2.046   8.866  17.379  0.00  0.00    +0.000 OA
ATOM      3  N   UNL     1       2.619   7.150  18.818  0.00  0.00    +0.000 N 
ENDROOT
BRANCH   1   8
ATOM      4  C   UNL     1      -0.307  11.056  19.943  0.00  0.00    +0.000 A 
ATOM      5  C   UNL     1      -0.364  10.702  21.296  0.00  0.00    +0.000 A 
ATOM      6  C   UNL     1       0.282   9.549  21.733  0.00  0.00    +0.000 A 
ATOM      7  C   UNL     1       0.995   8.754  20.830  0.00  0.00    +0.000 A 
ATOM      8  C   UNL     1       1.126   9.132  19.489  0.00  0.00    +0.000 A 
ATOM      9  C   UNL     1       0.411  10.262  19.034  0.00  0.00    +0.000 A 
BRANCH   4  10
ATOM     10  S   UNL     1      -1.248  12.482  19.399  0.00  0.00    +0.000 S 
ATOM     11  O   UNL     1      -1.827  12.137  18.117  0.00  0.00    +0.000 OA
ATOM     12  O   UNL     1      -0.406  13.646  19.550  0.00  0.00    +0.000 OA
BRANCH  10  16
ATOM     13  C   UNL     1      -3.393  12.466  23.607  0.00  0.00    +0.000 C 
ATOM     14  C   UNL     1      -3.535  13.598  22.592  0.00  0.00    +0.000 C 
ATOM     15  C   UNL     1      -2.394  13.650  21.560  0.00  0.00    +0.000 C 
ATOM     16  N   UNL     1      -2.535  12.594  20.516  0.00  0.00    +0.000 NA
ATOM     17  C   UNL     1      -3.903  12.540  19.933  0.00  0.00    +0.000 C 
ATOM     18  C   UNL     1      -4.967  12.480  21.041  0.00  0.00    +0.000 C 
ATOM     19  C   UNL     1      -6.369  12.563  20.449  0.00  0.00    +0.000 C 
ATOM     20  O   UNL     1      -4.825  13.577  21.958  0.00  0.00    +0.000 OA
ENDBRANCH  10  16
ENDBRANCH   4  10
ENDBRANCH   1   8
BRANCH   3  21
ATOM     21  C   UNL     1       3.454   6.525  17.774  0.00  0.00    +0.000 C 
BRANCH  21  22
ATOM     22  C   UNL     1       4.643   5.677  18.288  0.00  0.00    +0.000 C 
BRANCH  22  23
ATOM     23  C   UNL     1       4.446   4.178  18.293  0.00  0.00    +0.000 A 
ATOM     24  C   UNL     1       3.692   3.593  17.264  0.00  0.00    +0.000 A 
ATOM     25  C   UNL     1       3.271   2.266  17.363  0.00  0.00    +0.000 A 
ATOM     26  C   UNL     1       3.629   1.503  18.470  0.00  0.00    +0.000 A 
ATOM     27  C   UNL     1       4.478   2.037  19.434  0.00  0.00    +0.000 A 
ATOM     28  C   UNL     1       4.904   3.358  19.329  0.00  0.00    +0.000 A 
ENDBRANCH  22  23
ENDBRANCH  21  22
ENDBRANCH   3  21
BRANCH   3  29
ATOM     29  C   UNL     1       2.780   6.578  20.162  0.00  0.00    +0.000 C 
BRANCH  29  30
ATOM     30  C   UNL     1       2.070   5.265  20.365  0.00  0.00    +0.000 A 
ATOM     31  C   UNL     1       2.373   4.489  21.491  0.00  0.00    +0.000 A 
ATOM     32  C   UNL     1       1.858   3.195  21.612  0.00  0.00    +0.000 A 
ATOM     33  C   UNL     1       1.015   2.694  20.624  0.00  0.00    +0.000 A 
ATOM     34  C   UNL     1       0.640   3.486  19.546  0.00  0.00    +0.000 A 
ATOM     35  C   UNL     1       1.143   4.783  19.429  0.00  0.00    +0.000 A 
ENDBRANCH  29  30
ENDBRANCH   3  29
TORSDOF 8
ENDMDL
MODEL 8
REMARK VINA RESULT:      -8.7      2.054      3.594
REMARK  Name = 
REMARK  10 active torsions:
REMARK  status: ('A' for Active; 'I' for Inactive)
REMARK    1  A    between atoms: C_1  and  C_2
REMARK    2  A    between atoms: N_4  and  S_5
REMARK    3  A    between atoms: S_5  and  C_8
REMARK    4  A    between atoms: C_12  and  C_13
REMARK    5  A    between atoms: N_15  and  C_16
REMARK    6  A    between atoms: N_15  and  C_24
REMARK    7  A    between atoms: C_16  and  C_17
REMARK    8  A    between atoms: C_17  and  C_18
REMARK    9  A    between atoms: C_24  and  C_25
REMARK   10  A    between atoms: C_33  and  C_34
REMARK                            x       y       z     vdW  Elec       q    Type
REMARK                         _______ _______ _______ _____ _____    ______ ____
ROOT
ATOM      1  C   UNL     1       2.172   8.954  18.497  0.00  0.00    +0.000 C 
ATOM      2  O   UNL     1       3.142   9.216  17.781  0.00  0.00    +0.000 OA
ATOM      3  N   UNL     1       1.112   9.881  18.666  0.00  0.00    +0.000 N 
ENDROOT
BRANCH   1   8
ATOM      4  C   UNL     1       2.741   5.218  18.915  0.00  0.00    +0.000 A 
ATOM      5  C   UNL     1       2.150   4.965  20.158  0.00  0.00    +0.000 A 
ATOM      6  C   UNL     1       1.617   6.020  20.893  0.00  0.00    +0.000 A 
ATOM      7  C   UNL     1       1.660   7.324  20.390  0.00  0.00    +0.000 A 
ATOM      8  C   UNL     1       2.179   7.586  19.117  0.00  0.00    +0.000 A 
ATOM      9  C   UNL     1       2.782   6.526  18.404  0.00  0.00    +0.000 A 
BRANCH   4  10
ATOM     10  S   UNL     1       3.518   3.853  18.052  0.00  0.00    +0.000 S 
ATOM     11  O   UNL     1       2.629   3.479  16.971  0.00  0.00    +0.000 OA
ATOM     12  O   UNL     1       3.936   2.888  19.044  0.00  0.00    +0.000 OA
BRANCH  10  16
ATOM     13  C   UNL     1       7.185   6.792  17.575  0.00  0.00    +0.000 C 
ATOM     14  C   UNL     1       7.309   5.271  17.515  0.00  0.00    +0.000 C 
ATOM     15  C   UNL     1       6.140   4.527  18.186  0.00  0.00    +0.000 C 
ATOM     16  N   UNL     1       4.911   4.536  17.340  0.00  0.00    +0.000 NA
ATOM     17  C   UNL     1       5.179   4.138  15.932  0.00  0.00    +0.000 C 
ATOM     18  C   UNL     1       6.353   4.942  15.350  0.00  0.00    +0.000 C 
ATOM     19  C   UNL     1       6.716   4.439  13.958  0.00  0.00    +0.000 C 
ATOM     20  O   UNL     1       7.527   4.815  16.169  0.00  0.00    +0.000 OA
ENDBRANCH  10  16
ENDBRANCH   4  10
ENDBRANCH   1   8
BRANCH   3  21
ATOM     21  C   UNL     1       1.194  11.166  17.945  0.00  0.00    +0.000 C 
BRANCH  21  22
ATOM     22  C   UNL     1       2.224  12.179  18.502  0.00  0.00    +0.000 C 
BRANCH  22  23
ATOM     23  C   UNL     1       1.663  13.343  19.286  0.00  0.00    +0.000 A 
ATOM     24  C   UNL     1       2.038  13.495  20.630  0.00  0.00    +0.000 A 
ATOM     25  C   UNL     1       1.357  14.389  21.457  0.00  0.00    +0.000 A 
ATOM     26  C   UNL     1       0.324  15.166  20.941  0.00  0.00    +0.000 A 
ATOM     27  C   UNL     1       0.028  15.111  19.583  0.00  0.00    +0.000 A 
ATOM     28  C   UNL     1       0.714  14.224  18.758  0.00  0.00    +0.000 A 
ENDBRANCH  22  23
ENDBRANCH  21  22
ENDBRANCH   3  21
BRANCH   3  29
ATOM     29  C   UNL     1      -0.192   9.602  19.285  0.00  0.00    +0.000 C 
BRANCH  29  30
ATOM     30  C   UNL     1      -0.628  10.627  20.299  0.00  0.00    +0.000 A 
ATOM     31  C   UNL     1      -0.092  10.582  21.593  0.00  0.00    +0.000 A 
ATOM     32  C   UNL     1      -0.606  11.410  22.595  0.00  0.00    +0.000 A 
ATOM     33  C   UNL     1      -1.629  12.303  22.293  0.00  0.00    +0.000 A 
ATOM     34  C   UNL     1      -2.109  12.417  20.994  0.00  0.00    +0.000 A 
ATOM     35  C   UNL     1      -1.589  11.599  19.988  0.00  0.00    +0.000 A 
ENDBRANCH  29  30
ENDBRANCH   3  29
TORSDOF 8
ENDMDL
MODEL 9
REMARK VINA RESULT:      -8.7      2.502      3.823
REMARK  Name = 
REMARK  10 active torsions:
REMARK  status: ('A' for Active; 'I' for Inactive)
REMARK    1  A    between atoms: C_1  and  C_2
REMARK    2  A    between atoms: N_4  and  S_5
REMARK    3  A    between atoms: S_5  and  C_8
REMARK    4  A    between atoms: C_12  and  C_13
REMARK    5  A    between atoms: N_15  and  C_16
REMARK    6  A    between atoms: N_15  and  C_24
REMARK    7  A    between atoms: C_16  and  C_17
REMARK    8  A    between atoms: C_17  and  C_18
REMARK    9  A    between atoms: C_24  and  C_25
REMARK   10  A    between atoms: C_33  and  C_34
REMARK                            x       y       z     vdW  Elec       q    Type
REMARK                         _______ _______ _______ _____ _____    ______ ____
ROOT
ATOM      1  C   UNL     1       2.268   9.030  18.359  0.00  0.00    +0.000 C 
ATOM      2  O   UNL     1       3.076   9.153  17.436  0.00  0.00    +0.000 OA
ATOM      3  N   UNL     1       1.406  10.094  18.727  0.00  0.00    +0.000 N 
ENDROOT
BRANCH   1   8
ATOM      4  C   UNL     1       2.751   5.294  18.876  0.00  0.00    +0.000 A 
ATOM      5  C   UNL     1       2.130   5.083  20.113  0.00  0.00    +0.000 A 
ATOM      6  C   UNL     1       1.605   6.166  20.812  0.00  0.00    +0.000 A 
ATOM      7  C   UNL     1       1.685   7.456  20.279  0.00  0.00    +0.000 A 
ATOM      8  C   UNL     1       2.234   7.677  19.011  0.00  0.00    +0.000 A 
ATOM      9  C   UNL     1       2.829   6.589  18.336  0.00  0.00    +0.000 A 
BRANCH   4  10
ATOM     10  S   UNL     1       3.517   3.893  18.062  0.00  0.00    +0.000 S 
ATOM     11  O   UNL     1       2.623   3.488  16.996  0.00  0.00    +0.000 OA
ATOM     12  O   UNL     1       3.928   2.961  19.087  0.00  0.00    +0.000 OA
BRANCH  10  16
ATOM     13  C   UNL     1       7.234   6.753  17.503  0.00  0.00    +0.000 C 
ATOM     14  C   UNL     1       7.327   5.229  17.459  0.00  0.00    +0.000 C 
ATOM     15  C   UNL     1       6.153   4.516  18.154  0.00  0.00    +0.000 C 
ATOM     16  N   UNL     1       4.914   4.540  17.324  0.00  0.00    +0.000 NA
ATOM     17  C   UNL     1       5.155   4.120  15.917  0.00  0.00    +0.000 C 
ATOM     18  C   UNL     1       6.337   4.894  15.311  0.00  0.00    +0.000 C 
ATOM     19  C   UNL     1       6.672   4.368  13.921  0.00  0.00    +0.000 C 
ATOM     20  O   UNL     1       7.519   4.753  16.117  0.00  0.00    +0.000 OA
ENDBRANCH  10  16
ENDBRANCH   4  10
ENDBRANCH   1   8
BRANCH   3  21
ATOM     21  C   UNL     1       1.491  11.352  17.960  0.00  0.00    +0.000 C 
BRANCH  21  22
ATOM     22  C   UNL     1       2.339  12.473  18.610  0.00  0.00    +0.000 C 
BRANCH  22  23
ATOM     23  C   UNL     1       1.804  13.881  18.477  0.00  0.00    +0.000 A 
ATOM     24  C   UNL     1       2.701  14.918  18.179  0.00  0.00    +0.000 A 
ATOM     25  C   UNL     1       2.305  16.251  18.300  0.00  0.00    +0.000 A 
ATOM     26  C   UNL     1       1.002  16.558  18.682  0.00  0.00    +0.000 A 
ATOM     27  C   UNL     1       0.074  15.538  18.858  0.00  0.00    +0.000 A 
ATOM     28  C   UNL     1       0.468  14.209  18.730  0.00  0.00    +0.000 A 
ENDBRANCH  22  23
ENDBRANCH  21  22
ENDBRANCH   3  21
BRANCH   3  29
ATOM     29  C   UNL     1       0.251   9.999  19.632  0.00  0.00    +0.000 C 
BRANCH  29  30
ATOM     30  C   UNL     1      -1.030  10.548  19.060  0.00  0.00    +0.000 A 
ATOM     31  C   UNL     1      -1.662  11.622  19.701  0.00  0.00    +0.000 A 
ATOM     32  C   UNL     1      -2.934  12.035  19.291  0.00  0.00    +0.000 A 
ATOM     33  C   UNL     1      -3.554  11.395  18.223  0.00  0.00    +0.000 A 
ATOM     34  C   UNL     1      -2.902  10.385  17.527  0.00  0.00    +0.000 A 
ATOM     35  C   UNL     1      -1.627   9.979  17.926  0.00  0.00    +0.000 A 
ENDBRANCH  29  30
ENDBRANCH   3  29
TORSDOF 8
ENDMDL
