MODEL 1
REMARK VINA RESULT:      -7.6      0.000      0.000
REMARK  Name = 
REMARK  6 active torsions:
REMARK  status: ('A' for Active; 'I' for Inactive)
REMARK    1  A    between atoms: C_1  and  O_2
REMARK    2  A    between atoms: O_2  and  C_3
REMARK    3  A    between atoms: C_3  and  C_4
REMARK    4  A    between atoms: C_6  and  O_7
REMARK    5  A    between atoms: C_10  and  C_12
REMARK    6  A    between atoms: C_12  and  C_13
REMARK                            x       y       z     vdW  Elec       q    Type
REMARK                         _______ _______ _______ _____ _____    ______ ____
ROOT
ATOM      1  C   UNL     1       6.458   5.511  16.747  0.00  0.00    +0.000 C 
ATOM      2  C   UNL     1       5.997   5.704  15.291  0.00  0.00    +0.000 C 
ATOM      3  C   UNL     1       5.366   4.368  14.939  0.00  0.00    +0.000 C 
ATOM      4  C   UNL     1       4.686   3.946  16.242  0.00  0.00    +0.000 C 
ATOM      5  N   UNL     1       5.490   4.554  17.303  0.00  0.00    +0.000 N 
ATOM      6  C   UNL     1       5.494   4.186  18.632  0.00  0.00    +0.000 C 
ATOM      7  O   UNL     1       6.344   4.607  19.423  0.00  0.00    +0.000 OA
ENDROOT
BRANCH   3   8
ATOM      8  O   UNL     1       6.379   3.436  14.556  0.00  0.00    +0.000 OA
ATOM      9  H   UNL     1       7.170   3.607  15.097  0.00  0.00    +0.000 HD
ENDBRANCH   3   8
BRANCH   1  10
ATOM     10  C   UNL     1       6.584   6.858  17.480  0.00  0.00    +0.000 C 
BRANCH  10  12
ATOM     11  C   UNL     1       7.985   8.714  17.837  0.00  0.00    +0.000 C 
ATOM     12  O   UNL     1       7.712   7.599  16.999  0.00  0.00    +0.000 OA
ENDBRANCH  10  12
ENDBRANCH   1  10
BRANCH   6  13
ATOM     13  C   UNL     1       4.393   3.251  19.117  0.00  0.00    +0.000 C 
BRANCH  13  14
ATOM     14  C   UNL     1       3.394   3.983  20.019  0.00  0.00    +0.000 C 
ATOM     15  C   UNL     1       2.654   3.050  21.003  0.00  0.00    +0.000 C 
ATOM     16  C   UNL     1       1.173   3.341  20.712  0.00  0.00    +0.000 C 
ATOM     17  C   UNL     1       0.806   2.754  19.335  0.00  0.00    +0.000 C 
ATOM     18  C   UNL     1       1.467   3.733  18.354  0.00  0.00    +0.000 C 
ATOM     19  C   UNL     1       2.224   4.693  19.287  0.00  0.00    +0.000 C 
ATOM     20  C   UNL     1       1.204   4.841  20.423  0.00  0.00    +0.000 C 
ENDBRANCH  13  14
ENDBRANCH   6  13
TORSDOF 5
ENDMDL
MODEL 2
REMARK VINA RESULT:      -7.3      1.595      3.274
REMARK  Name = 
REMARK  6 active torsions:
REMARK  status: ('A' for Active; 'I' for Inactive)
REMARK    1  A    between atoms: C_1  and  O_2
REMARK    2  A    between atoms: O_2  and  C_3
REMARK    3  A    between atoms: C_3  and  C_4
REMARK    4  A    between atoms: C_6  and  O_7
REMARK    5  A    between atoms: C_10  and  C_12
REMARK    6  A    between atoms: C_12  and  C_13
REMARK                            x       y       z     vdW  Elec       q    Type
REMARK                         _______ _______ _______ _____ _____    ______ ____
ROOT
ATOM      1  C   UNL     1       6.097   5.959  16.935  0.00  0.00    +0.000 C 
ATOM      2  C   UNL     1       7.449   5.271  17.193  0.00  0.00    +0.000 C 
ATOM      3  C   UNL     1       7.627   5.390  18.696  0.00  0.00    +0.000 C 
ATOM      4  C   UNL     1       6.205   5.217  19.233  0.00  0.00    +0.000 C 
ATOM      5  N   UNL     1       5.336   5.721  18.171  0.00  0.00    +0.000 N 
ATOM      6  C   UNL     1       4.016   6.098  18.310  0.00  0.00    +0.000 C 
ATOM      7  O   UNL     1       3.412   6.702  17.418  0.00  0.00    +0.000 OA
ENDROOT
BRANCH   3   8
ATOM      8  O   UNL     1       8.153   6.677  19.025  0.00  0.00    +0.000 OA
ATOM      9  H   UNL     1       7.517   7.125  19.611  0.00  0.00    +0.000 HD
ENDBRANCH   3   8
BRANCH   1  10
ATOM     10  C   UNL     1       5.453   5.462  15.629  0.00  0.00    +0.000 C 
BRANCH  10  12
ATOM     11  C   UNL     1       6.161   3.937  13.984  0.00  0.00    +0.000 C 
ATOM     12  O   UNL     1       5.828   4.108  15.355  0.00  0.00    +0.000 OA
ENDBRANCH  10  12
ENDBRANCH   1  10
BRANCH   6  13
ATOM     13  C   UNL     1       3.301   5.727  19.603  0.00  0.00    +0.000 C 
BRANCH  13  14
ATOM     14  C   UNL     1       2.147   4.754  19.344  0.00  0.00    +0.000 C 
ATOM     15  C   UNL     1       1.149   4.654  20.521  0.00  0.00    +0.000 C 
ATOM     16  C   UNL     1       1.115   3.147  20.821  0.00  0.00    +0.000 C 
ATOM     17  C   UNL     1       2.452   2.731  21.464  0.00  0.00    +0.000 C 
ATOM     18  C   UNL     1       3.425   2.743  20.277  0.00  0.00    +0.000 C 
ATOM     19  C   UNL     1       2.555   3.272  19.126  0.00  0.00    +0.000 C 
ATOM     20  C   UNL     1       1.234   2.550  19.419  0.00  0.00    +0.000 C 
ENDBRANCH  13  14
ENDBRANCH   6  13
TORSDOF 5
ENDMDL
MODEL 3
REMARK VINA RESULT:      -7.1      0.953      1.706
REMARK  Name = 
REMARK  6 active torsions:
REMARK  status: ('A' for Active; 'I' for Inactive)
REMARK    1  A    between atoms: C_1  and  O_2
REMARK    2  A    between atoms: O_2  and  C_3
REMARK    3  A    between atoms: C_3  and  C_4
REMARK    4  A    between atoms: C_6  and  O_7
REMARK    5  A    between atoms: C_10  and  C_12
REMARK    6  A    between atoms: C_12  and  C_13
REMARK                            x       y       z     vdW  Elec       q    Type
REMARK                         _______ _______ _______ _____ _____    ______ ____
ROOT
ATOM      1  C   UNL     1       6.977   5.393  17.221  0.00  0.00    +0.000 C 
ATOM      2  C   UNL     1       7.194   5.470  15.699  0.00  0.00    +0.000 C 
ATOM      3  C   UNL     1       6.027   4.679  15.133  0.00  0.00    +0.000 C 
ATOM      4  C   UNL     1       4.877   5.025  16.081  0.00  0.00    +0.000 C 
ATOM      5  N   UNL     1       5.516   5.301  17.367  0.00  0.00    +0.000 N 
ATOM      6  C   UNL     1       4.895   5.313  18.598  0.00  0.00    +0.000 C 
ATOM      7  O   UNL     1       5.537   5.353  19.653  0.00  0.00    +0.000 OA
ENDROOT
BRANCH   3   8
ATOM      8  O   UNL     1       6.323   3.282  15.164  0.00  0.00    +0.000 OA
ATOM      9  H   UNL     1       6.344   2.955  14.247  0.00  0.00    +0.000 HD
ENDBRANCH   3   8
BRANCH   1  10
ATOM     10  C   UNL     1       7.665   6.563  17.947  0.00  0.00    +0.000 C 
BRANCH  10  12
ATOM     11  C   UNL     1       8.056   8.881  17.869  0.00  0.00    +0.000 C 
ATOM     12  O   UNL     1       7.710   7.727  17.115  0.00  0.00    +0.000 OA
ENDBRANCH  10  12
ENDBRANCH   1  10
BRANCH   6  13
ATOM     13  C   UNL     1       3.372   5.297  18.629  0.00  0.00    +0.000 C 
BRANCH  13  14
ATOM     14  C   UNL     1       2.823   3.884  18.414  0.00  0.00    +0.000 C 
ATOM     15  C   UNL     1       1.292   3.844  18.197  0.00  0.00    +0.000 C 
ATOM     16  C   UNL     1       0.815   2.855  19.273  0.00  0.00    +0.000 C 
ATOM     17  C   UNL     1       0.952   3.513  20.659  0.00  0.00    +0.000 C 
ATOM     18  C   UNL     1       2.465   3.472  20.913  0.00  0.00    +0.000 C 
ATOM     19  C   UNL     1       3.018   2.900  19.598  0.00  0.00    +0.000 C 
ATOM     20  C   UNL     1       1.956   1.839  19.286  0.00  0.00    +0.000 C 
ENDBRANCH  13  14
ENDBRANCH   6  13
TORSDOF 5
ENDMDL
MODEL 4
REMARK VINA RESULT:      -7.1      1.001      1.364
REMARK  Name = 
REMARK  6 active torsions:
REMARK  status: ('A' for Active; 'I' for Inactive)
REMARK    1  A    between atoms: C_1  and  O_2
REMARK    2  A    between atoms: O_2  and  C_3
REMARK    3  A    between atoms: C_3  and  C_4
REMARK    4  A    between atoms: C_6  and  O_7
REMARK    5  A    between atoms: C_10  and  C_12
REMARK    6  A    between atoms: C_12  and  C_13
REMARK                            x       y       z     vdW  Elec       q    Type
REMARK                         _______ _______ _______ _____ _____    ______ ____
ROOT
ATOM      1  C   UNL     1       6.953   4.809  16.715  0.00  0.00    +0.000 C 
ATOM      2  C   UNL     1       7.011   5.336  15.270  0.00  0.00    +0.000 C 
ATOM      3  C   UNL     1       5.928   4.543  14.559  0.00  0.00    +0.000 C 
ATOM      4  C   UNL     1       4.834   4.413  15.621  0.00  0.00    +0.000 C 
ATOM      5  N   UNL     1       5.543   4.432  16.900  0.00  0.00    +0.000 N 
ATOM      6  C   UNL     1       5.048   3.999  18.111  0.00  0.00    +0.000 C 
ATOM      7  O   UNL     1       5.773   3.857  19.101  0.00  0.00    +0.000 OA
ENDROOT
BRANCH   3   8
ATOM      8  O   UNL     1       6.432   3.264  14.175  0.00  0.00    +0.000 OA
ATOM      9  H   UNL     1       7.359   3.373  13.894  0.00  0.00    +0.000 HD
ENDBRANCH   3   8
BRANCH   1  10
ATOM     10  C   UNL     1       7.522   5.835  17.711  0.00  0.00    +0.000 C 
BRANCH  10  12
ATOM     11  C   UNL     1       7.874   8.160  17.661  0.00  0.00    +0.000 C 
ATOM     12  O   UNL     1       6.916   7.119  17.528  0.00  0.00    +0.000 OA
ENDBRANCH  10  12
ENDBRANCH   1  10
BRANCH   6  13
ATOM     13  C   UNL     1       3.554   3.715  18.211  0.00  0.00    +0.000 C 
BRANCH  13  14
ATOM     14  C   UNL     1       3.211   2.968  19.503  0.00  0.00    +0.000 C 
ATOM     15  C   UNL     1       1.860   2.219  19.442  0.00  0.00    +0.000 C 
ATOM     16  C   UNL     1       1.104   2.766  20.663  0.00  0.00    +0.000 C 
ATOM     17  C   UNL     1       0.702   4.228  20.392  0.00  0.00    +0.000 C 
ATOM     18  C   UNL     1       2.029   4.985  20.542  0.00  0.00    +0.000 C 
ATOM     19  C   UNL     1       3.045   3.853  20.766  0.00  0.00    +0.000 C 
ATOM     20  C   UNL     1       2.233   2.926  21.679  0.00  0.00    +0.000 C 
ENDBRANCH  13  14
ENDBRANCH   6  13
TORSDOF 5
ENDMDL
MODEL 5
REMARK VINA RESULT:      -7.0      1.048      1.315
REMARK  Name = 
REMARK  6 active torsions:
REMARK  status: ('A' for Active; 'I' for Inactive)
REMARK    1  A    between atoms: C_1  and  O_2
REMARK    2  A    between atoms: O_2  and  C_3
REMARK    3  A    between atoms: C_3  and  C_4
REMARK    4  A    between atoms: C_6  and  O_7
REMARK    5  A    between atoms: C_10  and  C_12
REMARK    6  A    between atoms: C_12  and  C_13
REMARK                            x       y       z     vdW  Elec       q    Type
REMARK                         _______ _______ _______ _____ _____    ______ ____
ROOT
ATOM      1  C   UNL     1       6.923   5.181  17.310  0.00  0.00    +0.000 C 
ATOM      2  C   UNL     1       6.990   5.061  15.777  0.00  0.00    +0.000 C 
ATOM      3  C   UNL     1       5.720   4.305  15.425  0.00  0.00    +0.000 C 
ATOM      4  C   UNL     1       4.698   4.849  16.425  0.00  0.00    +0.000 C 
ATOM      5  N   UNL     1       5.482   5.223  17.602  0.00  0.00    +0.000 N 
ATOM      6  C   UNL     1       4.992   5.428  18.874  0.00  0.00    +0.000 C 
ATOM      7  O   UNL     1       5.739   5.541  19.852  0.00  0.00    +0.000 OA
ENDROOT
BRANCH   3   8
ATOM      8  O   UNL     1       5.923   2.902  15.601  0.00  0.00    +0.000 OA
ATOM      9  H   UNL     1       6.873   2.716  15.499  0.00  0.00    +0.000 HD
ENDBRANCH   3   8
BRANCH   1  10
ATOM     10  C   UNL     1       7.759   6.369  17.818  0.00  0.00    +0.000 C 
BRANCH  10  12
ATOM     11  C   UNL     1       7.910   8.715  17.734  0.00  0.00    +0.000 C 
ATOM     12  O   UNL     1       7.508   7.543  17.038  0.00  0.00    +0.000 OA
ENDBRANCH  10  12
ENDBRANCH   1  10
BRANCH   6  13
ATOM     13  C   UNL     1       3.482   5.537  19.048  0.00  0.00    +0.000 C 
BRANCH  13  14
ATOM     14  C   UNL     1       2.947   4.453  19.988  0.00  0.00    +0.000 C 
ATOM     15  C   UNL     1       3.659   3.091  19.825  0.00  0.00    +0.000 C 
ATOM     16  C   UNL     1       2.496   2.120  19.565  0.00  0.00    +0.000 C 
ATOM     17  C   UNL     1       1.926   2.384  18.158  0.00  0.00    +0.000 C 
ATOM     18  C   UNL     1       1.144   3.692  18.341  0.00  0.00    +0.000 C 
ATOM     19  C   UNL     1       1.454   4.076  19.797  0.00  0.00    +0.000 C 
ATOM     20  C   UNL     1       1.404   2.696  20.466  0.00  0.00    +0.000 C 
ENDBRANCH  13  14
ENDBRANCH   6  13
TORSDOF 5
ENDMDL
MODEL 6
REMARK VINA RESULT:      -6.9      0.692      1.275
REMARK  Name = 
REMARK  6 active torsions:
REMARK  status: ('A' for Active; 'I' for Inactive)
REMARK    1  A    between atoms: C_1  and  O_2
REMARK    2  A    between atoms: O_2  and  C_3
REMARK    3  A    between atoms: C_3  and  C_4
REMARK    4  A    between atoms: C_6  and  O_7
REMARK    5  A    between atoms: C_10  and  C_12
REMARK    6  A    between atoms: C_12  and  C_13
REMARK                            x       y       z     vdW  Elec       q    Type
REMARK                         _______ _______ _______ _____ _____    ______ ____
ROOT
ATOM      1  C   UNL     1       6.401   5.615  16.656  0.00  0.00    +0.000 C 
ATOM      2  C   UNL     1       5.910   5.732  15.203  0.00  0.00    +0.000 C 
ATOM      3  C   UNL     1       5.365   4.347  14.899  0.00  0.00    +0.000 C 
ATOM      4  C   UNL     1       4.731   3.921  16.225  0.00  0.00    +0.000 C 
ATOM      5  N   UNL     1       5.507   4.613  17.254  0.00  0.00    +0.000 N 
ATOM      6  C   UNL     1       5.553   4.287  18.594  0.00  0.00    +0.000 C 
ATOM      7  O   UNL     1       6.383   4.787  19.360  0.00  0.00    +0.000 OA
ENDROOT
BRANCH   3   8
ATOM      8  O   UNL     1       6.432   3.473  14.529  0.00  0.00    +0.000 OA
ATOM      9  H   UNL     1       6.148   2.955  13.755  0.00  0.00    +0.000 HD
ENDBRANCH   3   8
BRANCH   1  10
ATOM     10  C   UNL     1       6.447   6.989  17.347  0.00  0.00    +0.000 C 
BRANCH  10  12
ATOM     11  C   UNL     1       7.978   8.721  17.784  0.00  0.00    +0.000 C 
ATOM     12  O   UNL     1       7.780   7.314  17.754  0.00  0.00    +0.000 OA
ENDBRANCH  10  12
ENDBRANCH   1  10
BRANCH   6  13
ATOM     13  C   UNL     1       4.523   3.296  19.123  0.00  0.00    +0.000 C 
BRANCH  13  14
ATOM     14  C   UNL     1       3.110   3.886  19.087  0.00  0.00    +0.000 C 
ATOM     15  C   UNL     1       2.911   5.068  20.062  0.00  0.00    +0.000 C 
ATOM     16  C   UNL     1       1.696   4.631  20.897  0.00  0.00    +0.000 C 
ATOM     17  C   UNL     1       2.115   3.479  21.830  0.00  0.00    +0.000 C 
ATOM     18  C   UNL     1       2.226   2.282  20.875  0.00  0.00    +0.000 C 
ATOM     19  C   UNL     1       1.969   2.918  19.499  0.00  0.00    +0.000 C 
ATOM     20  C   UNL     1       0.849   3.905  19.852  0.00  0.00    +0.000 C 
ENDBRANCH  13  14
ENDBRANCH   6  13
TORSDOF 5
ENDMDL
MODEL 7
REMARK VINA RESULT:      -6.9      1.583      3.221
REMARK  Name = 
REMARK  6 active torsions:
REMARK  status: ('A' for Active; 'I' for Inactive)
REMARK    1  A    between atoms: C_1  and  O_2
REMARK    2  A    between atoms: O_2  and  C_3
REMARK    3  A    between atoms: C_3  and  C_4
REMARK    4  A    between atoms: C_6  and  O_7
REMARK    5  A    between atoms: C_10  and  C_12
REMARK    6  A    between atoms: C_12  and  C_13
REMARK                            x       y       z     vdW  Elec       q    Type
REMARK                         _______ _______ _______ _____ _____    ______ ____
ROOT
ATOM      1  C   UNL     1       6.142   5.032  17.014  0.00  0.00    +0.000 C 
ATOM      2  C   UNL     1       7.593   4.747  17.441  0.00  0.00    +0.000 C 
ATOM      3  C   UNL     1       7.746   5.537  18.729  0.00  0.00    +0.000 C 
ATOM      4  C   UNL     1       6.374   5.396  19.392  0.00  0.00    +0.000 C 
ATOM      5  N   UNL     1       5.432   5.243  18.284  0.00  0.00    +0.000 N 
ATOM      6  C   UNL     1       4.067   5.432  18.345  0.00  0.00    +0.000 C 
ATOM      7  O   UNL     1       3.369   5.483  17.327  0.00  0.00    +0.000 OA
ENDROOT
BRANCH   3   8
ATOM      8  O   UNL     1       8.040   6.903  18.432  0.00  0.00    +0.000 OA
ATOM      9  H   UNL     1       7.338   7.457  18.816  0.00  0.00    +0.000 HD
ENDBRANCH   3   8
BRANCH   1  10
ATOM     10  C   UNL     1       5.596   3.921  16.101  0.00  0.00    +0.000 C 
BRANCH  10  12
ATOM     11  C   UNL     1       6.196   3.908  13.826  0.00  0.00    +0.000 C 
ATOM     12  O   UNL     1       5.298   4.430  14.796  0.00  0.00    +0.000 OA
ENDBRANCH  10  12
ENDBRANCH   1  10
BRANCH   6  13
ATOM     13  C   UNL     1       3.425   5.556  19.721  0.00  0.00    +0.000 C 
BRANCH  13  14
ATOM     14  C   UNL     1       3.307   4.193  20.408  0.00  0.00    +0.000 C 
ATOM     15  C   UNL     1       3.320   3.002  19.422  0.00  0.00    +0.000 C 
ATOM     16  C   UNL     1       2.030   2.244  19.775  0.00  0.00    +0.000 C 
ATOM     17  C   UNL     1       0.817   3.069  19.306  0.00  0.00    +0.000 C 
ATOM     18  C   UNL     1       0.749   4.203  20.339  0.00  0.00    +0.000 C 
ATOM     19  C   UNL     1       1.996   3.953  21.203  0.00  0.00    +0.000 C 
ATOM     20  C   UNL     1       1.973   2.422  21.291  0.00  0.00    +0.000 C 
ENDBRANCH  13  14
ENDBRANCH   6  13
TORSDOF 5
ENDMDL
MODEL 8
REMARK VINA RESULT:      -6.8      1.091      1.344
REMARK  Name = 
REMARK  6 active torsions:
REMARK  status: ('A' for Active; 'I' for Inactive)
REMARK    1  A    between atoms: C_1  and  O_2
REMARK    2  A    between atoms: O_2  and  C_3
REMARK    3  A    between atoms: C_3  and  C_4
REMARK    4  A    between atoms: C_6  and  O_7
REMARK    5  A    between atoms: C_10  and  C_12
REMARK    6  A    between atoms: C_12  and  C_13
REMARK                            x       y       z     vdW  Elec       q    Type
REMARK                         _______ _______ _______ _____ _____    ______ ____
ROOT
ATOM      1  C   UNL     1       6.015   5.601  16.727  0.00  0.00    +0.000 C 
ATOM      2  C   UNL     1       5.580   5.539  15.252  0.00  0.00    +0.000 C 
ATOM      3  C   UNL     1       5.301   4.063  15.026  0.00  0.00    +0.000 C 
ATOM      4  C   UNL     1       4.689   3.614  16.355  0.00  0.00    +0.000 C 
ATOM      5  N   UNL     1       5.282   4.495  17.361  0.00  0.00    +0.000 N 
ATOM      6  C   UNL     1       5.320   4.268  18.720  0.00  0.00    +0.000 C 
ATOM      7  O   UNL     1       6.013   4.954  19.479  0.00  0.00    +0.000 OA
ENDROOT
BRANCH   3   8
ATOM      8  O   UNL     1       6.521   3.370  14.757  0.00  0.00    +0.000 OA
ATOM      9  H   UNL     1       6.436   2.927  13.894  0.00  0.00    +0.000 HD
ENDBRANCH   3   8
BRANCH   1  10
ATOM     10  C   UNL     1       5.787   7.002  17.321  0.00  0.00    +0.000 C 
BRANCH  10  12
ATOM     11  C   UNL     1       3.530   7.433  17.824  0.00  0.00    +0.000 C 
ATOM     12  O   UNL     1       4.557   7.565  16.851  0.00  0.00    +0.000 OA
ENDBRANCH  10  12
ENDBRANCH   1  10
BRANCH   6  13
ATOM     13  C   UNL     1       4.455   3.145  19.280  0.00  0.00    +0.000 C 
BRANCH  13  14
ATOM     14  C   UNL     1       3.333   3.692  20.167  0.00  0.00    +0.000 C 
ATOM     15  C   UNL     1       2.539   2.591  20.906  0.00  0.00    +0.000 C 
ATOM     16  C   UNL     1       1.084   2.878  20.499  0.00  0.00    +0.000 C 
ATOM     17  C   UNL     1       0.894   2.506  19.016  0.00  0.00    +0.000 C 
ATOM     18  C   UNL     1       1.607   3.649  18.279  0.00  0.00    +0.000 C 
ATOM     19  C   UNL     1       2.213   4.472  19.427  0.00  0.00    +0.000 C 
ATOM     20  C   UNL     1       1.073   4.405  20.450  0.00  0.00    +0.000 C 
ENDBRANCH  13  14
ENDBRANCH   6  13
TORSDOF 5
ENDMDL
MODEL 9
REMARK VINA RESULT:      -6.6      2.230      5.925
REMARK  Name = 
REMARK  6 active torsions:
REMARK  status: ('A' for Active; 'I' for Inactive)
REMARK    1  A    between atoms: C_1  and  O_2
REMARK    2  A    between atoms: O_2  and  C_3
REMARK    3  A    between atoms: C_3  and  C_4
REMARK    4  A    between atoms: C_6  and  O_7
REMARK    5  A    between atoms: C_10  and  C_12
REMARK    6  A    between atoms: C_12  and  C_13
REMARK                            x       y       z     vdW  Elec       q    Type
REMARK                         _______ _______ _______ _____ _____    ______ ____
ROOT
ATOM      1  C   UNL     1       3.254   2.866  20.014  0.00  0.00    +0.000 C 
ATOM      2  C   UNL     1       1.944   2.107  19.742  0.00  0.00    +0.000 C 
ATOM      3  C   UNL     1       0.988   3.198  19.293  0.00  0.00    +0.000 C 
ATOM      4  C   UNL     1       1.883   4.137  18.482  0.00  0.00    +0.000 C 
ATOM      5  N   UNL     1       3.214   3.995  19.072  0.00  0.00    +0.000 N 
ATOM      6  C   UNL     1       4.266   4.874  18.927  0.00  0.00    +0.000 C 
ATOM      7  O   UNL     1       5.287   4.791  19.618  0.00  0.00    +0.000 OA
ENDROOT
BRANCH   3   8
ATOM      8  O   UNL     1       0.435   3.862  20.430  0.00  0.00    +0.000 OA
ATOM      9  H   UNL     1       0.098   3.185  21.044  0.00  0.00    +0.000 HD
ENDBRANCH   3   8
BRANCH   1  10
ATOM     10  C   UNL     1       4.475   1.935  19.913  0.00  0.00    +0.000 C 
BRANCH  10  12
ATOM     11  C   UNL     1       5.574   0.514  21.433  0.00  0.00    +0.000 C 
ATOM     12  O   UNL     1       5.158   1.847  21.169  0.00  0.00    +0.000 OA
ENDBRANCH  10  12
ENDBRANCH   1  10
BRANCH   6  13
ATOM     13  C   UNL     1       4.149   5.957  17.862  0.00  0.00    +0.000 C 
BRANCH  13  14
ATOM     14  C   UNL     1       4.579   5.437  16.487  0.00  0.00    +0.000 C 
ATOM     15  C   UNL     1       5.004   3.951  16.495  0.00  0.00    +0.000 C 
ATOM     16  C   UNL     1       6.413   3.988  15.883  0.00  0.00    +0.000 C 
ATOM     17  C   UNL     1       7.383   4.631  16.893  0.00  0.00    +0.000 C 
ATOM     18  C   UNL     1       7.022   6.121  16.818  0.00  0.00    +0.000 C 
ATOM     19  C   UNL     1       5.818   6.134  15.863  0.00  0.00    +0.000 C 
ATOM     20  C   UNL     1       6.266   5.089  14.834  0.00  0.00    +0.000 C 
ENDBRANCH  13  14
ENDBRANCH   6  13
TORSDOF 5
ENDMDL
