MODEL 1
REMARK VINA RESULT:      -7.6      0.000      0.000
REMARK  Name = 
REMARK  9 active torsions:
REMARK  status: ('A' for Active; 'I' for Inactive)
REMARK    1  A    between atoms: C_1  and  O_2
REMARK    2  A    between atoms: O_2  and  C_3
REMARK    3  A    between atoms: C_6  and  C_7
REMARK    4  A    between atoms: C_7  and  O_9
REMARK    5  A    between atoms: O_9  and  C_10
REMARK    6  A    between atoms: C_10  and  C_11
REMARK    7  A    between atoms: C_14  and  C_15
REMARK    8  A    between atoms: C_19  and  C_20
REMARK    9  A    between atoms: C_22  and  N_23
REMARK                            x       y       z     vdW  Elec       q    Type
REMARK                         _______ _______ _______ _____ _____    ______ ____
ROOT
ATOM      1  C   UNL     1       3.166   3.899  19.727  0.00  0.00    +0.000 C 
ATOM      2  O   UNL     1       3.102   3.023  20.575  0.00  0.00    +0.000 OA
ENDROOT
BRANCH   1   6
ATOM      3  C   UNL     1       6.407   4.664  16.994  0.00  0.00    +0.000 A 
ATOM      4  C   UNL     1       5.270   3.944  16.599  0.00  0.00    +0.000 A 
ATOM      5  C   UNL     1       4.242   3.672  17.506  0.00  0.00    +0.000 A 
ATOM      6  C   UNL     1       4.344   4.091  18.835  0.00  0.00    +0.000 A 
ATOM      7  C   UNL     1       5.507   4.744  19.262  0.00  0.00    +0.000 A 
ATOM      8  C   UNL     1       6.543   5.023  18.349  0.00  0.00    +0.000 A 
BRANCH   8   9
ATOM      9  N   UNL     1       7.736   5.719  18.867  0.00  0.00    +0.000 N 
ATOM     10  O   UNL     1       8.487   5.137  19.661  0.00  0.00    +0.000 OA
ATOM     11  O   UNL     1       7.930   6.881  18.471  0.00  0.00    +0.000 OA
ENDBRANCH   8   9
BRANCH   3  13
ATOM     12  C   UNL     1       7.037   4.847  14.715  0.00  0.00    +0.000 C 
ATOM     13  O   UNL     1       7.385   4.986  16.092  0.00  0.00    +0.000 OA
ENDBRANCH   3  13
ENDBRANCH   1   6
BRANCH   1  14
ATOM     14  O   UNL     1       2.188   4.779  19.409  0.00  0.00    +0.000 OA
BRANCH  14  15
ATOM     15  C   UNL     1       2.057   5.878  20.324  0.00  0.00    +0.000 C 
BRANCH  15  16
ATOM     16  C   UNL     1       2.208   7.215  19.572  0.00  0.00    +0.000 C 
ATOM     17  O   UNL     1       2.948   7.268  18.588  0.00  0.00    +0.000 OA
ATOM     18  N   UNL     1       1.454   8.304  20.030  0.00  0.00    +0.000 N 
ATOM     19  C   UNL     1       1.385   9.593  19.286  0.00  0.00    +0.000 C 
ATOM     20  C   UNL     1       1.876   9.604  17.833  0.00  0.00    +0.000 C 
ATOM     21  C   UNL     1      -0.067  10.115  19.292  0.00  0.00    +0.000 C 
ATOM     22  C   UNL     1      -0.671  10.187  20.691  0.00  0.00    +0.000 C 
ATOM     23  C   UNL     1      -0.522   8.856  21.414  0.00  0.00    +0.000 C 
ATOM     24  C   UNL     1       0.924   8.354  21.412  0.00  0.00    +0.000 C 
ATOM     25  C   UNL     1       1.832   9.187  22.330  0.00  0.00    +0.000 C 
ENDBRANCH  15  16
ENDBRANCH  14  15
ENDBRANCH   1  14
TORSDOF 6
ENDMDL
MODEL 2
REMARK VINA RESULT:      -7.3      3.247      8.352
REMARK  Name = 
REMARK  9 active torsions:
REMARK  status: ('A' for Active; 'I' for Inactive)
REMARK    1  A    between atoms: C_1  and  O_2
REMARK    2  A    between atoms: O_2  and  C_3
REMARK    3  A    between atoms: C_6  and  C_7
REMARK    4  A    between atoms: C_7  and  O_9
REMARK    5  A    between atoms: O_9  and  C_10
REMARK    6  A    between atoms: C_10  and  C_11
REMARK    7  A    between atoms: C_14  and  C_15
REMARK    8  A    between atoms: C_19  and  C_20
REMARK    9  A    between atoms: C_22  and  N_23
REMARK                            x       y       z     vdW  Elec       q    Type
REMARK                         _______ _______ _______ _____ _____    ______ ____
ROOT
ATOM      1  C   UNL     1       1.579   9.101  18.487  0.00  0.00    +0.000 C 
ATOM      2  O   UNL     1       2.092   9.172  17.381  0.00  0.00    +0.000 OA
ENDROOT
BRANCH   1   6
ATOM      3  C   UNL     1      -1.566  11.655  19.950  0.00  0.00    +0.000 A 
ATOM      4  C   UNL     1      -1.620  11.086  18.669  0.00  0.00    +0.000 A 
ATOM      5  C   UNL     1      -0.576  10.288  18.193  0.00  0.00    +0.000 A 
ATOM      6  C   UNL     1       0.558  10.066  18.980  0.00  0.00    +0.000 A 
ATOM      7  C   UNL     1       0.659  10.690  20.230  0.00  0.00    +0.000 A 
ATOM      8  C   UNL     1      -0.394  11.491  20.714  0.00  0.00    +0.000 A 
BRANCH   8   9
ATOM      9  N   UNL     1      -0.222  12.112  22.041  0.00  0.00    +0.000 N 
ATOM     10  O   UNL     1      -0.559  11.487  23.056  0.00  0.00    +0.000 OA
ATOM     11  O   UNL     1       0.264  13.255  22.073  0.00  0.00    +0.000 OA
ENDBRANCH   8   9
BRANCH   3  13
ATOM     12  C   UNL     1      -3.829  12.315  19.696  0.00  0.00    +0.000 C 
ATOM     13  O   UNL     1      -2.615  12.383  20.441  0.00  0.00    +0.000 OA
ENDBRANCH   3  13
ENDBRANCH   1   6
BRANCH   1  14
ATOM     14  O   UNL     1       1.788   8.129  19.405  0.00  0.00    +0.000 OA
BRANCH  14  15
ATOM     15  C   UNL     1       2.556   7.014  18.927  0.00  0.00    +0.000 C 
BRANCH  15  16
ATOM     16  C   UNL     1       2.282   5.769  19.795  0.00  0.00    +0.000 C 
ATOM     17  O   UNL     1       1.662   5.902  20.852  0.00  0.00    +0.000 OA
ATOM     18  N   UNL     1       2.723   4.532  19.308  0.00  0.00    +0.000 N 
ATOM     19  C   UNL     1       2.368   3.245  19.970  0.00  0.00    +0.000 C 
ATOM     20  C   UNL     1       1.229   3.263  20.997  0.00  0.00    +0.000 C 
ATOM     21  C   UNL     1       2.013   2.194  18.897  0.00  0.00    +0.000 C 
ATOM     22  C   UNL     1       3.086   2.050  17.823  0.00  0.00    +0.000 C 
ATOM     23  C   UNL     1       3.440   3.404  17.225  0.00  0.00    +0.000 C 
ATOM     24  C   UNL     1       3.801   4.435  18.297  0.00  0.00    +0.000 C 
ATOM     25  C   UNL     1       5.160   4.142  18.953  0.00  0.00    +0.000 C 
ENDBRANCH  15  16
ENDBRANCH  14  15
ENDBRANCH   1  14
TORSDOF 6
ENDMDL
MODEL 3
REMARK VINA RESULT:      -7.3      1.497      2.534
REMARK  Name = 
REMARK  9 active torsions:
REMARK  status: ('A' for Active; 'I' for Inactive)
REMARK    1  A    between atoms: C_1  and  O_2
REMARK    2  A    between atoms: O_2  and  C_3
REMARK    3  A    between atoms: C_6  and  C_7
REMARK    4  A    between atoms: C_7  and  O_9
REMARK    5  A    between atoms: O_9  and  C_10
REMARK    6  A    between atoms: C_10  and  C_11
REMARK    7  A    between atoms: C_14  and  C_15
REMARK    8  A    between atoms: C_19  and  C_20
REMARK    9  A    between atoms: C_22  and  N_23
REMARK                            x       y       z     vdW  Elec       q    Type
REMARK                         _______ _______ _______ _____ _____    ______ ____
ROOT
ATOM      1  C   UNL     1       2.692   5.452  18.563  0.00  0.00    +0.000 C 
ATOM      2  O   UNL     1       1.662   4.877  18.247  0.00  0.00    +0.000 OA
ENDROOT
BRANCH   1   6
ATOM      3  C   UNL     1       6.359   4.838  16.388  0.00  0.00    +0.000 A 
ATOM      4  C   UNL     1       5.259   3.983  16.227  0.00  0.00    +0.000 A 
ATOM      5  C   UNL     1       4.088   4.172  16.965  0.00  0.00    +0.000 A 
ATOM      6  C   UNL     1       4.004   5.206  17.902  0.00  0.00    +0.000 A 
ATOM      7  C   UNL     1       5.121   6.020  18.128  0.00  0.00    +0.000 A 
ATOM      8  C   UNL     1       6.301   5.834  17.382  0.00  0.00    +0.000 A 
BRANCH   8   9
ATOM      9  N   UNL     1       7.436   6.732  17.670  0.00  0.00    +0.000 N 
ATOM     10  O   UNL     1       7.698   7.655  16.886  0.00  0.00    +0.000 OA
ATOM     11  O   UNL     1       8.084   6.511  18.706  0.00  0.00    +0.000 OA
ENDBRANCH   8   9
BRANCH   3  13
ATOM     12  C   UNL     1       7.306   4.859  14.214  0.00  0.00    +0.000 C 
ATOM     13  O   UNL     1       7.482   4.693  15.621  0.00  0.00    +0.000 OA
ENDBRANCH   3  13
ENDBRANCH   1   6
BRANCH   1  14
ATOM     14  O   UNL     1       2.810   6.429  19.492  0.00  0.00    +0.000 OA
BRANCH  14  15
ATOM     15  C   UNL     1       2.252   7.693  19.100  0.00  0.00    +0.000 C 
BRANCH  15  16
ATOM     16  C   UNL     1       1.347   8.244  20.220  0.00  0.00    +0.000 C 
ATOM     17  O   UNL     1       1.129   7.545  21.211  0.00  0.00    +0.000 OA
ATOM     18  N   UNL     1       0.847   9.544  20.067  0.00  0.00    +0.000 N 
ATOM     19  C   UNL     1       0.107  10.244  21.155  0.00  0.00    +0.000 C 
ATOM     20  C   UNL     1       0.194   9.656  22.568  0.00  0.00    +0.000 C 
ATOM     21  C   UNL     1       0.572  11.714  21.230  0.00  0.00    +0.000 C 
ATOM     22  C   UNL     1       0.504  12.434  19.887  0.00  0.00    +0.000 C 
ATOM     23  C   UNL     1       1.233  11.641  18.811  0.00  0.00    +0.000 C 
ATOM     24  C   UNL     1       0.757  10.189  18.737  0.00  0.00    +0.000 C 
ATOM     25  C   UNL     1      -0.660  10.070  18.152  0.00  0.00    +0.000 C 
ENDBRANCH  15  16
ENDBRANCH  14  15
ENDBRANCH   1  14
TORSDOF 6
ENDMDL
MODEL 4
REMARK VINA RESULT:      -7.2      2.883      7.471
REMARK  Name = 
REMARK  9 active torsions:
REMARK  status: ('A' for Active; 'I' for Inactive)
REMARK    1  A    between atoms: C_1  and  O_2
REMARK    2  A    between atoms: O_2  and  C_3
REMARK    3  A    between atoms: C_6  and  C_7
REMARK    4  A    between atoms: C_7  and  O_9
REMARK    5  A    between atoms: O_9  and  C_10
REMARK    6  A    between atoms: C_10  and  C_11
REMARK    7  A    between atoms: C_14  and  C_15
REMARK    8  A    between atoms: C_19  and  C_20
REMARK    9  A    between atoms: C_22  and  N_23
REMARK                            x       y       z     vdW  Elec       q    Type
REMARK                         _______ _______ _______ _____ _____    ______ ____
ROOT
ATOM      1  C   UNL     1       2.865   7.712  18.090  0.00  0.00    +0.000 C 
ATOM      2  O   UNL     1       3.180   8.176  17.005  0.00  0.00    +0.000 OA
ENDROOT
BRANCH   1   6
ATOM      3  C   UNL     1       0.217   9.663  20.871  0.00  0.00    +0.000 A 
ATOM      4  C   UNL     1       0.925   8.505  21.223  0.00  0.00    +0.000 A 
ATOM      5  C   UNL     1       1.753   7.862  20.300  0.00  0.00    +0.000 A 
ATOM      6  C   UNL     1       1.868   8.349  18.995  0.00  0.00    +0.000 A 
ATOM      7  C   UNL     1       1.107   9.459  18.608  0.00  0.00    +0.000 A 
ATOM      8  C   UNL     1       0.275  10.113  19.538  0.00  0.00    +0.000 A 
BRANCH   8   9
ATOM      9  N   UNL     1      -0.492  11.280  19.061  0.00  0.00    +0.000 N 
ATOM     10  O   UNL     1      -1.672  11.135  18.714  0.00  0.00    +0.000 OA
ATOM     11  O   UNL     1       0.100  12.372  19.032  0.00  0.00    +0.000 OA
ENDBRANCH   8   9
BRANCH   3  13
ATOM     12  C   UNL     1      -0.455   9.862  23.137  0.00  0.00    +0.000 C 
ATOM     13  O   UNL     1      -0.544  10.331  21.792  0.00  0.00    +0.000 OA
ENDBRANCH   3  13
ENDBRANCH   1   6
BRANCH   1  14
ATOM     14  O   UNL     1       3.299   6.544  18.617  0.00  0.00    +0.000 OA
BRANCH  14  15
ATOM     15  C   UNL     1       3.529   5.505  17.653  0.00  0.00    +0.000 C 
BRANCH  15  16
ATOM     16  C   UNL     1       3.937   4.200  18.366  0.00  0.00    +0.000 C 
ATOM     17  O   UNL     1       5.065   3.741  18.173  0.00  0.00    +0.000 OA
ATOM     18  N   UNL     1       3.007   3.620  19.238  0.00  0.00    +0.000 N 
ATOM     19  C   UNL     1       3.349   2.461  20.110  0.00  0.00    +0.000 C 
ATOM     20  C   UNL     1       4.833   2.121  20.293  0.00  0.00    +0.000 C 
ATOM     21  C   UNL     1       2.741   2.673  21.512  0.00  0.00    +0.000 C 
ATOM     22  C   UNL     1       1.249   2.988  21.476  0.00  0.00    +0.000 C 
ATOM     23  C   UNL     1       0.963   4.145  20.530  0.00  0.00    +0.000 C 
ATOM     24  C   UNL     1       1.560   3.919  19.140  0.00  0.00    +0.000 C 
ATOM     25  C   UNL     1       0.814   2.827  18.356  0.00  0.00    +0.000 C 
ENDBRANCH  15  16
ENDBRANCH  14  15
ENDBRANCH   1  14
TORSDOF 6
ENDMDL
MODEL 5
REMARK VINA RESULT:      -7.2      3.416      8.687
REMARK  Name = 
REMARK  9 active torsions:
REMARK  status: ('A' for Active; 'I' for Inactive)
REMARK    1  A    between atoms: C_1  and  O_2
REMARK    2  A    between atoms: O_2  and  C_3
REMARK    3  A    between atoms: C_6  and  C_7
REMARK    4  A    between atoms: C_7  and  O_9
REMARK    5  A    between atoms: O_9  and  C_10
REMARK    6  A    between atoms: C_10  and  C_11
REMARK    7  A    between atoms: C_14  and  C_15
REMARK    8  A    between atoms: C_19  and  C_20
REMARK    9  A    between atoms: C_22  and  N_23
REMARK                            x       y       z     vdW  Elec       q    Type
REMARK                         _______ _______ _______ _____ _____    ______ ____
ROOT
ATOM      1  C   UNL     1       1.539   9.187  18.348  0.00  0.00    +0.000 C 
ATOM      2  O   UNL     1       2.195   9.391  17.338  0.00  0.00    +0.000 OA
ENDROOT
BRANCH   1   6
ATOM      3  C   UNL     1      -1.966  11.531  19.228  0.00  0.00    +0.000 A 
ATOM      4  C   UNL     1      -0.930  11.382  20.162  0.00  0.00    +0.000 A 
ATOM      5  C   UNL     1       0.185  10.590  19.877  0.00  0.00    +0.000 A 
ATOM      6  C   UNL     1       0.273   9.907  18.662  0.00  0.00    +0.000 A 
ATOM      7  C   UNL     1      -0.788   9.985  17.752  0.00  0.00    +0.000 A 
ATOM      8  C   UNL     1      -1.912  10.786  18.034  0.00  0.00    +0.000 A 
BRANCH   8   9
ATOM      9  N   UNL     1      -2.989  10.826  17.027  0.00  0.00    +0.000 N 
ATOM     10  O   UNL     1      -4.142  10.512  17.352  0.00  0.00    +0.000 OA
ATOM     11  O   UNL     1      -2.677  11.181  15.878  0.00  0.00    +0.000 OA
ENDBRANCH   8   9
BRANCH   3  13
ATOM     12  C   UNL     1      -3.085  12.923  20.788  0.00  0.00    +0.000 C 
ATOM     13  O   UNL     1      -3.028  12.357  19.480  0.00  0.00    +0.000 OA
ENDBRANCH   3  13
ENDBRANCH   1   6
BRANCH   1  14
ATOM     14  O   UNL     1       1.799   8.258  19.296  0.00  0.00    +0.000 OA
BRANCH  14  15
ATOM     15  C   UNL     1       2.568   7.137  18.835  0.00  0.00    +0.000 C 
BRANCH  15  16
ATOM     16  C   UNL     1       2.287   5.902  19.715  0.00  0.00    +0.000 C 
ATOM     17  O   UNL     1       1.669   6.049  20.772  0.00  0.00    +0.000 OA
ATOM     18  N   UNL     1       2.718   4.657  19.240  0.00  0.00    +0.000 N 
ATOM     19  C   UNL     1       2.355   3.378  19.914  0.00  0.00    +0.000 C 
ATOM     20  C   UNL     1       1.218   3.414  20.942  0.00  0.00    +0.000 C 
ATOM     21  C   UNL     1       1.992   2.320  18.851  0.00  0.00    +0.000 C 
ATOM     22  C   UNL     1       3.062   2.158  17.776  0.00  0.00    +0.000 C 
ATOM     23  C   UNL     1       3.424   3.505  17.166  0.00  0.00    +0.000 C 
ATOM     24  C   UNL     1       3.794   4.543  18.228  0.00  0.00    +0.000 C 
ATOM     25  C   UNL     1       5.152   4.246  18.885  0.00  0.00    +0.000 C 
ENDBRANCH  15  16
ENDBRANCH  14  15
ENDBRANCH   1  14
TORSDOF 6
ENDMDL
MODEL 6
REMARK VINA RESULT:      -7.1      3.154      8.363
REMARK  Name = 
REMARK  9 active torsions:
REMARK  status: ('A' for Active; 'I' for Inactive)
REMARK    1  A    between atoms: C_1  and  O_2
REMARK    2  A    between atoms: O_2  and  C_3
REMARK    3  A    between atoms: C_6  and  C_7
REMARK    4  A    between atoms: C_7  and  O_9
REMARK    5  A    between atoms: O_9  and  C_10
REMARK    6  A    between atoms: C_10  and  C_11
REMARK    7  A    between atoms: C_14  and  C_15
REMARK    8  A    between atoms: C_19  and  C_20
REMARK    9  A    between atoms: C_22  and  N_23
REMARK                            x       y       z     vdW  Elec       q    Type
REMARK                         _______ _______ _______ _____ _____    ______ ____
ROOT
ATOM      1  C   UNL     1       1.626   9.061  18.693  0.00  0.00    +0.000 C 
ATOM      2  O   UNL     1       1.827   9.123  17.490  0.00  0.00    +0.000 OA
ENDROOT
BRANCH   1   6
ATOM      3  C   UNL     1      -1.148  11.697  20.670  0.00  0.00    +0.000 A 
ATOM      4  C   UNL     1      -0.817  11.862  19.317  0.00  0.00    +0.000 A 
ATOM      5  C   UNL     1       0.111  11.022  18.697  0.00  0.00    +0.000 A 
ATOM      6  C   UNL     1       0.750  10.016  19.427  0.00  0.00    +0.000 A 
ATOM      7  C   UNL     1       0.487   9.889  20.797  0.00  0.00    +0.000 A 
ATOM      8  C   UNL     1      -0.452  10.732  21.423  0.00  0.00    +0.000 A 
BRANCH   8   9
ATOM      9  N   UNL     1      -0.684  10.536  22.867  0.00  0.00    +0.000 N 
ATOM     10  O   UNL     1      -1.753  10.907  23.370  0.00  0.00    +0.000 OA
ATOM     11  O   UNL     1       0.228   9.998  23.519  0.00  0.00    +0.000 OA
ENDBRANCH   8   9
BRANCH   3  13
ATOM     12  C   UNL     1      -2.304  13.768  20.686  0.00  0.00    +0.000 C 
ATOM     13  O   UNL     1      -2.103  12.478  21.262  0.00  0.00    +0.000 OA
ENDBRANCH   3  13
ENDBRANCH   1   6
BRANCH   1  14
ATOM     14  O   UNL     1       2.091   8.109  19.534  0.00  0.00    +0.000 OA
BRANCH  14  15
ATOM     15  C   UNL     1       2.568   6.921  18.883  0.00  0.00    +0.000 C 
BRANCH  15  16
ATOM     16  C   UNL     1       2.326   5.690  19.779  0.00  0.00    +0.000 C 
ATOM     17  O   UNL     1       1.708   5.833  20.836  0.00  0.00    +0.000 OA
ATOM     18  N   UNL     1       2.792   4.452  19.318  0.00  0.00    +0.000 N 
ATOM     19  C   UNL     1       2.469   3.173  20.010  0.00  0.00    +0.000 C 
ATOM     20  C   UNL     1       1.335   3.188  21.042  0.00  0.00    +0.000 C 
ATOM     21  C   UNL     1       2.133   2.090  18.963  0.00  0.00    +0.000 C 
ATOM     22  C   UNL     1       3.204   1.946  17.886  0.00  0.00    +0.000 C 
ATOM     23  C   UNL     1       3.524   3.294  17.257  0.00  0.00    +0.000 C 
ATOM     24  C   UNL     1       3.867   4.357  18.304  0.00  0.00    +0.000 C 
ATOM     25  C   UNL     1       5.235   4.109  18.959  0.00  0.00    +0.000 C 
ENDBRANCH  15  16
ENDBRANCH  14  15
ENDBRANCH   1  14
TORSDOF 6
ENDMDL
MODEL 7
REMARK VINA RESULT:      -7.1      3.285      8.353
REMARK  Name = 
REMARK  9 active torsions:
REMARK  status: ('A' for Active; 'I' for Inactive)
REMARK    1  A    between atoms: C_1  and  O_2
REMARK    2  A    between atoms: O_2  and  C_3
REMARK    3  A    between atoms: C_6  and  C_7
REMARK    4  A    between atoms: C_7  and  O_9
REMARK    5  A    between atoms: O_9  and  C_10
REMARK    6  A    between atoms: C_10  and  C_11
REMARK    7  A    between atoms: C_14  and  C_15
REMARK    8  A    between atoms: C_19  and  C_20
REMARK    9  A    between atoms: C_22  and  N_23
REMARK                            x       y       z     vdW  Elec       q    Type
REMARK                         _______ _______ _______ _____ _____    ______ ____
ROOT
ATOM      1  C   UNL     1       1.585   8.944  18.878  0.00  0.00    +0.000 C 
ATOM      2  O   UNL     1       1.417   9.139  17.684  0.00  0.00    +0.000 OA
ENDROOT
BRANCH   1   6
ATOM      3  C   UNL     1      -0.276  11.040  22.148  0.00  0.00    +0.000 A 
ATOM      4  C   UNL     1      -0.332   9.642  22.047  0.00  0.00    +0.000 A 
ATOM      5  C   UNL     1       0.245   8.977  20.962  0.00  0.00    +0.000 A 
ATOM      6  C   UNL     1       0.867   9.700  19.941  0.00  0.00    +0.000 A 
ATOM      7  C   UNL     1       0.863  11.100  19.990  0.00  0.00    +0.000 A 
ATOM      8  C   UNL     1       0.285  11.773  21.085  0.00  0.00    +0.000 A 
BRANCH   8   9
ATOM      9  N   UNL     1       0.324  13.248  21.074  0.00  0.00    +0.000 N 
ATOM     10  O   UNL     1      -0.536  13.876  20.441  0.00  0.00    +0.000 OA
ATOM     11  O   UNL     1       1.237  13.795  21.714  0.00  0.00    +0.000 OA
ENDBRANCH   8   9
BRANCH   3  13
ATOM     12  C   UNL     1      -2.205  11.819  23.287  0.00  0.00    +0.000 C 
ATOM     13  O   UNL     1      -0.785  11.688  23.241  0.00  0.00    +0.000 OA
ENDBRANCH   3  13
ENDBRANCH   1   6
BRANCH   1  14
ATOM     14  O   UNL     1       2.376   7.995  19.430  0.00  0.00    +0.000 OA
BRANCH  14  15
ATOM     15  C   UNL     1       2.405   6.752  18.710  0.00  0.00    +0.000 C 
BRANCH  15  16
ATOM     16  C   UNL     1       2.226   5.570  19.684  0.00  0.00    +0.000 C 
ATOM     17  O   UNL     1       1.586   5.743  20.724  0.00  0.00    +0.000 OA
ATOM     18  N   UNL     1       2.772   4.336  19.311  0.00  0.00    +0.000 N 
ATOM     19  C   UNL     1       2.518   3.087  20.083  0.00  0.00    +0.000 C 
ATOM     20  C   UNL     1       1.371   3.100  21.101  0.00  0.00    +0.000 C 
ATOM     21  C   UNL     1       2.262   1.920  19.106  0.00  0.00    +0.000 C 
ATOM     22  C   UNL     1       3.354   1.771  18.051  0.00  0.00    +0.000 C 
ATOM     23  C   UNL     1       3.601   3.092  17.337  0.00  0.00    +0.000 C 
ATOM     24  C   UNL     1       3.864   4.240  18.315  0.00  0.00    +0.000 C 
ATOM     25  C   UNL     1       5.236   4.120  18.998  0.00  0.00    +0.000 C 
ENDBRANCH  15  16
ENDBRANCH  14  15
ENDBRANCH   1  14
TORSDOF 6
ENDMDL
MODEL 8
REMARK VINA RESULT:      -7.0      2.680      6.951
REMARK  Name = 
REMARK  9 active torsions:
REMARK  status: ('A' for Active; 'I' for Inactive)
REMARK    1  A    between atoms: C_1  and  O_2
REMARK    2  A    between atoms: O_2  and  C_3
REMARK    3  A    between atoms: C_6  and  C_7
REMARK    4  A    between atoms: C_7  and  O_9
REMARK    5  A    between atoms: O_9  and  C_10
REMARK    6  A    between atoms: C_10  and  C_11
REMARK    7  A    between atoms: C_14  and  C_15
REMARK    8  A    between atoms: C_19  and  C_20
REMARK    9  A    between atoms: C_22  and  N_23
REMARK                            x       y       z     vdW  Elec       q    Type
REMARK                         _______ _______ _______ _____ _____    ______ ____
ROOT
ATOM      1  C   UNL     1       3.250   6.694  18.155  0.00  0.00    +0.000 C 
ATOM      2  O   UNL     1       4.461   6.761  18.013  0.00  0.00    +0.000 OA
ENDROOT
BRANCH   1   6
ATOM      3  C   UNL     1       0.622   9.857  19.439  0.00  0.00    +0.000 A 
ATOM      4  C   UNL     1       1.192   9.852  18.158  0.00  0.00    +0.000 A 
ATOM      5  C   UNL     1       2.071   8.839  17.766  0.00  0.00    +0.000 A 
ATOM      6  C   UNL     1       2.420   7.823  18.660  0.00  0.00    +0.000 A 
ATOM      7  C   UNL     1       1.919   7.857  19.968  0.00  0.00    +0.000 A 
ATOM      8  C   UNL     1       1.029   8.875  20.363  0.00  0.00    +0.000 A 
BRANCH   8   9
ATOM      9  N   UNL     1       0.535   8.844  21.753  0.00  0.00    +0.000 N 
ATOM     10  O   UNL     1       1.200   9.382  22.650  0.00  0.00    +0.000 OA
ATOM     11  O   UNL     1      -0.546   8.267  21.957  0.00  0.00    +0.000 OA
ENDBRANCH   8   9
BRANCH   3  13
ATOM     12  C   UNL     1      -1.462  10.898  18.995  0.00  0.00    +0.000 C 
ATOM     13  O   UNL     1      -0.288  10.812  19.802  0.00  0.00    +0.000 OA
ENDBRANCH   3  13
ENDBRANCH   1   6
BRANCH   1  14
ATOM     14  O   UNL     1       2.463   5.644  17.827  0.00  0.00    +0.000 OA
BRANCH  14  15
ATOM     15  C   UNL     1       3.130   4.608  17.090  0.00  0.00    +0.000 C 
BRANCH  15  16
ATOM     16  C   UNL     1       3.651   3.522  18.053  0.00  0.00    +0.000 C 
ATOM     17  O   UNL     1       4.782   3.062  17.881  0.00  0.00    +0.000 OA
ATOM     18  N   UNL     1       2.817   3.141  19.112  0.00  0.00    +0.000 N 
ATOM     19  C   UNL     1       3.276   2.232  20.200  0.00  0.00    +0.000 C 
ATOM     20  C   UNL     1       4.783   1.988  20.334  0.00  0.00    +0.000 C 
ATOM     21  C   UNL     1       2.764   2.755  21.559  0.00  0.00    +0.000 C 
ATOM     22  C   UNL     1       1.260   3.011  21.574  0.00  0.00    +0.000 C 
ATOM     23  C   UNL     1       0.851   3.901  20.409  0.00  0.00    +0.000 C 
ATOM     24  C   UNL     1       1.354   3.367  19.066  0.00  0.00    +0.000 C 
ATOM     25  C   UNL     1       0.604   2.099  18.625  0.00  0.00    +0.000 C 
ENDBRANCH  15  16
ENDBRANCH  14  15
ENDBRANCH   1  14
TORSDOF 6
ENDMDL
MODEL 9
REMARK VINA RESULT:      -7.0      1.432      2.309
REMARK  Name = 
REMARK  9 active torsions:
REMARK  status: ('A' for Active; 'I' for Inactive)
REMARK    1  A    between atoms: C_1  and  O_2
REMARK    2  A    between atoms: O_2  and  C_3
REMARK    3  A    between atoms: C_6  and  C_7
REMARK    4  A    between atoms: C_7  and  O_9
REMARK    5  A    between atoms: O_9  and  C_10
REMARK    6  A    between atoms: C_10  and  C_11
REMARK    7  A    between atoms: C_14  and  C_15
REMARK    8  A    between atoms: C_19  and  C_20
REMARK    9  A    between atoms: C_22  and  N_23
REMARK                            x       y       z     vdW  Elec       q    Type
REMARK                         _______ _______ _______ _____ _____    ______ ____
ROOT
ATOM      1  C   UNL     1       2.871   5.142  19.597  0.00  0.00    +0.000 C 
ATOM      2  O   UNL     1       2.760   4.615  20.693  0.00  0.00    +0.000 OA
ENDROOT
BRANCH   1   6
ATOM      3  C   UNL     1       5.896   4.376  16.627  0.00  0.00    +0.000 A 
ATOM      4  C   UNL     1       4.532   4.220  16.341  0.00  0.00    +0.000 A 
ATOM      5  C   UNL     1       3.563   4.438  17.324  0.00  0.00    +0.000 A 
ATOM      6  C   UNL     1       3.940   4.788  18.623  0.00  0.00    +0.000 A 
ATOM      7  C   UNL     1       5.302   4.871  18.942  0.00  0.00    +0.000 A 
ATOM      8  C   UNL     1       6.281   4.657  17.952  0.00  0.00    +0.000 A 
BRANCH   8   9
ATOM      9  N   UNL     1       7.695   4.768  18.359  0.00  0.00    +0.000 N 
ATOM     10  O   UNL     1       8.547   4.062  17.804  0.00  0.00    +0.000 OA
ATOM     11  O   UNL     1       7.962   5.583  19.258  0.00  0.00    +0.000 OA
ENDBRANCH   8   9
BRANCH   3  13
ATOM     12  C   UNL     1       6.349   3.997  14.330  0.00  0.00    +0.000 C 
ATOM     13  O   UNL     1       6.842   4.226  15.650  0.00  0.00    +0.000 OA
ENDBRANCH   3  13
ENDBRANCH   1   6
BRANCH   1  14
ATOM     14  O   UNL     1       2.033   6.059  19.062  0.00  0.00    +0.000 OA
BRANCH  14  15
ATOM     15  C   UNL     1       2.427   7.423  19.280  0.00  0.00    +0.000 C 
BRANCH  15  16
ATOM     16  C   UNL     1       1.467   8.099  20.281  0.00  0.00    +0.000 C 
ATOM     17  O   UNL     1       1.139   7.488  21.300  0.00  0.00    +0.000 OA
ATOM     18  N   UNL     1       1.048   9.404  19.994  0.00  0.00    +0.000 N 
ATOM     19  C   UNL     1       0.263  10.219  20.964  0.00  0.00    +0.000 C 
ATOM     20  C   UNL     1       0.210   9.737  22.419  0.00  0.00    +0.000 C 
ATOM     21  C   UNL     1       0.794  11.667  20.969  0.00  0.00    +0.000 C 
ATOM     22  C   UNL     1       0.867  12.284  19.575  0.00  0.00    +0.000 C 
ATOM     23  C   UNL     1       1.635  11.379  18.623  0.00  0.00    +0.000 C 
ATOM     24  C   UNL     1       1.092   9.948  18.617  0.00  0.00    +0.000 C 
ATOM     25  C   UNL     1      -0.279   9.848  17.930  0.00  0.00    +0.000 C 
ENDBRANCH  15  16
ENDBRANCH  14  15
ENDBRANCH   1  14
TORSDOF 6
ENDMDL
