MODEL 1
REMARK VINA RESULT:      -7.5      0.000      0.000
REMARK  Name = 
REMARK  3 active torsions:
REMARK  status: ('A' for Active; 'I' for Inactive)
REMARK    1  A    between atoms: N_3  and  C_4
REMARK    2  A    between atoms: C_14  and  C_15
REMARK    3  A    between atoms: C_19  and  N_20
REMARK                            x       y       z     vdW  Elec       q    Type
REMARK                         _______ _______ _______ _____ _____    ______ ____
ROOT
ATOM      1  O   UNL     1       1.200  15.883  18.951  0.00  0.00    +0.000 OA
ATOM      2  C   UNL     1       1.303  14.656  18.915  0.00  0.00    +0.000 C 
ATOM      3  N   UNL     1       2.477  13.951  18.943  0.00  0.00    +0.000 N 
ATOM      4  N   UNL     1       0.146  13.938  18.833  0.00  0.00    +0.000 N 
ATOM      5  C   UNL     1       0.041  12.583  18.789  0.00  0.00    +0.000 A 
ATOM      6  N   UNL     1       1.014  11.708  18.738  0.00  0.00    +0.000 NA
ATOM      7  C   UNL     1       0.464  10.439  18.735  0.00  0.00    +0.000 A 
ATOM      8  C   UNL     1      -0.915  10.383  18.781  0.00  0.00    +0.000 A 
ATOM      9  S   UNL     1      -1.551  11.978  18.812  0.00  0.00    +0.000 S 
ATOM     10  H   UNL     1       2.386  12.957  18.747  0.00  0.00    +0.000 HD
ATOM     11  H   UNL     1      -0.702  14.484  18.832  0.00  0.00    +0.000 HD
ENDROOT
BRANCH   7  12
ATOM     12  C   UNL     1       1.320   9.225  18.713  0.00  0.00    +0.000 A 
ATOM     13  C   UNL     1       2.224   8.907  17.717  0.00  0.00    +0.000 A 
ATOM     14  C   UNL     1       2.877   7.716  18.120  0.00  0.00    +0.000 A 
ATOM     15  C   UNL     1       3.906   6.911  17.595  0.00  0.00    +0.000 A 
ATOM     16  C   UNL     1       4.298   5.777  18.335  0.00  0.00    +0.000 A 
ATOM     17  C   UNL     1       3.676   5.439  19.548  0.00  0.00    +0.000 A 
ATOM     18  C   UNL     1       2.648   6.234  20.070  0.00  0.00    +0.000 A 
ATOM     19  C   UNL     1       2.295   7.359  19.330  0.00  0.00    +0.000 A 
ATOM     20  O   UNL     1       1.349   8.267  19.685  0.00  0.00    +0.000 OA
BRANCH  16  21
ATOM     21  N   UNL     1       5.394   4.941  17.828  0.00  0.00    +0.000 N 
ATOM     22  O   UNL     1       5.480   4.785  16.601  0.00  0.00    +0.000 OA
ATOM     23  O   UNL     1       6.171   4.444  18.656  0.00  0.00    +0.000 OA
ENDBRANCH  16  21
ENDBRANCH   7  12
BRANCH   3  24
ATOM     24  C   UNL     1       3.781  14.471  19.039  0.00  0.00    +0.000 A 
ATOM     25  C   UNL     1       4.624  14.640  17.935  0.00  0.00    +0.000 A 
ATOM     26  C   UNL     1       5.930  15.102  18.104  0.00  0.00    +0.000 A 
ATOM     27  C   UNL     1       6.393  15.400  19.377  0.00  0.00    +0.000 A 
ATOM     28  F   UNL     1       7.657  15.811  19.542  0.00  0.00    +0.000 F 
ATOM     29  C   UNL     1       5.562  15.274  20.483  0.00  0.00    +0.000 A 
ATOM     30  C   UNL     1       4.250  14.824  20.313  0.00  0.00    +0.000 A 
ENDBRANCH   3  24
TORSDOF 3
ENDMDL
MODEL 2
REMARK VINA RESULT:      -7.5      0.127      1.091
REMARK  Name = 
REMARK  3 active torsions:
REMARK  status: ('A' for Active; 'I' for Inactive)
REMARK    1  A    between atoms: N_3  and  C_4
REMARK    2  A    between atoms: C_14  and  C_15
REMARK    3  A    between atoms: C_19  and  N_20
REMARK                            x       y       z     vdW  Elec       q    Type
REMARK                         _______ _______ _______ _____ _____    ______ ____
ROOT
ATOM      1  O   UNL     1       1.314  15.875  18.990  0.00  0.00    +0.000 OA
ATOM      2  C   UNL     1       1.401  14.647  18.942  0.00  0.00    +0.000 C 
ATOM      3  N   UNL     1       2.561  13.924  19.029  0.00  0.00    +0.000 N 
ATOM      4  N   UNL     1       0.241  13.948  18.783  0.00  0.00    +0.000 N 
ATOM      5  C   UNL     1       0.119  12.596  18.713  0.00  0.00    +0.000 A 
ATOM      6  N   UNL     1       1.080  11.707  18.706  0.00  0.00    +0.000 NA
ATOM      7  C   UNL     1       0.512  10.446  18.653  0.00  0.00    +0.000 A 
ATOM      8  C   UNL     1      -0.868  10.411  18.617  0.00  0.00    +0.000 A 
ATOM      9  S   UNL     1      -1.481  12.015  18.634  0.00  0.00    +0.000 S 
ATOM     10  H   UNL     1       2.467  12.934  18.813  0.00  0.00    +0.000 HD
ATOM     11  H   UNL     1      -0.598  14.508  18.739  0.00  0.00    +0.000 HD
ENDROOT
BRANCH   7  12
ATOM     12  C   UNL     1       1.351   9.220  18.663  0.00  0.00    +0.000 A 
ATOM     13  C   UNL     1       2.252   8.864  17.679  0.00  0.00    +0.000 A 
ATOM     14  C   UNL     1       2.887   7.674  18.113  0.00  0.00    +0.000 A 
ATOM     15  C   UNL     1       3.905   6.841  17.612  0.00  0.00    +0.000 A 
ATOM     16  C   UNL     1       4.278   5.720  18.381  0.00  0.00    +0.000 A 
ATOM     17  C   UNL     1       3.647   5.421  19.600  0.00  0.00    +0.000 A 
ATOM     18  C   UNL     1       2.630   6.244  20.098  0.00  0.00    +0.000 A 
ATOM     19  C   UNL     1       2.296   7.355  19.330  0.00  0.00    +0.000 A 
ATOM     20  O   UNL     1       1.362   8.286  19.659  0.00  0.00    +0.000 OA
BRANCH  16  21
ATOM     21  N   UNL     1       5.363   4.855  17.897  0.00  0.00    +0.000 N 
ATOM     22  O   UNL     1       6.172   4.425  18.731  0.00  0.00    +0.000 OA
ATOM     23  O   UNL     1       5.402   4.604  16.684  0.00  0.00    +0.000 OA
ENDBRANCH  16  21
ENDBRANCH   7  12
BRANCH   3  24
ATOM     24  C   UNL     1       3.865  14.422  19.209  0.00  0.00    +0.000 A 
ATOM     25  C   UNL     1       4.386  14.777  20.458  0.00  0.00    +0.000 A 
ATOM     26  C   UNL     1       5.665  15.325  20.563  0.00  0.00    +0.000 A 
ATOM     27  C   UNL     1       6.426  15.515  19.419  0.00  0.00    +0.000 A 
ATOM     28  F   UNL     1       7.640  16.072  19.517  0.00  0.00    +0.000 F 
ATOM     29  C   UNL     1       5.942  15.138  18.173  0.00  0.00    +0.000 A 
ATOM     30  C   UNL     1       4.666  14.576  18.069  0.00  0.00    +0.000 A 
ENDBRANCH   3  24
TORSDOF 3
ENDMDL
MODEL 3
REMARK VINA RESULT:      -7.5      6.320      7.247
REMARK  Name = 
REMARK  3 active torsions:
REMARK  status: ('A' for Active; 'I' for Inactive)
REMARK    1  A    between atoms: N_3  and  C_4
REMARK    2  A    between atoms: C_14  and  C_15
REMARK    3  A    between atoms: C_19  and  N_20
REMARK                            x       y       z     vdW  Elec       q    Type
REMARK                         _______ _______ _______ _____ _____    ______ ____
ROOT
ATOM      1  O   UNL     1       9.618  14.373  22.755  0.00  0.00    +0.000 OA
ATOM      2  C   UNL     1       9.387  13.416  22.016  0.00  0.00    +0.000 C 
ATOM      3  N   UNL     1       8.583  12.349  22.318  0.00  0.00    +0.000 N 
ATOM      4  N   UNL     1       9.989  13.416  20.793  0.00  0.00    +0.000 N 
ATOM      5  C   UNL     1       9.861  12.463  19.832  0.00  0.00    +0.000 A 
ATOM      6  N   UNL     1       9.207  11.331  19.913  0.00  0.00    +0.000 NA
ATOM      7  C   UNL     1       9.311  10.676  18.698  0.00  0.00    +0.000 A 
ATOM      8  C   UNL     1      10.046  11.327  17.727  0.00  0.00    +0.000 A 
ATOM      9  S   UNL     1      10.644  12.807  18.359  0.00  0.00    +0.000 S 
ATOM     10  H   UNL     1       8.629  11.576  21.659  0.00  0.00    +0.000 HD
ATOM     11  H   UNL     1      10.561  14.223  20.593  0.00  0.00    +0.000 HD
ENDROOT
BRANCH   7  12
ATOM     12  C   UNL     1       8.644   9.369  18.466  0.00  0.00    +0.000 A 
ATOM     13  C   UNL     1       7.711   9.116  17.479  0.00  0.00    +0.000 A 
ATOM     14  C   UNL     1       7.388   7.739  17.561  0.00  0.00    +0.000 A 
ATOM     15  C   UNL     1       6.562   6.858  16.837  0.00  0.00    +0.000 A 
ATOM     16  C   UNL     1       6.529   5.507  17.237  0.00  0.00    +0.000 A 
ATOM     17  C   UNL     1       7.274   5.046  18.334  0.00  0.00    +0.000 A 
ATOM     18  C   UNL     1       8.092   5.920  19.060  0.00  0.00    +0.000 A 
ATOM     19  C   UNL     1       8.123   7.244  18.632  0.00  0.00    +0.000 A 
ATOM     20  O   UNL     1       8.877   8.231  19.183  0.00  0.00    +0.000 OA
BRANCH  16  21
ATOM     21  N   UNL     1       5.703   4.561  16.475  0.00  0.00    +0.000 N 
ATOM     22  O   UNL     1       4.474   4.614  16.629  0.00  0.00    +0.000 OA
ATOM     23  O   UNL     1       6.283   3.767  15.721  0.00  0.00    +0.000 OA
ENDBRANCH  16  21
ENDBRANCH   7  12
BRANCH   3  24
ATOM     24  C   UNL     1       7.852  12.140  23.503  0.00  0.00    +0.000 A 
ATOM     25  C   UNL     1       8.414  12.247  24.780  0.00  0.00    +0.000 A 
ATOM     26  C   UNL     1       7.652  11.966  25.916  0.00  0.00    +0.000 A 
ATOM     27  C   UNL     1       6.327  11.583  25.774  0.00  0.00    +0.000 A 
ATOM     28  F   UNL     1       5.606  11.281  26.862  0.00  0.00    +0.000 F 
ATOM     29  C   UNL     1       5.739  11.505  24.518  0.00  0.00    +0.000 A 
ATOM     30  C   UNL     1       6.498  11.799  23.382  0.00  0.00    +0.000 A 
ENDBRANCH   3  24
TORSDOF 3
ENDMDL
MODEL 4
REMARK VINA RESULT:      -7.4      5.141      8.463
REMARK  Name = 
REMARK  3 active torsions:
REMARK  status: ('A' for Active; 'I' for Inactive)
REMARK    1  A    between atoms: N_3  and  C_4
REMARK    2  A    between atoms: C_14  and  C_15
REMARK    3  A    between atoms: C_19  and  N_20
REMARK                            x       y       z     vdW  Elec       q    Type
REMARK                         _______ _______ _______ _____ _____    ______ ____
ROOT
ATOM      1  O   UNL     1       1.986   5.277  17.834  0.00  0.00    +0.000 OA
ATOM      2  C   UNL     1       3.038   5.915  17.897  0.00  0.00    +0.000 C 
ATOM      3  N   UNL     1       3.165   7.205  18.338  0.00  0.00    +0.000 N 
ATOM      4  N   UNL     1       4.173   5.281  17.485  0.00  0.00    +0.000 N 
ATOM      5  C   UNL     1       5.429   5.803  17.480  0.00  0.00    +0.000 A 
ATOM      6  N   UNL     1       5.788   7.023  17.790  0.00  0.00    +0.000 NA
ATOM      7  C   UNL     1       7.163   7.119  17.677  0.00  0.00    +0.000 A 
ATOM      8  C   UNL     1       7.814   5.968  17.279  0.00  0.00    +0.000 A 
ATOM      9  S   UNL     1       6.662   4.721  17.020  0.00  0.00    +0.000 S 
ATOM     10  H   UNL     1       4.076   7.627  18.176  0.00  0.00    +0.000 HD
ATOM     11  H   UNL     1       4.050   4.327  17.182  0.00  0.00    +0.000 HD
ENDROOT
BRANCH   7  12
ATOM     12  C   UNL     1       7.879   8.382  17.995  0.00  0.00    +0.000 A 
ATOM     13  C   UNL     1       7.760   9.564  17.289  0.00  0.00    +0.000 A 
ATOM     14  C   UNL     1       8.548  10.527  17.965  0.00  0.00    +0.000 A 
ATOM     15  C   UNL     1       8.816  11.899  17.797  0.00  0.00    +0.000 A 
ATOM     16  C   UNL     1       9.671  12.523  18.728  0.00  0.00    +0.000 A 
ATOM     17  C   UNL     1      10.259  11.805  19.782  0.00  0.00    +0.000 A 
ATOM     18  C   UNL     1       9.999  10.439  19.949  0.00  0.00    +0.000 A 
ATOM     19  C   UNL     1       9.136   9.853  19.029  0.00  0.00    +0.000 A 
ATOM     20  O   UNL     1       8.737   8.555  19.042  0.00  0.00    +0.000 OA
BRANCH  16  21
ATOM     21  N   UNL     1       9.938  13.962  18.595  0.00  0.00    +0.000 N 
ATOM     22  O   UNL     1       9.036  14.675  18.133  0.00  0.00    +0.000 OA
ATOM     23  O   UNL     1      11.047  14.377  18.958  0.00  0.00    +0.000 OA
ENDBRANCH  16  21
ENDBRANCH   7  12
BRANCH   3  24
ATOM     24  C   UNL     1       2.144   8.045  18.822  0.00  0.00    +0.000 A 
ATOM     25  C   UNL     1       1.502   9.006  18.034  0.00  0.00    +0.000 A 
ATOM     26  C   UNL     1       0.541   9.852  18.590  0.00  0.00    +0.000 A 
ATOM     27  C   UNL     1       0.219   9.734  19.933  0.00  0.00    +0.000 A 
ATOM     28  F   UNL     1      -0.680  10.568  20.473  0.00  0.00    +0.000 F 
ATOM     29  C   UNL     1       0.818   8.763  20.726  0.00  0.00    +0.000 A 
ATOM     30  C   UNL     1       1.770   7.907  20.167  0.00  0.00    +0.000 A 
ENDBRANCH   3  24
TORSDOF 3
ENDMDL
MODEL 5
REMARK VINA RESULT:      -7.4      0.963      1.732
REMARK  Name = 
REMARK  3 active torsions:
REMARK  status: ('A' for Active; 'I' for Inactive)
REMARK    1  A    between atoms: N_3  and  C_4
REMARK    2  A    between atoms: C_14  and  C_15
REMARK    3  A    between atoms: C_19  and  N_20
REMARK                            x       y       z     vdW  Elec       q    Type
REMARK                         _______ _______ _______ _____ _____    ______ ____
ROOT
ATOM      1  O   UNL     1       1.165  15.903  18.947  0.00  0.00    +0.000 OA
ATOM      2  C   UNL     1       1.304  14.680  18.892  0.00  0.00    +0.000 C 
ATOM      3  N   UNL     1       2.492  14.005  18.990  0.00  0.00    +0.000 N 
ATOM      4  N   UNL     1       0.176  13.935  18.712  0.00  0.00    +0.000 N 
ATOM      5  C   UNL     1       0.111  12.579  18.631  0.00  0.00    +0.000 A 
ATOM      6  N   UNL     1       1.109  11.731  18.632  0.00  0.00    +0.000 NA
ATOM      7  C   UNL     1       0.595  10.448  18.562  0.00  0.00    +0.000 A 
ATOM      8  C   UNL     1      -0.782  10.356  18.507  0.00  0.00    +0.000 A 
ATOM      9  S   UNL     1      -1.461  11.933  18.527  0.00  0.00    +0.000 S 
ATOM     10  H   UNL     1       2.443  13.014  18.766  0.00  0.00    +0.000 HD
ATOM     11  H   UNL     1      -0.685  14.459  18.661  0.00  0.00    +0.000 HD
ENDROOT
BRANCH   7  12
ATOM     12  C   UNL     1       1.484   9.258  18.576  0.00  0.00    +0.000 A 
ATOM     13  C   UNL     1       1.518   8.301  19.572  0.00  0.00    +0.000 A 
ATOM     14  C   UNL     1       2.443   7.311  19.160  0.00  0.00    +0.000 A 
ATOM     15  C   UNL     1       2.896   6.083  19.681  0.00  0.00    +0.000 A 
ATOM     16  C   UNL     1       3.846   5.360  18.932  0.00  0.00    +0.000 A 
ATOM     17  C   UNL     1       4.347   5.847  17.713  0.00  0.00    +0.000 A 
ATOM     18  C   UNL     1       3.904   7.070  17.196  0.00  0.00    +0.000 A 
ATOM     19  C   UNL     1       2.951   7.753  17.945  0.00  0.00    +0.000 A 
ATOM     20  O   UNL     1       2.377   8.934  17.595  0.00  0.00    +0.000 OA
BRANCH  16  21
ATOM     21  N   UNL     1       4.307   4.059  19.435  0.00  0.00    +0.000 N 
ATOM     22  O   UNL     1       3.535   3.415  20.159  0.00  0.00    +0.000 OA
ATOM     23  O   UNL     1       5.440   3.682  19.103  0.00  0.00    +0.000 OA
ENDBRANCH  16  21
ENDBRANCH   7  12
BRANCH   3  24
ATOM     24  C   UNL     1       3.771  14.556  19.191  0.00  0.00    +0.000 A 
ATOM     25  C   UNL     1       4.256  14.932  20.448  0.00  0.00    +0.000 A 
ATOM     26  C   UNL     1       5.510  15.532  20.574  0.00  0.00    +0.000 A 
ATOM     27  C   UNL     1       6.282  15.752  19.443  0.00  0.00    +0.000 A 
ATOM     28  F   UNL     1       7.470  16.358  19.561  0.00  0.00    +0.000 F 
ATOM     29  C   UNL     1       5.835  15.354  18.189  0.00  0.00    +0.000 A 
ATOM     30  C   UNL     1       4.585  14.742  18.064  0.00  0.00    +0.000 A 
ENDBRANCH   3  24
TORSDOF 3
ENDMDL
MODEL 6
REMARK VINA RESULT:      -7.4      5.411      8.487
REMARK  Name = 
REMARK  3 active torsions:
REMARK  status: ('A' for Active; 'I' for Inactive)
REMARK    1  A    between atoms: N_3  and  C_4
REMARK    2  A    between atoms: C_14  and  C_15
REMARK    3  A    between atoms: C_19  and  N_20
REMARK                            x       y       z     vdW  Elec       q    Type
REMARK                         _______ _______ _______ _____ _____    ______ ____
ROOT
ATOM      1  O   UNL     1       1.754   5.155  18.028  0.00  0.00    +0.000 OA
ATOM      2  C   UNL     1       2.804   5.798  18.031  0.00  0.00    +0.000 C 
ATOM      3  N   UNL     1       2.986   7.029  18.602  0.00  0.00    +0.000 N 
ATOM      4  N   UNL     1       3.878   5.236  17.406  0.00  0.00    +0.000 N 
ATOM      5  C   UNL     1       5.122   5.775  17.302  0.00  0.00    +0.000 A 
ATOM      6  N   UNL     1       5.516   6.956  17.706  0.00  0.00    +0.000 NA
ATOM      7  C   UNL     1       6.866   7.087  17.430  0.00  0.00    +0.000 A 
ATOM      8  C   UNL     1       7.461   6.001  16.819  0.00  0.00    +0.000 A 
ATOM      9  S   UNL     1       6.287   4.775  16.565  0.00  0.00    +0.000 S 
ATOM     10  H   UNL     1       3.868   7.482  18.376  0.00  0.00    +0.000 HD
ATOM     11  H   UNL     1       3.718   4.322  17.010  0.00  0.00    +0.000 HD
ENDROOT
BRANCH   7  12
ATOM     12  C   UNL     1       7.615   8.315  17.802  0.00  0.00    +0.000 A 
ATOM     13  C   UNL     1       8.598   8.386  18.771  0.00  0.00    +0.000 A 
ATOM     14  C   UNL     1       9.098   9.712  18.753  0.00  0.00    +0.000 A 
ATOM     15  C   UNL     1      10.109  10.411  19.439  0.00  0.00    +0.000 A 
ATOM     16  C   UNL     1      10.316  11.765  19.108  0.00  0.00    +0.000 A 
ATOM     17  C   UNL     1       9.530  12.414  18.141  0.00  0.00    +0.000 A 
ATOM     18  C   UNL     1       8.520  11.724  17.461  0.00  0.00    +0.000 A 
ATOM     19  C   UNL     1       8.351  10.383  17.792  0.00  0.00    +0.000 A 
ATOM     20  O   UNL     1       7.449   9.541  17.222  0.00  0.00    +0.000 OA
BRANCH  16  21
ATOM     21  N   UNL     1      11.389  12.506  19.783  0.00  0.00    +0.000 N 
ATOM     22  O   UNL     1      12.243  11.851  20.398  0.00  0.00    +0.000 OA
ATOM     23  O   UNL     1      11.380  13.742  19.695  0.00  0.00    +0.000 OA
ENDBRANCH  16  21
ENDBRANCH   7  12
BRANCH   3  24
ATOM     24  C   UNL     1       2.035   7.790  19.308  0.00  0.00    +0.000 A 
ATOM     25  C   UNL     1       1.415   8.927  18.779  0.00  0.00    +0.000 A 
ATOM     26  C   UNL     1       0.527   9.675  19.553  0.00  0.00    +0.000 A 
ATOM     27  C   UNL     1       0.254   9.284  20.856  0.00  0.00    +0.000 A 
ATOM     28  F   UNL     1      -0.572  10.021  21.609  0.00  0.00    +0.000 F 
ATOM     29  C   UNL     1       0.831   8.138  21.389  0.00  0.00    +0.000 A 
ATOM     30  C   UNL     1       1.710   7.381  20.609  0.00  0.00    +0.000 A 
ENDBRANCH   3  24
TORSDOF 3
ENDMDL
MODEL 7
REMARK VINA RESULT:      -7.4      5.164      8.488
REMARK  Name = 
REMARK  3 active torsions:
REMARK  status: ('A' for Active; 'I' for Inactive)
REMARK    1  A    between atoms: N_3  and  C_4
REMARK    2  A    between atoms: C_14  and  C_15
REMARK    3  A    between atoms: C_19  and  N_20
REMARK                            x       y       z     vdW  Elec       q    Type
REMARK                         _______ _______ _______ _____ _____    ______ ____
ROOT
ATOM      1  O   UNL     1       1.926   5.439  17.852  0.00  0.00    +0.000 OA
ATOM      2  C   UNL     1       2.988   6.060  17.911  0.00  0.00    +0.000 C 
ATOM      3  N   UNL     1       3.139   7.343  18.366  0.00  0.00    +0.000 N 
ATOM      4  N   UNL     1       4.110   5.414  17.481  0.00  0.00    +0.000 N 
ATOM      5  C   UNL     1       5.373   5.916  17.469  0.00  0.00    +0.000 A 
ATOM      6  N   UNL     1       5.754   7.128  17.790  0.00  0.00    +0.000 NA
ATOM      7  C   UNL     1       7.129   7.203  17.663  0.00  0.00    +0.000 A 
ATOM      8  C   UNL     1       7.758   6.047  17.246  0.00  0.00    +0.000 A 
ATOM      9  S   UNL     1       6.584   4.821  16.985  0.00  0.00    +0.000 S 
ATOM     10  H   UNL     1       4.055   7.753  18.199  0.00  0.00    +0.000 HD
ATOM     11  H   UNL     1       3.969   4.465  17.168  0.00  0.00    +0.000 HD
ENDROOT
BRANCH   7  12
ATOM     12  C   UNL     1       7.867   8.451  17.989  0.00  0.00    +0.000 A 
ATOM     13  C   UNL     1       7.776   9.637  17.285  0.00  0.00    +0.000 A 
ATOM     14  C   UNL     1       8.578  10.584  17.968  0.00  0.00    +0.000 A 
ATOM     15  C   UNL     1       8.874  11.951  17.804  0.00  0.00    +0.000 A 
ATOM     16  C   UNL     1       9.735  12.555  18.742  0.00  0.00    +0.000 A 
ATOM     17  C   UNL     1      10.302  11.824  19.799  0.00  0.00    +0.000 A 
ATOM     18  C   UNL     1      10.015  10.463  19.961  0.00  0.00    +0.000 A 
ATOM     19  C   UNL     1       9.146   9.896  19.034  0.00  0.00    +0.000 A 
ATOM     20  O   UNL     1       8.722   8.605  19.042  0.00  0.00    +0.000 OA
BRANCH  16  21
ATOM     21  N   UNL     1      10.031  13.989  18.614  0.00  0.00    +0.000 N 
ATOM     22  O   UNL     1       9.748  14.723  19.572  0.00  0.00    +0.000 OA
ATOM     23  O   UNL     1      10.549  14.378  17.558  0.00  0.00    +0.000 OA
ENDBRANCH  16  21
ENDBRANCH   7  12
BRANCH   3  24
ATOM     24  C   UNL     1       2.137   8.192  18.870  0.00  0.00    +0.000 A 
ATOM     25  C   UNL     1       1.671   8.133  20.188  0.00  0.00    +0.000 A 
ATOM     26  C   UNL     1       0.630   8.961  20.610  0.00  0.00    +0.000 A 
ATOM     27  C   UNL     1       0.056   9.852  19.715  0.00  0.00    +0.000 A 
ATOM     28  F   UNL     1      -0.965  10.622  20.111  0.00  0.00    +0.000 F 
ATOM     29  C   UNL     1       0.527   9.953  18.412  0.00  0.00    +0.000 A 
ATOM     30  C   UNL     1       1.578   9.133  17.993  0.00  0.00    +0.000 A 
ENDBRANCH   3  24
TORSDOF 3
ENDMDL
MODEL 8
REMARK VINA RESULT:      -7.2      5.135      6.232
REMARK  Name = 
REMARK  3 active torsions:
REMARK  status: ('A' for Active; 'I' for Inactive)
REMARK    1  A    between atoms: N_3  and  C_4
REMARK    2  A    between atoms: C_14  and  C_15
REMARK    3  A    between atoms: C_19  and  N_20
REMARK                            x       y       z     vdW  Elec       q    Type
REMARK                         _______ _______ _______ _____ _____    ______ ____
ROOT
ATOM      1  O   UNL     1      -3.129  12.534  19.562  0.00  0.00    +0.000 OA
ATOM      2  C   UNL     1      -2.292  11.634  19.646  0.00  0.00    +0.000 C 
ATOM      3  N   UNL     1      -1.999  10.722  18.667  0.00  0.00    +0.000 N 
ATOM      4  N   UNL     1      -1.601  11.536  20.817  0.00  0.00    +0.000 N 
ATOM      5  C   UNL     1      -0.636  10.623  21.108  0.00  0.00    +0.000 A 
ATOM      6  N   UNL     1      -0.234   9.622  20.366  0.00  0.00    +0.000 NA
ATOM      7  C   UNL     1       0.785   8.965  21.031  0.00  0.00    +0.000 A 
ATOM      8  C   UNL     1       1.129   9.482  22.265  0.00  0.00    +0.000 A 
ATOM      9  S   UNL     1       0.129  10.833  22.616  0.00  0.00    +0.000 S 
ATOM     10  H   UNL     1      -1.397   9.956  18.960  0.00  0.00    +0.000 HD
ATOM     11  H   UNL     1      -1.827  12.232  21.512  0.00  0.00    +0.000 HD
ENDROOT
BRANCH   7  12
ATOM     12  C   UNL     1       1.473   7.795  20.427  0.00  0.00    +0.000 A 
ATOM     13  C   UNL     1       1.470   6.513  20.944  0.00  0.00    +0.000 A 
ATOM     14  C   UNL     1       2.177   5.697  20.027  0.00  0.00    +0.000 A 
ATOM     15  C   UNL     1       2.488   4.327  19.939  0.00  0.00    +0.000 A 
ATOM     16  C   UNL     1       3.222   3.889  18.818  0.00  0.00    +0.000 A 
ATOM     17  C   UNL     1       3.652   4.784  17.824  0.00  0.00    +0.000 A 
ATOM     18  C   UNL     1       3.349   6.148  17.912  0.00  0.00    +0.000 A 
ATOM     19  C   UNL     1       2.606   6.551  19.018  0.00  0.00    +0.000 A 
ATOM     20  O   UNL     1       2.187   7.820  19.263  0.00  0.00    +0.000 OA
BRANCH  16  21
ATOM     21  N   UNL     1       3.528   2.458  18.684  0.00  0.00    +0.000 N 
ATOM     22  O   UNL     1       4.292   1.952  19.518  0.00  0.00    +0.000 OA
ATOM     23  O   UNL     1       3.001   1.842  17.747  0.00  0.00    +0.000 OA
ENDBRANCH  16  21
ENDBRANCH   7  12
BRANCH   3  24
ATOM     24  C   UNL     1      -2.567  10.639  17.382  0.00  0.00    +0.000 A 
ATOM     25  C   UNL     1      -3.701  11.361  16.995  0.00  0.00    +0.000 A 
ATOM     26  C   UNL     1      -4.253  11.187  15.725  0.00  0.00    +0.000 A 
ATOM     27  C   UNL     1      -3.669  10.293  14.840  0.00  0.00    +0.000 A 
ATOM     28  F   UNL     1      -4.219  10.102  13.633  0.00  0.00    +0.000 F 
ATOM     29  C   UNL     1      -2.522   9.593  15.190  0.00  0.00    +0.000 A 
ATOM     30  C   UNL     1      -1.961   9.777  16.457  0.00  0.00    +0.000 A 
ENDBRANCH   3  24
TORSDOF 3
ENDMDL
MODEL 9
REMARK VINA RESULT:      -7.2      2.155      2.623
REMARK  Name = 
REMARK  3 active torsions:
REMARK  status: ('A' for Active; 'I' for Inactive)
REMARK    1  A    between atoms: N_3  and  C_4
REMARK    2  A    between atoms: C_14  and  C_15
REMARK    3  A    between atoms: C_19  and  N_20
REMARK                            x       y       z     vdW  Elec       q    Type
REMARK                         _______ _______ _______ _____ _____    ______ ____
ROOT
ATOM      1  O   UNL     1       0.202  13.652  21.544  0.00  0.00    +0.000 OA
ATOM      2  C   UNL     1       0.625  12.568  21.141  0.00  0.00    +0.000 C 
ATOM      3  N   UNL     1       1.661  12.390  20.264  0.00  0.00    +0.000 N 
ATOM      4  N   UNL     1       0.002  11.447  21.606  0.00  0.00    +0.000 N 
ATOM      5  C   UNL     1       0.317  10.162  21.293  0.00  0.00    +0.000 A 
ATOM      6  N   UNL     1       1.216   9.747  20.436  0.00  0.00    +0.000 NA
ATOM      7  C   UNL     1       1.228   8.364  20.448  0.00  0.00    +0.000 A 
ATOM      8  C   UNL     1       0.335   7.764  21.313  0.00  0.00    +0.000 A 
ATOM      9  S   UNL     1      -0.568   8.973  22.132  0.00  0.00    +0.000 S 
ATOM     10  H   UNL     1       1.775  11.439  19.920  0.00  0.00    +0.000 HD
ATOM     11  H   UNL     1      -0.746  11.610  22.264  0.00  0.00    +0.000 HD
ENDROOT
BRANCH   7  12
ATOM     12  C   UNL     1       2.171   7.592  19.598  0.00  0.00    +0.000 A 
ATOM     13  C   UNL     1       2.621   7.982  18.351  0.00  0.00    +0.000 A 
ATOM     14  C   UNL     1       3.552   7.004  17.925  0.00  0.00    +0.000 A 
ATOM     15  C   UNL     1       4.382   6.832  16.800  0.00  0.00    +0.000 A 
ATOM     16  C   UNL     1       5.209   5.692  16.758  0.00  0.00    +0.000 A 
ATOM     17  C   UNL     1       5.200   4.739  17.790  0.00  0.00    +0.000 A 
ATOM     18  C   UNL     1       4.372   4.903  18.908  0.00  0.00    +0.000 A 
ATOM     19  C   UNL     1       3.582   6.048  18.933  0.00  0.00    +0.000 A 
ATOM     20  O   UNL     1       2.741   6.399  19.941  0.00  0.00    +0.000 OA
BRANCH  16  21
ATOM     21  N   UNL     1       6.110   5.509  15.613  0.00  0.00    +0.000 N 
ATOM     22  O   UNL     1       5.650   4.962  14.600  0.00  0.00    +0.000 OA
ATOM     23  O   UNL     1       7.275   5.915  15.725  0.00  0.00    +0.000 OA
ENDBRANCH  16  21
ENDBRANCH   7  12
BRANCH   3  24
ATOM     24  C   UNL     1       2.456  13.388  19.669  0.00  0.00    +0.000 A 
ATOM     25  C   UNL     1       2.383  13.720  18.312  0.00  0.00    +0.000 A 
ATOM     26  C   UNL     1       3.243  14.676  17.769  0.00  0.00    +0.000 A 
ATOM     27  C   UNL     1       4.173  15.304  18.584  0.00  0.00    +0.000 A 
ATOM     28  F   UNL     1       5.019  16.197  18.055  0.00  0.00    +0.000 F 
ATOM     29  C   UNL     1       4.238  15.016  19.941  0.00  0.00    +0.000 A 
ATOM     30  C   UNL     1       3.368  14.068  20.488  0.00  0.00    +0.000 A 
ENDBRANCH   3  24
TORSDOF 3
ENDMDL
