MODEL 1
REMARK VINA RESULT:      -7.4      0.000      0.000
REMARK  Name = 
REMARK  9 active torsions:
REMARK  status: ('A' for Active; 'I' for Inactive)
REMARK    1  A    between atoms: C_1  and  N_2
REMARK    2  A    between atoms: N_2  and  C_3
REMARK    3  A    between atoms: N_2  and  C_12
REMARK    4  A    between atoms: C_3  and  C_4
REMARK    5  A    between atoms: C_5  and  C_6
REMARK    6  A    between atoms: C_12  and  C_13
REMARK    7  A    between atoms: C_16  and  C_17
REMARK    8  A    between atoms: N_19  and  C_20
REMARK    9  A    between atoms: N_19  and  C_21
REMARK                            x       y       z     vdW  Elec       q    Type
REMARK                         _______ _______ _______ _____ _____    ______ ____
ROOT
ATOM      1  C   UNL     1       7.760   6.118  18.679  0.00  0.00    +0.000 C 
ATOM      2  N   UNL     1       6.792   6.983  17.989  0.00  0.00    +0.000 NA
ENDROOT
BRANCH   2   3
ATOM      3  C   UNL     1       7.535   8.017  17.249  0.00  0.00    +0.000 C 
BRANCH   3   4
ATOM      4  C   UNL     1       8.492   8.788  18.110  0.00  0.00    +0.000 C 
ATOM      5  C   UNL     1       8.666  10.115  18.009  0.00  0.00    +0.000 C 
BRANCH   5   6
ATOM      6  C   UNL     1       9.613  10.834  18.857  0.00  0.00    +0.000 A 
ATOM      7  C   UNL     1       9.293  11.089  20.194  0.00  0.00    +0.000 A 
ATOM      8  C   UNL     1      10.190  11.778  21.010  0.00  0.00    +0.000 A 
ATOM      9  C   UNL     1      11.410  12.214  20.493  0.00  0.00    +0.000 A 
ATOM     10  C   UNL     1      11.733  11.962  19.161  0.00  0.00    +0.000 A 
ATOM     11  C   UNL     1      10.836  11.275  18.342  0.00  0.00    +0.000 A 
ENDBRANCH   5   6
ENDBRANCH   3   4
ENDBRANCH   2   3
BRANCH   2  12
ATOM     12  C   UNL     1       5.937   6.191  17.078  0.00  0.00    +0.000 C 
BRANCH  12  13
ATOM     13  C   UNL     1       4.496   6.229  17.464  0.00  0.00    +0.000 A 
ATOM     14  C   UNL     1       3.589   7.251  17.644  0.00  0.00    +0.000 A 
ATOM     15  C   UNL     1       2.384   6.637  18.061  0.00  0.00    +0.000 A 
ATOM     16  C   UNL     1       2.628   5.276  18.147  0.00  0.00    +0.000 A 
ATOM     17  O   UNL     1       3.907   5.030  17.728  0.00  0.00    +0.000 OA
BRANCH  16  18
ATOM     18  C   UNL     1       1.723   4.200  18.525  0.00  0.00    +0.000 C 
ATOM     19  O   UNL     1       1.039   3.652  17.656  0.00  0.00    +0.000 OA
ATOM     20  N   UNL     1       1.600   3.802  19.867  0.00  0.00    +0.000 N 
ATOM     21  C   UNL     1       2.148   4.484  21.030  0.00  0.00    +0.000 C 
ATOM     22  C   UNL     1       0.696   2.704  20.177  0.00  0.00    +0.000 C 
ENDBRANCH  16  18
ENDBRANCH  12  13
ENDBRANCH   2  12
TORSDOF 6
ENDMDL
MODEL 2
REMARK VINA RESULT:      -7.2      1.894      2.384
REMARK  Name = 
REMARK  9 active torsions:
REMARK  status: ('A' for Active; 'I' for Inactive)
REMARK    1  A    between atoms: C_1  and  N_2
REMARK    2  A    between atoms: N_2  and  C_3
REMARK    3  A    between atoms: N_2  and  C_12
REMARK    4  A    between atoms: C_3  and  C_4
REMARK    5  A    between atoms: C_5  and  C_6
REMARK    6  A    between atoms: C_12  and  C_13
REMARK    7  A    between atoms: C_16  and  C_17
REMARK    8  A    between atoms: N_19  and  C_20
REMARK    9  A    between atoms: N_19  and  C_21
REMARK                            x       y       z     vdW  Elec       q    Type
REMARK                         _______ _______ _______ _____ _____    ______ ____
ROOT
ATOM      1  C   UNL     1       5.527   7.131  17.121  0.00  0.00    +0.000 C 
ATOM      2  N   UNL     1       6.942   6.825  16.862  0.00  0.00    +0.000 NA
ENDROOT
BRANCH   2   3
ATOM      3  C   UNL     1       7.733   7.267  18.023  0.00  0.00    +0.000 C 
BRANCH   3   4
ATOM      4  C   UNL     1       8.115   8.717  17.962  0.00  0.00    +0.000 C 
ATOM      5  C   UNL     1       8.944   9.296  18.845  0.00  0.00    +0.000 C 
BRANCH   5   6
ATOM      6  C   UNL     1       9.289  10.713  18.761  0.00  0.00    +0.000 A 
ATOM      7  C   UNL     1      10.199  11.262  19.670  0.00  0.00    +0.000 A 
ATOM      8  C   UNL     1      10.529  12.615  19.598  0.00  0.00    +0.000 A 
ATOM      9  C   UNL     1       9.953  13.424  18.619  0.00  0.00    +0.000 A 
ATOM     10  C   UNL     1       9.046  12.881  17.711  0.00  0.00    +0.000 A 
ATOM     11  C   UNL     1       8.711  11.527  17.782  0.00  0.00    +0.000 A 
ENDBRANCH   5   6
ENDBRANCH   3   4
ENDBRANCH   2   3
BRANCH   2  12
ATOM     12  C   UNL     1       7.129   5.379  16.613  0.00  0.00    +0.000 C 
BRANCH  12  13
ATOM     13  C   UNL     1       5.917   4.577  16.949  0.00  0.00    +0.000 A 
ATOM     14  C   UNL     1       4.838   4.136  16.214  0.00  0.00    +0.000 A 
ATOM     15  C   UNL     1       3.993   3.459  17.125  0.00  0.00    +0.000 A 
ATOM     16  C   UNL     1       4.584   3.552  18.375  0.00  0.00    +0.000 A 
ATOM     17  O   UNL     1       5.787   4.190  18.248  0.00  0.00    +0.000 OA
BRANCH  16  18
ATOM     18  C   UNL     1       4.127   3.021  19.651  0.00  0.00    +0.000 C 
ATOM     19  O   UNL     1       4.794   2.150  20.218  0.00  0.00    +0.000 OA
ATOM     20  N   UNL     1       2.925   3.466  20.227  0.00  0.00    +0.000 N 
ATOM     21  C   UNL     1       1.915   4.301  19.594  0.00  0.00    +0.000 C 
ATOM     22  C   UNL     1       2.535   2.914  21.516  0.00  0.00    +0.000 C 
ENDBRANCH  16  18
ENDBRANCH  12  13
ENDBRANCH   2  12
TORSDOF 6
ENDMDL
MODEL 3
REMARK VINA RESULT:      -7.0      5.121      7.384
REMARK  Name = 
REMARK  9 active torsions:
REMARK  status: ('A' for Active; 'I' for Inactive)
REMARK    1  A    between atoms: C_1  and  N_2
REMARK    2  A    between atoms: N_2  and  C_3
REMARK    3  A    between atoms: N_2  and  C_12
REMARK    4  A    between atoms: C_3  and  C_4
REMARK    5  A    between atoms: C_5  and  C_6
REMARK    6  A    between atoms: C_12  and  C_13
REMARK    7  A    between atoms: C_16  and  C_17
REMARK    8  A    between atoms: N_19  and  C_20
REMARK    9  A    between atoms: N_19  and  C_21
REMARK                            x       y       z     vdW  Elec       q    Type
REMARK                         _______ _______ _______ _____ _____    ______ ____
ROOT
ATOM      1  C   UNL     1       3.458   1.679  18.419  0.00  0.00    +0.000 C 
ATOM      2  N   UNL     1       3.404   3.145  18.319  0.00  0.00    +0.000 NA
ENDROOT
BRANCH   2   3
ATOM      3  C   UNL     1       2.485   3.648  19.354  0.00  0.00    +0.000 C 
BRANCH   3   4
ATOM      4  C   UNL     1       2.104   5.086  19.160  0.00  0.00    +0.000 C 
ATOM      5  C   UNL     1       2.208   6.012  20.127  0.00  0.00    +0.000 C 
BRANCH   5   6
ATOM      6  C   UNL     1       1.820   7.402  19.906  0.00  0.00    +0.000 A 
ATOM      7  C   UNL     1       1.179   8.116  20.923  0.00  0.00    +0.000 A 
ATOM      8  C   UNL     1       0.802   9.443  20.717  0.00  0.00    +0.000 A 
ATOM      9  C   UNL     1       1.066  10.062  19.495  0.00  0.00    +0.000 A 
ATOM     10  C   UNL     1       1.705   9.354  18.478  0.00  0.00    +0.000 A 
ATOM     11  C   UNL     1       2.081   8.025  18.681  0.00  0.00    +0.000 A 
ENDBRANCH   5   6
ENDBRANCH   3   4
ENDBRANCH   2   3
BRANCH   2  12
ATOM     12  C   UNL     1       4.752   3.732  18.478  0.00  0.00    +0.000 C 
BRANCH  12  13
ATOM     13  C   UNL     1       5.112   4.653  17.360  0.00  0.00    +0.000 A 
ATOM     14  C   UNL     1       4.773   5.954  17.056  0.00  0.00    +0.000 A 
ATOM     15  C   UNL     1       5.406   6.247  15.825  0.00  0.00    +0.000 A 
ATOM     16  C   UNL     1       6.068   5.098  15.424  0.00  0.00    +0.000 A 
ATOM     17  O   UNL     1       5.929   4.146  16.396  0.00  0.00    +0.000 OA
BRANCH  16  18
ATOM     18  C   UNL     1       6.875   4.868  14.234  0.00  0.00    +0.000 C 
ATOM     19  O   UNL     1       7.995   5.380  14.153  0.00  0.00    +0.000 OA
ATOM     20  N   UNL     1       6.381   4.098  13.168  0.00  0.00    +0.000 N 
ATOM     21  C   UNL     1       5.016   3.622  12.999  0.00  0.00    +0.000 C 
ATOM     22  C   UNL     1       7.245   3.884  12.016  0.00  0.00    +0.000 C 
ENDBRANCH  16  18
ENDBRANCH  12  13
ENDBRANCH   2  12
TORSDOF 6
ENDMDL
MODEL 4
REMARK VINA RESULT:      -6.8      3.547      6.006
REMARK  Name = 
REMARK  9 active torsions:
REMARK  status: ('A' for Active; 'I' for Inactive)
REMARK    1  A    between atoms: C_1  and  N_2
REMARK    2  A    between atoms: N_2  and  C_3
REMARK    3  A    between atoms: N_2  and  C_12
REMARK    4  A    between atoms: C_3  and  C_4
REMARK    5  A    between atoms: C_5  and  C_6
REMARK    6  A    between atoms: C_12  and  C_13
REMARK    7  A    between atoms: C_16  and  C_17
REMARK    8  A    between atoms: N_19  and  C_20
REMARK    9  A    between atoms: N_19  and  C_21
REMARK                            x       y       z     vdW  Elec       q    Type
REMARK                         _______ _______ _______ _____ _____    ______ ____
ROOT
ATOM      1  C   UNL     1       7.098   7.368  17.392  0.00  0.00    +0.000 C 
ATOM      2  N   UNL     1       5.980   6.451  17.661  0.00  0.00    +0.000 NA
ENDROOT
BRANCH   2   3
ATOM      3  C   UNL     1       4.770   6.993  17.022  0.00  0.00    +0.000 C 
BRANCH   3   4
ATOM      4  C   UNL     1       3.740   7.463  18.007  0.00  0.00    +0.000 C 
ATOM      5  C   UNL     1       2.730   8.286  17.679  0.00  0.00    +0.000 C 
BRANCH   5   6
ATOM      6  C   UNL     1       1.749   8.730  18.666  0.00  0.00    +0.000 A 
ATOM      7  C   UNL     1       0.784   9.676  18.309  0.00  0.00    +0.000 A 
ATOM      8  C   UNL     1      -0.154  10.109  19.247  0.00  0.00    +0.000 A 
ATOM      9  C   UNL     1      -0.130   9.596  20.544  0.00  0.00    +0.000 A 
ATOM     10  C   UNL     1       0.831   8.653  20.904  0.00  0.00    +0.000 A 
ATOM     11  C   UNL     1       1.771   8.221  19.968  0.00  0.00    +0.000 A 
ENDBRANCH   5   6
ENDBRANCH   3   4
ENDBRANCH   2   3
BRANCH   2  12
ATOM     12  C   UNL     1       6.282   5.093  17.158  0.00  0.00    +0.000 C 
BRANCH  12  13
ATOM     13  C   UNL     1       5.233   4.099  17.527  0.00  0.00    +0.000 A 
ATOM     14  C   UNL     1       4.422   3.259  16.795  0.00  0.00    +0.000 A 
ATOM     15  C   UNL     1       3.598   2.592  17.733  0.00  0.00    +0.000 A 
ATOM     16  C   UNL     1       3.925   3.086  18.986  0.00  0.00    +0.000 A 
ATOM     17  O   UNL     1       4.964   3.966  18.856  0.00  0.00    +0.000 OA
BRANCH  16  18
ATOM     18  C   UNL     1       3.378   2.730  20.287  0.00  0.00    +0.000 C 
ATOM     19  O   UNL     1       4.082   2.113  21.092  0.00  0.00    +0.000 OA
ATOM     20  N   UNL     1       2.053   3.056  20.624  0.00  0.00    +0.000 N 
ATOM     21  C   UNL     1       1.029   3.566  19.725  0.00  0.00    +0.000 C 
ATOM     22  C   UNL     1       1.573   2.695  21.949  0.00  0.00    +0.000 C 
ENDBRANCH  16  18
ENDBRANCH  12  13
ENDBRANCH   2  12
TORSDOF 6
ENDMDL
MODEL 5
REMARK VINA RESULT:      -6.8      1.886      2.543
REMARK  Name = 
REMARK  9 active torsions:
REMARK  status: ('A' for Active; 'I' for Inactive)
REMARK    1  A    between atoms: C_1  and  N_2
REMARK    2  A    between atoms: N_2  and  C_3
REMARK    3  A    between atoms: N_2  and  C_12
REMARK    4  A    between atoms: C_3  and  C_4
REMARK    5  A    between atoms: C_5  and  C_6
REMARK    6  A    between atoms: C_12  and  C_13
REMARK    7  A    between atoms: C_16  and  C_17
REMARK    8  A    between atoms: N_19  and  C_20
REMARK    9  A    between atoms: N_19  and  C_21
REMARK                            x       y       z     vdW  Elec       q    Type
REMARK                         _______ _______ _______ _____ _____    ______ ____
ROOT
ATOM      1  C   UNL     1       6.242   7.265  17.144  0.00  0.00    +0.000 C 
ATOM      2  N   UNL     1       7.577   6.758  17.494  0.00  0.00    +0.000 NA
ENDROOT
BRANCH   2   3
ATOM      3  C   UNL     1       8.124   7.595  18.574  0.00  0.00    +0.000 C 
BRANCH   3   4
ATOM      4  C   UNL     1       8.531   8.964  18.114  0.00  0.00    +0.000 C 
ATOM      5  C   UNL     1       9.227   9.821  18.879  0.00  0.00    +0.000 C 
BRANCH   5   6
ATOM      6  C   UNL     1       9.600  11.150  18.402  0.00  0.00    +0.000 A 
ATOM      7  C   UNL     1      10.948  11.514  18.341  0.00  0.00    +0.000 A 
ATOM      8  C   UNL     1      11.312  12.782  17.891  0.00  0.00    +0.000 A 
ATOM      9  C   UNL     1      10.329  13.692  17.498  0.00  0.00    +0.000 A 
ATOM     10  C   UNL     1       8.984  13.333  17.557  0.00  0.00    +0.000 A 
ATOM     11  C   UNL     1       8.617  12.064  18.010  0.00  0.00    +0.000 A 
ENDBRANCH   5   6
ENDBRANCH   3   4
ENDBRANCH   2   3
BRANCH   2  12
ATOM     12  C   UNL     1       7.508   5.339  17.907  0.00  0.00    +0.000 C 
BRANCH  12  13
ATOM     13  C   UNL     1       6.416   4.593  17.215  0.00  0.00    +0.000 A 
ATOM     14  C   UNL     1       6.238   4.156  15.921  0.00  0.00    +0.000 A 
ATOM     15  C   UNL     1       4.961   3.547  15.884  0.00  0.00    +0.000 A 
ATOM     16  C   UNL     1       4.412   3.674  17.149  0.00  0.00    +0.000 A 
ATOM     17  O   UNL     1       5.331   4.266  17.972  0.00  0.00    +0.000 OA
BRANCH  16  18
ATOM     18  C   UNL     1       3.123   3.215  17.645  0.00  0.00    +0.000 C 
ATOM     19  O   UNL     1       2.096   3.517  17.030  0.00  0.00    +0.000 OA
ATOM     20  N   UNL     1       3.033   2.460  18.826  0.00  0.00    +0.000 N 
ATOM     21  C   UNL     1       4.101   2.216  19.785  0.00  0.00    +0.000 C 
ATOM     22  C   UNL     1       1.718   2.009  19.256  0.00  0.00    +0.000 C 
ENDBRANCH  16  18
ENDBRANCH  12  13
ENDBRANCH   2  12
TORSDOF 6
ENDMDL
MODEL 6
REMARK VINA RESULT:      -6.7      5.653      8.819
REMARK  Name = 
REMARK  9 active torsions:
REMARK  status: ('A' for Active; 'I' for Inactive)
REMARK    1  A    between atoms: C_1  and  N_2
REMARK    2  A    between atoms: N_2  and  C_3
REMARK    3  A    between atoms: N_2  and  C_12
REMARK    4  A    between atoms: C_3  and  C_4
REMARK    5  A    between atoms: C_5  and  C_6
REMARK    6  A    between atoms: C_12  and  C_13
REMARK    7  A    between atoms: C_16  and  C_17
REMARK    8  A    between atoms: N_19  and  C_20
REMARK    9  A    between atoms: N_19  and  C_21
REMARK                            x       y       z     vdW  Elec       q    Type
REMARK                         _______ _______ _______ _____ _____    ______ ____
ROOT
ATOM      1  C   UNL     1      -0.255   9.123  22.488  0.00  0.00    +0.000 C 
ATOM      2  N   UNL     1       0.300   8.815  21.162  0.00  0.00    +0.000 NA
ENDROOT
BRANCH   2   3
ATOM      3  C   UNL     1       0.356  10.061  20.380  0.00  0.00    +0.000 C 
BRANCH   3   4
ATOM      4  C   UNL     1      -0.525  10.037  19.165  0.00  0.00    +0.000 C 
ATOM      5  C   UNL     1      -1.567  10.867  18.996  0.00  0.00    +0.000 C 
BRANCH   5   6
ATOM      6  C   UNL     1      -2.408  10.811  17.803  0.00  0.00    +0.000 A 
ATOM      7  C   UNL     1      -3.612  11.521  17.768  0.00  0.00    +0.000 A 
ATOM      8  C   UNL     1      -4.423  11.469  16.634  0.00  0.00    +0.000 A 
ATOM      9  C   UNL     1      -4.033  10.709  15.532  0.00  0.00    +0.000 A 
ATOM     10  C   UNL     1      -2.834   9.999  15.563  0.00  0.00    +0.000 A 
ATOM     11  C   UNL     1      -2.022  10.047  16.697  0.00  0.00    +0.000 A 
ENDBRANCH   5   6
ENDBRANCH   3   4
ENDBRANCH   2   3
BRANCH   2  12
ATOM     12  C   UNL     1       1.643   8.206  21.284  0.00  0.00    +0.000 C 
BRANCH  12  13
ATOM     13  C   UNL     1       2.007   7.377  20.098  0.00  0.00    +0.000 A 
ATOM     14  C   UNL     1       2.378   7.680  18.807  0.00  0.00    +0.000 A 
ATOM     15  C   UNL     1       2.545   6.440  18.145  0.00  0.00    +0.000 A 
ATOM     16  C   UNL     1       2.232   5.446  19.057  0.00  0.00    +0.000 A 
ATOM     17  O   UNL     1       1.957   6.026  20.265  0.00  0.00    +0.000 OA
BRANCH  16  18
ATOM     18  C   UNL     1       2.247   4.000  18.885  0.00  0.00    +0.000 C 
ATOM     19  O   UNL     1       1.179   3.395  18.754  0.00  0.00    +0.000 OA
ATOM     20  N   UNL     1       3.457   3.287  18.897  0.00  0.00    +0.000 N 
ATOM     21  C   UNL     1       4.767   3.803  19.267  0.00  0.00    +0.000 C 
ATOM     22  C   UNL     1       3.407   1.846  18.696  0.00  0.00    +0.000 C 
ENDBRANCH  16  18
ENDBRANCH  12  13
ENDBRANCH   2  12
TORSDOF 6
ENDMDL
MODEL 7
REMARK VINA RESULT:      -6.7      3.189      7.346
REMARK  Name = 
REMARK  9 active torsions:
REMARK  status: ('A' for Active; 'I' for Inactive)
REMARK    1  A    between atoms: C_1  and  N_2
REMARK    2  A    between atoms: N_2  and  C_3
REMARK    3  A    between atoms: N_2  and  C_12
REMARK    4  A    between atoms: C_3  and  C_4
REMARK    5  A    between atoms: C_5  and  C_6
REMARK    6  A    between atoms: C_12  and  C_13
REMARK    7  A    between atoms: C_16  and  C_17
REMARK    8  A    between atoms: N_19  and  C_20
REMARK    9  A    between atoms: N_19  and  C_21
REMARK                            x       y       z     vdW  Elec       q    Type
REMARK                         _______ _______ _______ _____ _____    ______ ____
ROOT
ATOM      1  C   UNL     1       2.288   2.606  20.097  0.00  0.00    +0.000 C 
ATOM      2  N   UNL     1       1.595   3.878  19.844  0.00  0.00    +0.000 NA
ENDROOT
BRANCH   2   3
ATOM      3  C   UNL     1       2.325   4.952  20.538  0.00  0.00    +0.000 C 
BRANCH   3   4
ATOM      4  C   UNL     1       1.504   6.191  20.741  0.00  0.00    +0.000 C 
ATOM      5  C   UNL     1       1.971   7.429  20.508  0.00  0.00    +0.000 C 
BRANCH   5   6
ATOM      6  C   UNL     1       1.146   8.615  20.724  0.00  0.00    +0.000 A 
ATOM      7  C   UNL     1       0.740   8.954  22.018  0.00  0.00    +0.000 A 
ATOM      8  C   UNL     1      -0.051  10.083  22.231  0.00  0.00    +0.000 A 
ATOM      9  C   UNL     1      -0.438  10.877  21.152  0.00  0.00    +0.000 A 
ATOM     10  C   UNL     1      -0.035  10.543  19.859  0.00  0.00    +0.000 A 
ATOM     11  C   UNL     1       0.754   9.412  19.644  0.00  0.00    +0.000 A 
ENDBRANCH   5   6
ENDBRANCH   3   4
ENDBRANCH   2   3
BRANCH   2  12
ATOM     12  C   UNL     1       1.508   4.149  18.393  0.00  0.00    +0.000 C 
BRANCH  12  13
ATOM     13  C   UNL     1       2.845   4.150  17.729  0.00  0.00    +0.000 A 
ATOM     14  C   UNL     1       3.636   3.160  17.188  0.00  0.00    +0.000 A 
ATOM     15  C   UNL     1       4.821   3.800  16.751  0.00  0.00    +0.000 A 
ATOM     16  C   UNL     1       4.705   5.141  17.080  0.00  0.00    +0.000 A 
ATOM     17  O   UNL     1       3.471   5.356  17.628  0.00  0.00    +0.000 OA
BRANCH  16  18
ATOM     18  C   UNL     1       5.643   6.230  16.847  0.00  0.00    +0.000 C 
ATOM     19  O   UNL     1       5.538   6.910  15.822  0.00  0.00    +0.000 OA
ATOM     20  N   UNL     1       6.679   6.495  17.758  0.00  0.00    +0.000 N 
ATOM     21  C   UNL     1       7.083   5.661  18.881  0.00  0.00    +0.000 C 
ATOM     22  C   UNL     1       7.568   7.613  17.482  0.00  0.00    +0.000 C 
ENDBRANCH  16  18
ENDBRANCH  12  13
ENDBRANCH   2  12
TORSDOF 6
ENDMDL
MODEL 8
REMARK VINA RESULT:      -6.7      1.644      2.015
REMARK  Name = 
REMARK  9 active torsions:
REMARK  status: ('A' for Active; 'I' for Inactive)
REMARK    1  A    between atoms: C_1  and  N_2
REMARK    2  A    between atoms: N_2  and  C_3
REMARK    3  A    between atoms: N_2  and  C_12
REMARK    4  A    between atoms: C_3  and  C_4
REMARK    5  A    between atoms: C_5  and  C_6
REMARK    6  A    between atoms: C_12  and  C_13
REMARK    7  A    between atoms: C_16  and  C_17
REMARK    8  A    between atoms: N_19  and  C_20
REMARK    9  A    between atoms: N_19  and  C_21
REMARK                            x       y       z     vdW  Elec       q    Type
REMARK                         _______ _______ _______ _____ _____    ______ ____
ROOT
ATOM      1  C   UNL     1       8.013   6.333  18.973  0.00  0.00    +0.000 C 
ATOM      2  N   UNL     1       7.126   6.736  17.872  0.00  0.00    +0.000 NA
ENDROOT
BRANCH   2   3
ATOM      3  C   UNL     1       7.742   7.876  17.172  0.00  0.00    +0.000 C 
BRANCH   3   4
ATOM      4  C   UNL     1       7.929   9.078  18.049  0.00  0.00    +0.000 C 
ATOM      5  C   UNL     1       9.043   9.829  18.040  0.00  0.00    +0.000 C 
BRANCH   5   6
ATOM      6  C   UNL     1       9.195  10.990  18.914  0.00  0.00    +0.000 A 
ATOM      7  C   UNL     1       9.107  12.279  18.379  0.00  0.00    +0.000 A 
ATOM      8  C   UNL     1       9.255  13.391  19.207  0.00  0.00    +0.000 A 
ATOM      9  C   UNL     1       9.491  13.221  20.571  0.00  0.00    +0.000 A 
ATOM     10  C   UNL     1       9.580  11.937  21.108  0.00  0.00    +0.000 A 
ATOM     11  C   UNL     1       9.434  10.822  20.281  0.00  0.00    +0.000 A 
ENDBRANCH   5   6
ENDBRANCH   3   4
ENDBRANCH   2   3
BRANCH   2  12
ATOM     12  C   UNL     1       6.896   5.607  16.944  0.00  0.00    +0.000 C 
BRANCH  12  13
ATOM     13  C   UNL     1       5.588   4.929  17.180  0.00  0.00    +0.000 A 
ATOM     14  C   UNL     1       4.764   4.156  16.391  0.00  0.00    +0.000 A 
ATOM     15  C   UNL     1       3.634   3.849  17.186  0.00  0.00    +0.000 A 
ATOM     16  C   UNL     1       3.810   4.480  18.406  0.00  0.00    +0.000 A 
ATOM     17  O   UNL     1       5.033   5.093  18.414  0.00  0.00    +0.000 OA
BRANCH  16  18
ATOM     18  C   UNL     1       2.944   4.482  19.576  0.00  0.00    +0.000 C 
ATOM     19  O   UNL     1       2.200   5.446  19.778  0.00  0.00    +0.000 OA
ATOM     20  N   UNL     1       2.967   3.415  20.491  0.00  0.00    +0.000 N 
ATOM     21  C   UNL     1       3.934   2.327  20.531  0.00  0.00    +0.000 C 
ATOM     22  C   UNL     1       2.061   3.464  21.627  0.00  0.00    +0.000 C 
ENDBRANCH  16  18
ENDBRANCH  12  13
ENDBRANCH   2  12
TORSDOF 6
ENDMDL
MODEL 9
REMARK VINA RESULT:      -6.7      2.178      3.037
REMARK  Name = 
REMARK  9 active torsions:
REMARK  status: ('A' for Active; 'I' for Inactive)
REMARK    1  A    between atoms: C_1  and  N_2
REMARK    2  A    between atoms: N_2  and  C_3
REMARK    3  A    between atoms: N_2  and  C_12
REMARK    4  A    between atoms: C_3  and  C_4
REMARK    5  A    between atoms: C_5  and  C_6
REMARK    6  A    between atoms: C_12  and  C_13
REMARK    7  A    between atoms: C_16  and  C_17
REMARK    8  A    between atoms: N_19  and  C_20
REMARK    9  A    between atoms: N_19  and  C_21
REMARK                            x       y       z     vdW  Elec       q    Type
REMARK                         _______ _______ _______ _____ _____    ______ ____
ROOT
ATOM      1  C   UNL     1       7.138   5.698  19.316  0.00  0.00    +0.000 C 
ATOM      2  N   UNL     1       6.508   6.411  18.195  0.00  0.00    +0.000 NA
ENDROOT
BRANCH   2   3
ATOM      3  C   UNL     1       7.570   6.896  17.297  0.00  0.00    +0.000 C 
BRANCH   3   4
ATOM      4  C   UNL     1       7.945   8.328  17.543  0.00  0.00    +0.000 C 
ATOM      5  C   UNL     1       8.618   8.736  18.631  0.00  0.00    +0.000 C 
BRANCH   5   6
ATOM      6  C   UNL     1       8.961  10.140  18.843  0.00  0.00    +0.000 A 
ATOM      7  C   UNL     1       8.635  11.089  17.870  0.00  0.00    +0.000 A 
ATOM      8  C   UNL     1       8.962  12.431  18.064  0.00  0.00    +0.000 A 
ATOM      9  C   UNL     1       9.615  12.829  19.230  0.00  0.00    +0.000 A 
ATOM     10  C   UNL     1       9.942  11.886  20.203  0.00  0.00    +0.000 A 
ATOM     11  C   UNL     1       9.618  10.542  20.011  0.00  0.00    +0.000 A 
ENDBRANCH   5   6
ENDBRANCH   3   4
ENDBRANCH   2   3
BRANCH   2  12
ATOM     12  C   UNL     1       5.567   5.528  17.473  0.00  0.00    +0.000 C 
BRANCH  12  13
ATOM     13  C   UNL     1       4.139   5.872  17.739  0.00  0.00    +0.000 A 
ATOM     14  C   UNL     1       2.978   5.131  17.786  0.00  0.00    +0.000 A 
ATOM     15  C   UNL     1       1.935   6.052  18.041  0.00  0.00    +0.000 A 
ATOM     16  C   UNL     1       2.509   7.311  18.103  0.00  0.00    +0.000 A 
ATOM     17  O   UNL     1       3.865   7.186  17.972  0.00  0.00    +0.000 OA
BRANCH  16  18
ATOM     18  C   UNL     1       1.878   8.601  18.346  0.00  0.00    +0.000 C 
ATOM     19  O   UNL     1       1.848   9.441  17.442  0.00  0.00    +0.000 OA
ATOM     20  N   UNL     1       1.332   8.908  19.604  0.00  0.00    +0.000 N 
ATOM     21  C   UNL     1       1.485   8.138  20.830  0.00  0.00    +0.000 C 
ATOM     22  C   UNL     1       0.694  10.204  19.778  0.00  0.00    +0.000 C 
ENDBRANCH  16  18
ENDBRANCH  12  13
ENDBRANCH   2  12
TORSDOF 6
ENDMDL
