MODEL 1
REMARK VINA RESULT:      -7.2      0.000      0.000
REMARK  Name = 
REMARK  6 active torsions:
REMARK  status: ('A' for Active; 'I' for Inactive)
REMARK    1  A    between atoms: C_1  and  C_2
REMARK    2  A    between atoms: N_4  and  C_5
REMARK    3  A    between atoms: C_6  and  O_7
REMARK    4  A    between atoms: O_7  and  C_8
REMARK    5  A    between atoms: C_15  and  N_16
REMARK    6  A    between atoms: C_17  and  C_19
REMARK                            x       y       z     vdW  Elec       q    Type
REMARK                         _______ _______ _______ _____ _____    ______ ____
ROOT
ATOM      1  C   UNL     1       0.231   3.231  19.723  0.00  0.00    +0.000 C 
ATOM      2  C   UNL     1       1.697   3.088  19.544  0.00  0.00    +0.000 A 
ATOM      3  N   UNL     1       2.197   1.908  19.161  0.00  0.00    +0.000 NA
ATOM      4  N   UNL     1       3.512   2.152  19.015  0.00  0.00    +0.000 N 
ATOM      5  C   UNL     1       4.389   1.079  18.612  0.00  0.00    +0.000 C 
ATOM      6  C   UNL     1       3.893   3.419  19.384  0.00  0.00    +0.000 A 
ATOM      7  C   UNL     1       2.706   4.087  19.653  0.00  0.00    +0.000 A 
ENDROOT
BRANCH   7   8
ATOM      8  N   UNL     1       2.520   5.409  20.032  0.00  0.00    +0.000 N 
ATOM      9  C   UNL     1       2.400   6.463  19.138  0.00  0.00    +0.000 C 
ATOM     10  O   UNL     1       2.308   6.354  17.916  0.00  0.00    +0.000 OA
ATOM     11  H   UNL     1       2.260   5.595  20.992  0.00  0.00    +0.000 HD
BRANCH   9  12
ATOM     12  C   UNL     1       2.217   7.814  19.854  0.00  0.00    +0.000 C 
ATOM     13  C   UNL     1       1.326   7.732  21.086  0.00  0.00    +0.000 C 
ATOM     14  C   UNL     1       0.826   9.149  21.206  0.00  0.00    +0.000 C 
ATOM     15  C   UNL     1       0.648   9.537  19.757  0.00  0.00    +0.000 C 
ATOM     16  O   UNL     1       1.661   8.841  19.012  0.00  0.00    +0.000 OA
ENDBRANCH   9  12
ENDBRANCH   7   8
BRANCH   6  17
ATOM     17  O   UNL     1       5.198   3.710  19.448  0.00  0.00    +0.000 OA
BRANCH  17  18
ATOM     18  C   UNL     1       5.793   4.594  18.581  0.00  0.00    +0.000 A 
ATOM     19  C   UNL     1       5.434   4.726  17.235  0.00  0.00    +0.000 A 
ATOM     20  C   UNL     1       6.145   5.595  16.403  0.00  0.00    +0.000 A 
ATOM     21  C   UNL     1       7.180   6.367  16.927  0.00  0.00    +0.000 A 
ATOM     22  C   UNL     1       7.480   6.277  18.283  0.00  0.00    +0.000 A 
ATOM     23  F   UNL     1       8.457   7.042  18.788  0.00  0.00    +0.000 F 
ATOM     24  C   UNL     1       6.792   5.405  19.117  0.00  0.00    +0.000 A 
ENDBRANCH  17  18
ENDBRANCH   6  17
TORSDOF 4
ENDMDL
MODEL 2
REMARK VINA RESULT:      -7.0      1.015      1.426
REMARK  Name = 
REMARK  6 active torsions:
REMARK  status: ('A' for Active; 'I' for Inactive)
REMARK    1  A    between atoms: C_1  and  C_2
REMARK    2  A    between atoms: N_4  and  C_5
REMARK    3  A    between atoms: C_6  and  O_7
REMARK    4  A    between atoms: O_7  and  C_8
REMARK    5  A    between atoms: C_15  and  N_16
REMARK    6  A    between atoms: C_17  and  C_19
REMARK                            x       y       z     vdW  Elec       q    Type
REMARK                         _______ _______ _______ _____ _____    ______ ____
ROOT
ATOM      1  C   UNL     1       0.317   3.228  19.714  0.00  0.00    +0.000 C 
ATOM      2  C   UNL     1       1.783   3.075  19.537  0.00  0.00    +0.000 A 
ATOM      3  N   UNL     1       2.276   1.890  19.164  0.00  0.00    +0.000 NA
ATOM      4  N   UNL     1       3.592   2.124  19.018  0.00  0.00    +0.000 N 
ATOM      5  C   UNL     1       4.464   1.044  18.624  0.00  0.00    +0.000 C 
ATOM      6  C   UNL     1       3.981   3.391  19.380  0.00  0.00    +0.000 A 
ATOM      7  C   UNL     1       2.797   4.068  19.642  0.00  0.00    +0.000 A 
ENDROOT
BRANCH   7   8
ATOM      8  N   UNL     1       2.619   5.394  20.012  0.00  0.00    +0.000 N 
ATOM      9  C   UNL     1       2.402   6.428  19.113  0.00  0.00    +0.000 C 
ATOM     10  O   UNL     1       2.207   6.294  17.906  0.00  0.00    +0.000 OA
ATOM     11  H   UNL     1       2.439   5.594  20.988  0.00  0.00    +0.000 HD
BRANCH   9  12
ATOM     12  C   UNL     1       2.255   7.790  19.819  0.00  0.00    +0.000 C 
ATOM     13  C   UNL     1       1.293   7.760  20.999  0.00  0.00    +0.000 C 
ATOM     14  C   UNL     1       0.867   9.203  21.092  0.00  0.00    +0.000 C 
ATOM     15  C   UNL     1       0.791   9.596  19.635  0.00  0.00    +0.000 C 
ATOM     16  O   UNL     1       1.804   8.843  18.948  0.00  0.00    +0.000 OA
ENDBRANCH   9  12
ENDBRANCH   7   8
BRANCH   6  17
ATOM     17  O   UNL     1       5.287   3.675  19.444  0.00  0.00    +0.000 OA
BRANCH  17  18
ATOM     18  C   UNL     1       5.866   4.639  18.655  0.00  0.00    +0.000 A 
ATOM     19  C   UNL     1       6.930   5.448  19.069  0.00  0.00    +0.000 A 
ATOM     20  C   UNL     1       7.408   6.459  18.231  0.00  0.00    +0.000 A 
ATOM     21  C   UNL     1       6.856   6.628  16.963  0.00  0.00    +0.000 A 
ATOM     22  C   UNL     1       5.845   5.771  16.538  0.00  0.00    +0.000 A 
ATOM     23  F   UNL     1       5.338   5.919  15.307  0.00  0.00    +0.000 F 
ATOM     24  C   UNL     1       5.351   4.774  17.367  0.00  0.00    +0.000 A 
ENDBRANCH  17  18
ENDBRANCH   6  17
TORSDOF 4
ENDMDL
MODEL 3
REMARK VINA RESULT:      -7.0      1.132      1.277
REMARK  Name = 
REMARK  6 active torsions:
REMARK  status: ('A' for Active; 'I' for Inactive)
REMARK    1  A    between atoms: C_1  and  C_2
REMARK    2  A    between atoms: N_4  and  C_5
REMARK    3  A    between atoms: C_6  and  O_7
REMARK    4  A    between atoms: O_7  and  C_8
REMARK    5  A    between atoms: C_15  and  N_16
REMARK    6  A    between atoms: C_17  and  C_19
REMARK                            x       y       z     vdW  Elec       q    Type
REMARK                         _______ _______ _______ _____ _____    ______ ____
ROOT
ATOM      1  C   UNL     1       1.972   3.315  21.786  0.00  0.00    +0.000 C 
ATOM      2  C   UNL     1       2.692   3.405  20.491  0.00  0.00    +0.000 A 
ATOM      3  N   UNL     1       3.073   2.282  19.875  0.00  0.00    +0.000 NA
ATOM      4  N   UNL     1       3.604   2.718  18.718  0.00  0.00    +0.000 N 
ATOM      5  C   UNL     1       4.142   1.761  17.782  0.00  0.00    +0.000 C 
ATOM      6  C   UNL     1       3.670   4.086  18.610  0.00  0.00    +0.000 A 
ATOM      7  C   UNL     1       2.996   4.566  19.725  0.00  0.00    +0.000 A 
ENDROOT
BRANCH   7   8
ATOM      8  N   UNL     1       2.738   5.883  20.083  0.00  0.00    +0.000 N 
ATOM      9  C   UNL     1       2.265   6.847  19.205  0.00  0.00    +0.000 C 
ATOM     10  O   UNL     1       1.890   6.639  18.052  0.00  0.00    +0.000 OA
ATOM     11  H   UNL     1       2.700   6.107  21.069  0.00  0.00    +0.000 HD
BRANCH   9  12
ATOM     12  C   UNL     1       2.089   8.217  19.887  0.00  0.00    +0.000 C 
ATOM     13  C   UNL     1       1.215   8.166  21.132  0.00  0.00    +0.000 C 
ATOM     14  C   UNL     1       0.713   9.585  21.222  0.00  0.00    +0.000 C 
ATOM     15  C   UNL     1       0.514   9.933  19.765  0.00  0.00    +0.000 C 
ATOM     16  O   UNL     1       1.518   9.219  19.026  0.00  0.00    +0.000 OA
ENDBRANCH   9  12
ENDBRANCH   7   8
BRANCH   6  17
ATOM     17  O   UNL     1       4.341   4.623  17.584  0.00  0.00    +0.000 OA
BRANCH  17  18
ATOM     18  C   UNL     1       5.427   5.443  17.770  0.00  0.00    +0.000 A 
ATOM     19  C   UNL     1       5.590   6.676  17.130  0.00  0.00    +0.000 A 
ATOM     20  C   UNL     1       6.764   7.412  17.315  0.00  0.00    +0.000 A 
ATOM     21  C   UNL     1       7.752   6.938  18.176  0.00  0.00    +0.000 A 
ATOM     22  C   UNL     1       7.546   5.742  18.860  0.00  0.00    +0.000 A 
ATOM     23  F   UNL     1       8.486   5.306  19.708  0.00  0.00    +0.000 F 
ATOM     24  C   UNL     1       6.392   4.995  18.672  0.00  0.00    +0.000 A 
ENDBRANCH  17  18
ENDBRANCH   6  17
TORSDOF 4
ENDMDL
MODEL 4
REMARK VINA RESULT:      -7.0      2.841      6.063
REMARK  Name = 
REMARK  6 active torsions:
REMARK  status: ('A' for Active; 'I' for Inactive)
REMARK    1  A    between atoms: C_1  and  C_2
REMARK    2  A    between atoms: N_4  and  C_5
REMARK    3  A    between atoms: C_6  and  O_7
REMARK    4  A    between atoms: O_7  and  C_8
REMARK    5  A    between atoms: C_15  and  N_16
REMARK    6  A    between atoms: C_17  and  C_19
REMARK                            x       y       z     vdW  Elec       q    Type
REMARK                         _______ _______ _______ _____ _____    ______ ____
ROOT
ATOM      1  C   UNL     1       2.180   9.720  17.479  0.00  0.00    +0.000 C 
ATOM      2  C   UNL     1       2.166   8.639  18.495  0.00  0.00    +0.000 A 
ATOM      3  N   UNL     1       1.538   8.843  19.657  0.00  0.00    +0.000 NA
ATOM      4  N   UNL     1       1.645   7.659  20.288  0.00  0.00    +0.000 N 
ATOM      5  C   UNL     1       1.079   7.507  21.607  0.00  0.00    +0.000 C 
ATOM      6  C   UNL     1       2.404   6.731  19.618  0.00  0.00    +0.000 A 
ATOM      7  C   UNL     1       2.687   7.319  18.392  0.00  0.00    +0.000 A 
ENDROOT
BRANCH   7   8
ATOM      8  N   UNL     1       3.395   6.792  17.320  0.00  0.00    +0.000 N 
ATOM      9  C   UNL     1       4.725   6.403  17.384  0.00  0.00    +0.000 C 
ATOM     10  O   UNL     1       5.403   6.346  18.409  0.00  0.00    +0.000 OA
ATOM     11  H   UNL     1       2.871   6.490  16.508  0.00  0.00    +0.000 HD
BRANCH   9  12
ATOM     12  C   UNL     1       5.241   5.871  16.034  0.00  0.00    +0.000 C 
ATOM     13  C   UNL     1       4.964   4.389  15.821  0.00  0.00    +0.000 C 
ATOM     14  C   UNL     1       6.034   4.009  14.829  0.00  0.00    +0.000 C 
ATOM     15  C   UNL     1       7.202   4.842  15.304  0.00  0.00    +0.000 C 
ATOM     16  O   UNL     1       6.655   6.055  15.845  0.00  0.00    +0.000 OA
ENDBRANCH   9  12
ENDBRANCH   7   8
BRANCH   6  17
ATOM     17  O   UNL     1       2.723   5.587  20.234  0.00  0.00    +0.000 OA
BRANCH  17  18
ATOM     18  C   UNL     1       2.289   4.366  19.779  0.00  0.00    +0.000 A 
ATOM     19  C   UNL     1       0.983   3.893  19.944  0.00  0.00    +0.000 A 
ATOM     20  C   UNL     1       0.645   2.604  19.520  0.00  0.00    +0.000 A 
ATOM     21  C   UNL     1       1.599   1.810  18.889  0.00  0.00    +0.000 A 
ATOM     22  C   UNL     1       2.876   2.319  18.669  0.00  0.00    +0.000 A 
ATOM     23  F   UNL     1       3.782   1.562  18.036  0.00  0.00    +0.000 F 
ATOM     24  C   UNL     1       3.228   3.591  19.100  0.00  0.00    +0.000 A 
ENDBRANCH  17  18
ENDBRANCH   6  17
TORSDOF 4
ENDMDL
MODEL 5
REMARK VINA RESULT:      -6.9      2.544      5.149
REMARK  Name = 
REMARK  6 active torsions:
REMARK  status: ('A' for Active; 'I' for Inactive)
REMARK    1  A    between atoms: C_1  and  C_2
REMARK    2  A    between atoms: N_4  and  C_5
REMARK    3  A    between atoms: C_6  and  O_7
REMARK    4  A    between atoms: O_7  and  C_8
REMARK    5  A    between atoms: C_15  and  N_16
REMARK    6  A    between atoms: C_17  and  C_19
REMARK                            x       y       z     vdW  Elec       q    Type
REMARK                         _______ _______ _______ _____ _____    ______ ____
ROOT
ATOM      1  C   UNL     1       4.162   2.096  17.516  0.00  0.00    +0.000 C 
ATOM      2  C   UNL     1       3.448   3.034  18.418  0.00  0.00    +0.000 A 
ATOM      3  N   UNL     1       2.244   2.698  18.890  0.00  0.00    +0.000 NA
ATOM      4  N   UNL     1       1.935   3.709  19.721  0.00  0.00    +0.000 N 
ATOM      5  C   UNL     1       0.671   3.691  20.418  0.00  0.00    +0.000 C 
ATOM      6  C   UNL     1       2.851   4.732  19.728  0.00  0.00    +0.000 A 
ATOM      7  C   UNL     1       3.904   4.275  18.945  0.00  0.00    +0.000 A 
ENDROOT
BRANCH   7   8
ATOM      8  N   UNL     1       5.106   4.905  18.653  0.00  0.00    +0.000 N 
ATOM      9  C   UNL     1       5.428   5.422  17.406  0.00  0.00    +0.000 C 
ATOM     10  O   UNL     1       4.658   5.512  16.451  0.00  0.00    +0.000 OA
ATOM     11  H   UNL     1       5.697   5.181  19.426  0.00  0.00    +0.000 HD
BRANCH   9  12
ATOM     12  C   UNL     1       6.835   6.048  17.382  0.00  0.00    +0.000 C 
ATOM     13  C   UNL     1       7.443   6.224  18.767  0.00  0.00    +0.000 C 
ATOM     14  C   UNL     1       8.430   7.339  18.537  0.00  0.00    +0.000 C 
ATOM     15  C   UNL     1       7.683   8.214  17.556  0.00  0.00    +0.000 C 
ATOM     16  O   UNL     1       6.880   7.339  16.748  0.00  0.00    +0.000 OA
ENDBRANCH   9  12
ENDBRANCH   7   8
BRANCH   6  17
ATOM     17  O   UNL     1       2.556   5.863  20.380  0.00  0.00    +0.000 OA
BRANCH  17  18
ATOM     18  C   UNL     1       2.177   7.008  19.723  0.00  0.00    +0.000 A 
ATOM     19  C   UNL     1       2.395   7.232  18.359  0.00  0.00    +0.000 A 
ATOM     20  C   UNL     1       2.048   8.459  17.786  0.00  0.00    +0.000 A 
ATOM     21  C   UNL     1       1.440   9.441  18.565  0.00  0.00    +0.000 A 
ATOM     22  C   UNL     1       1.166   9.179  19.905  0.00  0.00    +0.000 A 
ATOM     23  F   UNL     1       0.555  10.115  20.642  0.00  0.00    +0.000 F 
ATOM     24  C   UNL     1       1.520   7.970  20.489  0.00  0.00    +0.000 A 
ENDBRANCH  17  18
ENDBRANCH   6  17
TORSDOF 4
ENDMDL
MODEL 6
REMARK VINA RESULT:      -6.9      1.277      1.594
REMARK  Name = 
REMARK  6 active torsions:
REMARK  status: ('A' for Active; 'I' for Inactive)
REMARK    1  A    between atoms: C_1  and  C_2
REMARK    2  A    between atoms: N_4  and  C_5
REMARK    3  A    between atoms: C_6  and  O_7
REMARK    4  A    between atoms: O_7  and  C_8
REMARK    5  A    between atoms: C_15  and  N_16
REMARK    6  A    between atoms: C_17  and  C_19
REMARK                            x       y       z     vdW  Elec       q    Type
REMARK                         _______ _______ _______ _____ _____    ______ ____
ROOT
ATOM      1  C   UNL     1       1.580   3.338  21.448  0.00  0.00    +0.000 C 
ATOM      2  C   UNL     1       2.420   3.599  20.253  0.00  0.00    +0.000 A 
ATOM      3  N   UNL     1       2.882   2.567  19.540  0.00  0.00    +0.000 NA
ATOM      4  N   UNL     1       3.514   3.151  18.507  0.00  0.00    +0.000 N 
ATOM      5  C   UNL     1       4.160   2.326  17.514  0.00  0.00    +0.000 C 
ATOM      6  C   UNL     1       3.562   4.522  18.579  0.00  0.00    +0.000 A 
ATOM      7  C   UNL     1       2.772   4.851  19.673  0.00  0.00    +0.000 A 
ENDROOT
BRANCH   7   8
ATOM      8  N   UNL     1       2.453   6.108  20.167  0.00  0.00    +0.000 N 
ATOM      9  C   UNL     1       2.185   7.210  19.369  0.00  0.00    +0.000 C 
ATOM     10  O   UNL     1       2.063   7.191  18.145  0.00  0.00    +0.000 OA
ATOM     11  H   UNL     1       2.207   6.185  21.146  0.00  0.00    +0.000 HD
BRANCH   9  12
ATOM     12  C   UNL     1       1.877   8.470  20.201  0.00  0.00    +0.000 C 
ATOM     13  C   UNL     1       1.067   8.182  21.458  0.00  0.00    +0.000 C 
ATOM     14  C   UNL     1       0.407   9.513  21.716  0.00  0.00    +0.000 C 
ATOM     15  C   UNL     1       0.108   9.985  20.312  0.00  0.00    +0.000 C 
ATOM     16  O   UNL     1       1.158   9.480  19.471  0.00  0.00    +0.000 OA
ENDBRANCH   9  12
ENDBRANCH   7   8
BRANCH   6  17
ATOM     17  O   UNL     1       4.317   5.192  17.701  0.00  0.00    +0.000 OA
BRANCH  17  18
ATOM     18  C   UNL     1       5.567   5.663  18.021  0.00  0.00    +0.000 A 
ATOM     19  C   UNL     1       6.401   5.071  18.976  0.00  0.00    +0.000 A 
ATOM     20  C   UNL     1       7.626   5.661  19.299  0.00  0.00    +0.000 A 
ATOM     21  C   UNL     1       8.038   6.813  18.632  0.00  0.00    +0.000 A 
ATOM     22  C   UNL     1       7.229   7.352  17.635  0.00  0.00    +0.000 A 
ATOM     23  F   UNL     1       7.643   8.443  16.977  0.00  0.00    +0.000 F 
ATOM     24  C   UNL     1       6.003   6.785  17.317  0.00  0.00    +0.000 A 
ENDBRANCH  17  18
ENDBRANCH   6  17
TORSDOF 4
ENDMDL
MODEL 7
REMARK VINA RESULT:      -6.8      3.135      6.090
REMARK  Name = 
REMARK  6 active torsions:
REMARK  status: ('A' for Active; 'I' for Inactive)
REMARK    1  A    between atoms: C_1  and  C_2
REMARK    2  A    between atoms: N_4  and  C_5
REMARK    3  A    between atoms: C_6  and  O_7
REMARK    4  A    between atoms: O_7  and  C_8
REMARK    5  A    between atoms: C_15  and  N_16
REMARK    6  A    between atoms: C_17  and  C_19
REMARK                            x       y       z     vdW  Elec       q    Type
REMARK                         _______ _______ _______ _____ _____    ______ ____
ROOT
ATOM      1  C   UNL     1       2.183   9.519  17.377  0.00  0.00    +0.000 C 
ATOM      2  C   UNL     1       2.142   8.525  18.478  0.00  0.00    +0.000 A 
ATOM      3  N   UNL     1       1.547   8.849  19.630  0.00  0.00    +0.000 NA
ATOM      4  N   UNL     1       1.614   7.716  20.353  0.00  0.00    +0.000 N 
ATOM      5  C   UNL     1       1.067   7.696  21.689  0.00  0.00    +0.000 C 
ATOM      6  C   UNL     1       2.318   6.704  19.748  0.00  0.00    +0.000 A 
ATOM      7  C   UNL     1       2.603   7.177  18.474  0.00  0.00    +0.000 A 
ENDROOT
BRANCH   7   8
ATOM      8  N   UNL     1       3.265   6.535  17.437  0.00  0.00    +0.000 N 
ATOM      9  C   UNL     1       4.641   6.563  17.260  0.00  0.00    +0.000 C 
ATOM     10  O   UNL     1       5.453   7.036  18.054  0.00  0.00    +0.000 OA
ATOM     11  H   UNL     1       2.751   5.850  16.898  0.00  0.00    +0.000 HD
BRANCH   9  12
ATOM     12  C   UNL     1       5.083   5.771  16.015  0.00  0.00    +0.000 C 
ATOM     13  C   UNL     1       4.989   4.262  16.192  0.00  0.00    +0.000 C 
ATOM     14  C   UNL     1       5.993   3.765  15.183  0.00  0.00    +0.000 C 
ATOM     15  C   UNL     1       7.080   4.808  15.292  0.00  0.00    +0.000 C 
ATOM     16  O   UNL     1       6.433   6.053  15.602  0.00  0.00    +0.000 OA
ENDBRANCH   9  12
ENDBRANCH   7   8
BRANCH   6  17
ATOM     17  O   UNL     1       2.598   5.600  20.450  0.00  0.00    +0.000 OA
BRANCH  17  18
ATOM     18  C   UNL     1       2.621   4.353  19.874  0.00  0.00    +0.000 A 
ATOM     19  C   UNL     1       3.793   3.621  19.650  0.00  0.00    +0.000 A 
ATOM     20  C   UNL     1       3.735   2.392  18.986  0.00  0.00    +0.000 A 
ATOM     21  C   UNL     1       2.504   1.876  18.589  0.00  0.00    +0.000 A 
ATOM     22  C   UNL     1       1.340   2.583  18.879  0.00  0.00    +0.000 A 
ATOM     23  F   UNL     1       0.156   2.067  18.522  0.00  0.00    +0.000 F 
ATOM     24  C   UNL     1       1.385   3.811  19.524  0.00  0.00    +0.000 A 
ENDBRANCH  17  18
ENDBRANCH   6  17
TORSDOF 4
ENDMDL
MODEL 8
REMARK VINA RESULT:      -6.8      2.795      5.827
REMARK  Name = 
REMARK  6 active torsions:
REMARK  status: ('A' for Active; 'I' for Inactive)
REMARK    1  A    between atoms: C_1  and  C_2
REMARK    2  A    between atoms: N_4  and  C_5
REMARK    3  A    between atoms: C_6  and  O_7
REMARK    4  A    between atoms: O_7  and  C_8
REMARK    5  A    between atoms: C_15  and  N_16
REMARK    6  A    between atoms: C_17  and  C_19
REMARK                            x       y       z     vdW  Elec       q    Type
REMARK                         _______ _______ _______ _____ _____    ______ ____
ROOT
ATOM      1  C   UNL     1       2.581   1.850  17.497  0.00  0.00    +0.000 C 
ATOM      2  C   UNL     1       2.706   3.029  18.390  0.00  0.00    +0.000 A 
ATOM      3  N   UNL     1       2.194   2.972  19.623  0.00  0.00    +0.000 NA
ATOM      4  N   UNL     1       2.553   4.147  20.172  0.00  0.00    +0.000 N 
ATOM      5  C   UNL     1       2.155   4.446  21.526  0.00  0.00    +0.000 C 
ATOM      6  C   UNL     1       3.192   5.000  19.305  0.00  0.00    +0.000 A 
ATOM      7  C   UNL     1       3.385   4.256  18.148  0.00  0.00    +0.000 A 
ENDROOT
BRANCH   7   8
ATOM      8  N   UNL     1       4.019   4.631  16.971  0.00  0.00    +0.000 N 
ATOM      9  C   UNL     1       5.394   4.764  16.838  0.00  0.00    +0.000 C 
ATOM     10  O   UNL     1       6.226   4.443  17.685  0.00  0.00    +0.000 OA
ATOM     11  H   UNL     1       3.478   4.616  16.116  0.00  0.00    +0.000 HD
BRANCH   9  12
ATOM     12  C   UNL     1       5.800   5.206  15.420  0.00  0.00    +0.000 C 
ATOM     13  C   UNL     1       5.555   4.141  14.359  0.00  0.00    +0.000 C 
ATOM     14  C   UNL     1       6.541   4.533  13.288  0.00  0.00    +0.000 C 
ATOM     15  C   UNL     1       7.719   5.000  14.111  0.00  0.00    +0.000 C 
ATOM     16  O   UNL     1       7.184   5.584  15.310  0.00  0.00    +0.000 OA
ENDBRANCH   9  12
ENDBRANCH   7   8
BRANCH   6  17
ATOM     17  O   UNL     1       3.432   6.257  19.693  0.00  0.00    +0.000 OA
BRANCH  17  18
ATOM     18  C   UNL     1       2.636   7.308  19.305  0.00  0.00    +0.000 A 
ATOM     19  C   UNL     1       2.615   7.829  18.007  0.00  0.00    +0.000 A 
ATOM     20  C   UNL     1       1.834   8.951  17.715  0.00  0.00    +0.000 A 
ATOM     21  C   UNL     1       1.038   9.519  18.707  0.00  0.00    +0.000 A 
ATOM     22  C   UNL     1       1.015   8.947  19.977  0.00  0.00    +0.000 A 
ATOM     23  F   UNL     1       0.226   9.479  20.919  0.00  0.00    +0.000 F 
ATOM     24  C   UNL     1       1.799   7.843  20.283  0.00  0.00    +0.000 A 
ENDBRANCH  17  18
ENDBRANCH   6  17
TORSDOF 4
ENDMDL
MODEL 9
REMARK VINA RESULT:      -6.8      2.202      5.139
REMARK  Name = 
REMARK  6 active torsions:
REMARK  status: ('A' for Active; 'I' for Inactive)
REMARK    1  A    between atoms: C_1  and  C_2
REMARK    2  A    between atoms: N_4  and  C_5
REMARK    3  A    between atoms: C_6  and  O_7
REMARK    4  A    between atoms: O_7  and  C_8
REMARK    5  A    between atoms: C_15  and  N_16
REMARK    6  A    between atoms: C_17  and  C_19
REMARK                            x       y       z     vdW  Elec       q    Type
REMARK                         _______ _______ _______ _____ _____    ______ ____
ROOT
ATOM      1  C   UNL     1       5.189   1.721  20.426  0.00  0.00    +0.000 C 
ATOM      2  C   UNL     1       4.079   2.554  19.899  0.00  0.00    +0.000 A 
ATOM      3  N   UNL     1       2.819   2.135  20.052  0.00  0.00    +0.000 NA
ATOM      4  N   UNL     1       2.085   3.145  19.550  0.00  0.00    +0.000 N 
ATOM      5  C   UNL     1       0.646   3.036  19.539  0.00  0.00    +0.000 C 
ATOM      6  C   UNL     1       2.828   4.155  18.990  0.00  0.00    +0.000 A 
ATOM      7  C   UNL     1       4.147   3.835  19.283  0.00  0.00    +0.000 A 
ENDROOT
BRANCH   7   8
ATOM      8  N   UNL     1       5.301   4.545  18.979  0.00  0.00    +0.000 N 
ATOM      9  C   UNL     1       5.910   4.537  17.732  0.00  0.00    +0.000 C 
ATOM     10  O   UNL     1       5.447   4.023  16.715  0.00  0.00    +0.000 OA
ATOM     11  H   UNL     1       5.606   5.257  19.629  0.00  0.00    +0.000 HD
BRANCH   9  12
ATOM     12  C   UNL     1       7.181   5.407  17.701  0.00  0.00    +0.000 C 
ATOM     13  C   UNL     1       7.565   5.968  19.064  0.00  0.00    +0.000 C 
ATOM     14  C   UNL     1       8.369   7.186  18.687  0.00  0.00    +0.000 C 
ATOM     15  C   UNL     1       7.618   7.687  17.474  0.00  0.00    +0.000 C 
ATOM     16  O   UNL     1       7.088   6.530  16.806  0.00  0.00    +0.000 OA
ENDBRANCH   9  12
ENDBRANCH   7   8
BRANCH   6  17
ATOM     17  O   UNL     1       2.200   5.118  18.305  0.00  0.00    +0.000 OA
BRANCH  17  18
ATOM     18  C   UNL     1       2.046   6.389  18.805  0.00  0.00    +0.000 A 
ATOM     19  C   UNL     1       1.794   6.670  20.152  0.00  0.00    +0.000 A 
ATOM     20  C   UNL     1       1.572   7.987  20.563  0.00  0.00    +0.000 A 
ATOM     21  C   UNL     1       1.650   9.025  19.637  0.00  0.00    +0.000 A 
ATOM     22  C   UNL     1       1.971   8.738  18.313  0.00  0.00    +0.000 A 
ATOM     23  F   UNL     1       2.074   9.743  17.433  0.00  0.00    +0.000 F 
ATOM     24  C   UNL     1       2.178   7.432  17.890  0.00  0.00    +0.000 A 
ENDBRANCH  17  18
ENDBRANCH   6  17
TORSDOF 4
ENDMDL
