MODEL 1
REMARK VINA RESULT:      -8.7      0.000      0.000
REMARK  Name = 
REMARK  4 active torsions:
REMARK  status: ('A' for Active; 'I' for Inactive)
REMARK    1  A    between atoms: C_5  and  C_6
REMARK    2  A    between atoms: C_6  and  O_7
REMARK    3  A    between atoms: O_7  and  N_8
REMARK    4  A    between atoms: C_18  and  N_19
REMARK                            x       y       z     vdW  Elec       q    Type
REMARK                         _______ _______ _______ _____ _____    ______ ____
ROOT
ATOM      1  N   UNL     1       4.394   5.959  18.252  0.00  0.00    +0.000 NA
ATOM      2  C   UNL     1       4.166   4.693  18.438  0.00  0.00    +0.000 C 
ATOM      3  C   UNL     1       3.167   4.075  19.355  0.00  0.00    +0.000 A 
ATOM      4  C   UNL     1       2.741   4.685  20.542  0.00  0.00    +0.000 A 
ATOM      5  C   UNL     1       1.764   4.077  21.334  0.00  0.00    +0.000 A 
ATOM      6  C   UNL     1       1.231   2.847  20.961  0.00  0.00    +0.000 A 
ATOM      7  C   UNL     1       1.703   2.202  19.818  0.00  0.00    +0.000 A 
ATOM      8  C   UNL     1       2.676   2.808  19.022  0.00  0.00    +0.000 A 
ATOM      9  O   UNL     1       3.118   2.060  17.962  0.00  0.00    +0.000 OA
ATOM     10  C   UNL     1       3.834   2.808  16.971  0.00  0.00    +0.000 C 
ATOM     11  C   UNL     1       4.917   3.688  17.587  0.00  0.00    +0.000 C 
ENDROOT
BRANCH  11  12
ATOM     12  N   UNL     1       5.751   4.316  16.574  0.00  0.00    +0.000 N 
ATOM     13  C   UNL     1       7.036   4.741  16.705  0.00  0.00    +0.000 A 
ATOM     14  N   UNL     1       7.457   5.240  15.565  0.00  0.00    +0.000 NA
ATOM     15  C   UNL     1       6.367   5.101  14.751  0.00  0.00    +0.000 A 
ATOM     16  N   UNL     1       5.310   4.512  15.312  0.00  0.00    +0.000 NA
ENDBRANCH  11  12
BRANCH   1  17
ATOM     17  O   UNL     1       3.461   6.787  18.875  0.00  0.00    +0.000 OA
BRANCH  17  18
ATOM     18  C   UNL     1       2.769   7.552  17.885  0.00  0.00    +0.000 C 
BRANCH  18  23
ATOM     19 CL   UNL     1      -1.058  11.275  20.681  0.00  0.00    +0.000 Cl
ATOM     20  C   UNL     1       0.118  10.246  19.946  0.00  0.00    +0.000 A 
ATOM     21  C   UNL     1       0.366  10.419  18.581  0.00  0.00    +0.000 A 
ATOM     22  C   UNL     1       1.253   9.572  17.913  0.00  0.00    +0.000 A 
ATOM     23  C   UNL     1       1.897   8.543  18.606  0.00  0.00    +0.000 A 
ATOM     24  C   UNL     1       1.685   8.407  19.986  0.00  0.00    +0.000 A 
ATOM     25  C   UNL     1       0.793   9.245  20.653  0.00  0.00    +0.000 A 
ATOM     26 CL   UNL     1       0.546   8.979  22.344  0.00  0.00    +0.000 Cl
ENDBRANCH  18  23
ENDBRANCH  17  18
ENDBRANCH   1  17
TORSDOF 4
ENDMDL
MODEL 2
REMARK VINA RESULT:      -8.6      0.763      1.473
REMARK  Name = 
REMARK  4 active torsions:
REMARK  status: ('A' for Active; 'I' for Inactive)
REMARK    1  A    between atoms: C_5  and  C_6
REMARK    2  A    between atoms: C_6  and  O_7
REMARK    3  A    between atoms: O_7  and  N_8
REMARK    4  A    between atoms: C_18  and  N_19
REMARK                            x       y       z     vdW  Elec       q    Type
REMARK                         _______ _______ _______ _____ _____    ______ ____
ROOT
ATOM      1  N   UNL     1       3.796   6.047  17.555  0.00  0.00    +0.000 NA
ATOM      2  C   UNL     1       3.844   4.858  18.078  0.00  0.00    +0.000 C 
ATOM      3  C   UNL     1       2.863   4.235  19.010  0.00  0.00    +0.000 A 
ATOM      4  C   UNL     1       2.083   4.979  19.906  0.00  0.00    +0.000 A 
ATOM      5  C   UNL     1       1.144   4.340  20.719  0.00  0.00    +0.000 A 
ATOM      6  C   UNL     1       1.002   2.956  20.665  0.00  0.00    +0.000 A 
ATOM      7  C   UNL     1       1.825   2.205  19.828  0.00  0.00    +0.000 A 
ATOM      8  C   UNL     1       2.761   2.839  19.009  0.00  0.00    +0.000 A 
ATOM      9  O   UNL     1       3.565   2.005  18.277  0.00  0.00    +0.000 OA
ATOM     10  C   UNL     1       4.259   2.649  17.202  0.00  0.00    +0.000 C 
ATOM     11  C   UNL     1       4.962   3.925  17.656  0.00  0.00    +0.000 C 
ENDROOT
BRANCH  11  12
ATOM     12  N   UNL     1       5.802   4.486  16.609  0.00  0.00    +0.000 N 
ATOM     13  C   UNL     1       6.938   5.216  16.761  0.00  0.00    +0.000 A 
ATOM     14  N   UNL     1       7.425   5.531  15.582  0.00  0.00    +0.000 NA
ATOM     15  C   UNL     1       6.527   4.964  14.721  0.00  0.00    +0.000 A 
ATOM     16  N   UNL     1       5.534   4.286  15.300  0.00  0.00    +0.000 NA
ENDBRANCH  11  12
BRANCH   1  17
ATOM     17  O   UNL     1       2.590   6.706  17.791  0.00  0.00    +0.000 OA
BRANCH  17  18
ATOM     18  C   UNL     1       2.810   8.120  17.771  0.00  0.00    +0.000 C 
BRANCH  18  23
ATOM     19 CL   UNL     1      -0.925  10.917  21.586  0.00  0.00    +0.000 Cl
ATOM     20  C   UNL     1       0.058  10.084  20.436  0.00  0.00    +0.000 A 
ATOM     21  C   UNL     1       0.858   9.038  20.905  0.00  0.00    +0.000 A 
ATOM     22  C   UNL     1       1.727   8.372  20.040  0.00  0.00    +0.000 A 
ATOM     23  C   UNL     1       1.803   8.748  18.695  0.00  0.00    +0.000 A 
ATOM     24  C   UNL     1       0.959   9.762  18.217  0.00  0.00    +0.000 A 
ATOM     25  C   UNL     1       0.098  10.435  19.082  0.00  0.00    +0.000 A 
ATOM     26 CL   UNL     1      -0.872  11.709  18.426  0.00  0.00    +0.000 Cl
ENDBRANCH  18  23
ENDBRANCH  17  18
ENDBRANCH   1  17
TORSDOF 4
ENDMDL
MODEL 3
REMARK VINA RESULT:      -8.6      1.380      1.720
REMARK  Name = 
REMARK  4 active torsions:
REMARK  status: ('A' for Active; 'I' for Inactive)
REMARK    1  A    between atoms: C_5  and  C_6
REMARK    2  A    between atoms: C_6  and  O_7
REMARK    3  A    between atoms: O_7  and  N_8
REMARK    4  A    between atoms: C_18  and  N_19
REMARK                            x       y       z     vdW  Elec       q    Type
REMARK                         _______ _______ _______ _____ _____    ______ ____
ROOT
ATOM      1  N   UNL     1       3.936   6.487  19.189  0.00  0.00    +0.000 NA
ATOM      2  C   UNL     1       3.970   5.214  18.923  0.00  0.00    +0.000 C 
ATOM      3  C   UNL     1       2.858   4.231  19.047  0.00  0.00    +0.000 A 
ATOM      4  C   UNL     1       1.821   4.366  19.979  0.00  0.00    +0.000 A 
ATOM      5  C   UNL     1       0.779   3.435  20.011  0.00  0.00    +0.000 A 
ATOM      6  C   UNL     1       0.785   2.352  19.137  0.00  0.00    +0.000 A 
ATOM      7  C   UNL     1       1.852   2.174  18.257  0.00  0.00    +0.000 A 
ATOM      8  C   UNL     1       2.892   3.104  18.218  0.00  0.00    +0.000 A 
ATOM      9  O   UNL     1       3.922   2.799  17.367  0.00  0.00    +0.000 OA
ATOM     10  C   UNL     1       4.789   3.902  17.073  0.00  0.00    +0.000 C 
ATOM     11  C   UNL     1       5.240   4.630  18.335  0.00  0.00    +0.000 C 
ENDROOT
BRANCH  11  12
ATOM     12  N   UNL     1       6.249   5.638  18.052  0.00  0.00    +0.000 N 
ATOM     13  C   UNL     1       6.355   6.417  16.943  0.00  0.00    +0.000 A 
ATOM     14  N   UNL     1       7.388   7.220  17.061  0.00  0.00    +0.000 NA
ATOM     15  C   UNL     1       7.897   6.884  18.284  0.00  0.00    +0.000 A 
ATOM     16  N   UNL     1       7.217   5.944  18.944  0.00  0.00    +0.000 NA
ENDBRANCH  11  12
BRANCH   1  17
ATOM     17  O   UNL     1       2.653   6.963  19.452  0.00  0.00    +0.000 OA
BRANCH  17  18
ATOM     18  C   UNL     1       2.308   7.959  18.486  0.00  0.00    +0.000 C 
BRANCH  18  23
ATOM     19 CL   UNL     1      -1.519  11.802  21.115  0.00  0.00    +0.000 Cl
ATOM     20  C   UNL     1      -0.347  10.732  20.434  0.00  0.00    +0.000 A 
ATOM     21  C   UNL     1       0.018  10.935  19.100  0.00  0.00    +0.000 A 
ATOM     22  C   UNL     1       0.906  10.061  18.471  0.00  0.00    +0.000 A 
ATOM     23  C   UNL     1       1.437   8.975  19.174  0.00  0.00    +0.000 A 
ATOM     24  C   UNL     1       1.109   8.806  20.528  0.00  0.00    +0.000 A 
ATOM     25  C   UNL     1       0.214   9.672  21.154  0.00  0.00    +0.000 A 
ATOM     26 CL   UNL     1      -0.180   9.365  22.810  0.00  0.00    +0.000 Cl
ENDBRANCH  18  23
ENDBRANCH  17  18
ENDBRANCH   1  17
TORSDOF 4
ENDMDL
MODEL 4
REMARK VINA RESULT:      -8.5      1.216      1.962
REMARK  Name = 
REMARK  4 active torsions:
REMARK  status: ('A' for Active; 'I' for Inactive)
REMARK    1  A    between atoms: C_5  and  C_6
REMARK    2  A    between atoms: C_6  and  O_7
REMARK    3  A    between atoms: O_7  and  N_8
REMARK    4  A    between atoms: C_18  and  N_19
REMARK                            x       y       z     vdW  Elec       q    Type
REMARK                         _______ _______ _______ _____ _____    ______ ____
ROOT
ATOM      1  N   UNL     1       3.708   6.442  18.277  0.00  0.00    +0.000 NA
ATOM      2  C   UNL     1       3.808   5.170  18.529  0.00  0.00    +0.000 C 
ATOM      3  C   UNL     1       2.732   4.248  18.988  0.00  0.00    +0.000 A 
ATOM      4  C   UNL     1       1.641   4.672  19.758  0.00  0.00    +0.000 A 
ATOM      5  C   UNL     1       0.638   3.767  20.115  0.00  0.00    +0.000 A 
ATOM      6  C   UNL     1       0.735   2.432  19.732  0.00  0.00    +0.000 A 
ATOM      7  C   UNL     1       1.854   1.991  19.027  0.00  0.00    +0.000 A 
ATOM      8  C   UNL     1       2.856   2.893  18.664  0.00  0.00    +0.000 A 
ATOM      9  O   UNL     1       3.942   2.343  18.035  0.00  0.00    +0.000 OA
ATOM     10  C   UNL     1       4.778   3.295  17.365  0.00  0.00    +0.000 C 
ATOM     11  C   UNL     1       5.130   4.480  18.259  0.00  0.00    +0.000 C 
ENDROOT
BRANCH  11  12
ATOM     12  N   UNL     1       6.111   5.357  17.640  0.00  0.00    +0.000 N 
ATOM     13  C   UNL     1       6.463   5.414  16.328  0.00  0.00    +0.000 A 
ATOM     14  N   UNL     1       7.371   6.346  16.151  0.00  0.00    +0.000 NA
ATOM     15  C   UNL     1       7.552   6.839  17.413  0.00  0.00    +0.000 A 
ATOM     16  N   UNL     1       6.781   6.289  18.354  0.00  0.00    +0.000 NA
ENDBRANCH  11  12
BRANCH   1  17
ATOM     17  O   UNL     1       2.394   6.907  18.292  0.00  0.00    +0.000 OA
BRANCH  17  18
ATOM     18  C   UNL     1       2.396   8.337  18.301  0.00  0.00    +0.000 C 
BRANCH  18  23
ATOM     19 CL   UNL     1      -0.874  10.383  22.933  0.00  0.00    +0.000 Cl
ATOM     20  C   UNL     1      -0.030   9.775  21.554  0.00  0.00    +0.000 A 
ATOM     21  C   UNL     1       0.798   8.664  21.739  0.00  0.00    +0.000 A 
ATOM     22  C   UNL     1       1.561   8.169  20.680  0.00  0.00    +0.000 A 
ATOM     23  C   UNL     1       1.501   8.784  19.425  0.00  0.00    +0.000 A 
ATOM     24  C   UNL     1       0.628   9.866  19.231  0.00  0.00    +0.000 A 
ATOM     25  C   UNL     1      -0.126  10.367  20.290  0.00  0.00    +0.000 A 
ATOM     26 CL   UNL     1      -1.138  11.736  19.982  0.00  0.00    +0.000 Cl
ENDBRANCH  18  23
ENDBRANCH  17  18
ENDBRANCH   1  17
TORSDOF 4
ENDMDL
MODEL 5
REMARK VINA RESULT:      -8.2      1.606      2.270
REMARK  Name = 
REMARK  4 active torsions:
REMARK  status: ('A' for Active; 'I' for Inactive)
REMARK    1  A    between atoms: C_5  and  C_6
REMARK    2  A    between atoms: C_6  and  O_7
REMARK    3  A    between atoms: O_7  and  N_8
REMARK    4  A    between atoms: C_18  and  N_19
REMARK                            x       y       z     vdW  Elec       q    Type
REMARK                         _______ _______ _______ _____ _____    ______ ____
ROOT
ATOM      1  N   UNL     1       3.906   6.442  19.277  0.00  0.00    +0.000 NA
ATOM      2  C   UNL     1       3.954   5.186  18.946  0.00  0.00    +0.000 C 
ATOM      3  C   UNL     1       2.859   4.181  19.038  0.00  0.00    +0.000 A 
ATOM      4  C   UNL     1       1.835   4.252  19.992  0.00  0.00    +0.000 A 
ATOM      5  C   UNL     1       0.808   3.305  19.994  0.00  0.00    +0.000 A 
ATOM      6  C   UNL     1       0.814   2.268  19.065  0.00  0.00    +0.000 A 
ATOM      7  C   UNL     1       1.869   2.152  18.160  0.00  0.00    +0.000 A 
ATOM      8  C   UNL     1       2.894   3.099  18.151  0.00  0.00    +0.000 A 
ATOM      9  O   UNL     1       3.914   2.853  17.269  0.00  0.00    +0.000 OA
ATOM     10  C   UNL     1       4.760   3.982  17.018  0.00  0.00    +0.000 C 
ATOM     11  C   UNL     1       5.222   4.652  18.309  0.00  0.00    +0.000 C 
ENDROOT
BRANCH  11  12
ATOM     12  N   UNL     1       6.211   5.689  18.062  0.00  0.00    +0.000 N 
ATOM     13  C   UNL     1       6.246   6.572  17.030  0.00  0.00    +0.000 A 
ATOM     14  N   UNL     1       7.285   7.366  17.159  0.00  0.00    +0.000 NA
ATOM     15  C   UNL     1       7.872   6.915  18.308  0.00  0.00    +0.000 A 
ATOM     16  N   UNL     1       7.235   5.911  18.915  0.00  0.00    +0.000 NA
ENDBRANCH  11  12
BRANCH   1  17
ATOM     17  O   UNL     1       2.621   6.884  19.586  0.00  0.00    +0.000 OA
BRANCH  17  18
ATOM     18  C   UNL     1       2.238   7.911  18.666  0.00  0.00    +0.000 C 
BRANCH  18  23
ATOM     19 CL   UNL     1      -0.528  12.181  21.898  0.00  0.00    +0.000 Cl
ATOM     20  C   UNL     1       0.179  10.958  20.904  0.00  0.00    +0.000 A 
ATOM     21  C   UNL     1       0.442   9.717  21.492  0.00  0.00    +0.000 A 
ATOM     22  C   UNL     1       1.077   8.711  20.762  0.00  0.00    +0.000 A 
ATOM     23  C   UNL     1       1.455   8.939  19.435  0.00  0.00    +0.000 A 
ATOM     24  C   UNL     1       1.142  10.168  18.834  0.00  0.00    +0.000 A 
ATOM     25  C   UNL     1       0.516  11.177  19.564  0.00  0.00    +0.000 A 
ATOM     26 CL   UNL     1       0.212  12.681  18.766  0.00  0.00    +0.000 Cl
ENDBRANCH  18  23
ENDBRANCH  17  18
ENDBRANCH   1  17
TORSDOF 4
ENDMDL
MODEL 6
REMARK VINA RESULT:      -8.0      2.219      4.282
REMARK  Name = 
REMARK  4 active torsions:
REMARK  status: ('A' for Active; 'I' for Inactive)
REMARK    1  A    between atoms: C_5  and  C_6
REMARK    2  A    between atoms: C_6  and  O_7
REMARK    3  A    between atoms: O_7  and  N_8
REMARK    4  A    between atoms: C_18  and  N_19
REMARK                            x       y       z     vdW  Elec       q    Type
REMARK                         _______ _______ _______ _____ _____    ______ ____
ROOT
ATOM      1  N   UNL     1       2.556   5.841  18.171  0.00  0.00    +0.000 NA
ATOM      2  C   UNL     1       3.716   5.254  18.136  0.00  0.00    +0.000 C 
ATOM      3  C   UNL     1       5.049   5.887  17.932  0.00  0.00    +0.000 A 
ATOM      4  C   UNL     1       5.230   7.062  17.190  0.00  0.00    +0.000 A 
ATOM      5  C   UNL     1       6.500   7.634  17.078  0.00  0.00    +0.000 A 
ATOM      6  C   UNL     1       7.596   7.020  17.677  0.00  0.00    +0.000 A 
ATOM      7  C   UNL     1       7.432   5.813  18.356  0.00  0.00    +0.000 A 
ATOM      8  C   UNL     1       6.165   5.241  18.475  0.00  0.00    +0.000 A 
ATOM      9  O   UNL     1       6.126   4.022  19.101  0.00  0.00    +0.000 OA
ATOM     10  C   UNL     1       4.818   3.620  19.527  0.00  0.00    +0.000 C 
ATOM     11  C   UNL     1       3.783   3.765  18.415  0.00  0.00    +0.000 C 
ENDROOT
BRANCH  11  12
ATOM     12  N   UNL     1       2.496   3.201  18.792  0.00  0.00    +0.000 N 
ATOM     13  C   UNL     1       1.938   3.163  20.030  0.00  0.00    +0.000 A 
ATOM     14  N   UNL     1       0.759   2.588  19.969  0.00  0.00    +0.000 NA
ATOM     15  C   UNL     1       0.639   2.278  18.643  0.00  0.00    +0.000 A 
ATOM     16  N   UNL     1       1.662   2.662  17.875  0.00  0.00    +0.000 NA
ENDBRANCH  11  12
BRANCH   1  17
ATOM     17  O   UNL     1       2.642   7.233  18.183  0.00  0.00    +0.000 OA
BRANCH  17  18
ATOM     18  C   UNL     1       2.383   7.713  19.505  0.00  0.00    +0.000 C 
BRANCH  18  23
ATOM     19 CL   UNL     1      -1.992  11.834  19.047  0.00  0.00    +0.000 Cl
ATOM     20  C   UNL     1      -0.677  10.728  19.229  0.00  0.00    +0.000 A 
ATOM     21  C   UNL     1      -0.102  10.210  18.066  0.00  0.00    +0.000 A 
ATOM     22  C   UNL     1       0.916   9.258  18.146  0.00  0.00    +0.000 A 
ATOM     23  C   UNL     1       1.367   8.816  19.395  0.00  0.00    +0.000 A 
ATOM     24  C   UNL     1       0.823   9.379  20.559  0.00  0.00    +0.000 A 
ATOM     25  C   UNL     1      -0.201  10.322  20.480  0.00  0.00    +0.000 A 
ATOM     26 CL   UNL     1      -0.855  10.929  21.963  0.00  0.00    +0.000 Cl
ENDBRANCH  18  23
ENDBRANCH  17  18
ENDBRANCH   1  17
TORSDOF 4
ENDMDL
MODEL 7
REMARK VINA RESULT:      -8.0      2.267      4.334
REMARK  Name = 
REMARK  4 active torsions:
REMARK  status: ('A' for Active; 'I' for Inactive)
REMARK    1  A    between atoms: C_5  and  C_6
REMARK    2  A    between atoms: C_6  and  O_7
REMARK    3  A    between atoms: O_7  and  N_8
REMARK    4  A    between atoms: C_18  and  N_19
REMARK                            x       y       z     vdW  Elec       q    Type
REMARK                         _______ _______ _______ _____ _____    ______ ____
ROOT
ATOM      1  N   UNL     1       2.663   6.158  18.402  0.00  0.00    +0.000 NA
ATOM      2  C   UNL     1       3.752   5.455  18.298  0.00  0.00    +0.000 C 
ATOM      3  C   UNL     1       5.135   5.953  18.058  0.00  0.00    +0.000 A 
ATOM      4  C   UNL     1       5.410   7.129  17.348  0.00  0.00    +0.000 A 
ATOM      5  C   UNL     1       6.728   7.569  17.200  0.00  0.00    +0.000 A 
ATOM      6  C   UNL     1       7.776   6.822  17.731  0.00  0.00    +0.000 A 
ATOM      7  C   UNL     1       7.512   5.614  18.376  0.00  0.00    +0.000 A 
ATOM      8  C   UNL     1       6.197   5.174  18.531  0.00  0.00    +0.000 A 
ATOM      9  O   UNL     1       6.054   3.944  19.118  0.00  0.00    +0.000 OA
ATOM     10  C   UNL     1       4.728   3.665  19.586  0.00  0.00    +0.000 C 
ATOM     11  C   UNL     1       3.672   3.958  18.526  0.00  0.00    +0.000 C 
ENDROOT
BRANCH  11  12
ATOM     12  N   UNL     1       2.348   3.518  18.938  0.00  0.00    +0.000 N 
ATOM     13  C   UNL     1       1.415   2.877  18.186  0.00  0.00    +0.000 A 
ATOM     14  N   UNL     1       0.350   2.629  18.913  0.00  0.00    +0.000 NA
ATOM     15  C   UNL     1       0.684   3.155  20.130  0.00  0.00    +0.000 A 
ATOM     16  N   UNL     1       1.908   3.682  20.206  0.00  0.00    +0.000 NA
ENDBRANCH  11  12
BRANCH   1  17
ATOM     17  O   UNL     1       2.895   7.532  18.455  0.00  0.00    +0.000 OA
BRANCH  17  18
ATOM     18  C   UNL     1       1.756   8.227  17.941  0.00  0.00    +0.000 C 
BRANCH  18  23
ATOM     19 CL   UNL     1      -0.157  12.413  21.833  0.00  0.00    +0.000 Cl
ATOM     20  C   UNL     1       0.476  11.195  20.784  0.00  0.00    +0.000 A 
ATOM     21  C   UNL     1       0.826  11.577  19.486  0.00  0.00    +0.000 A 
ATOM     22  C   UNL     1       1.276  10.626  18.568  0.00  0.00    +0.000 A 
ATOM     23  C   UNL     1       1.379   9.283  18.943  0.00  0.00    +0.000 A 
ATOM     24  C   UNL     1       1.078   8.914  20.263  0.00  0.00    +0.000 A 
ATOM     25  C   UNL     1       0.619   9.860  21.177  0.00  0.00    +0.000 A 
ATOM     26 CL   UNL     1       0.217   9.315  22.770  0.00  0.00    +0.000 Cl
ENDBRANCH  18  23
ENDBRANCH  17  18
ENDBRANCH   1  17
TORSDOF 4
ENDMDL
MODEL 8
REMARK VINA RESULT:      -7.9      2.252      4.454
REMARK  Name = 
REMARK  4 active torsions:
REMARK  status: ('A' for Active; 'I' for Inactive)
REMARK    1  A    between atoms: C_5  and  C_6
REMARK    2  A    between atoms: C_6  and  O_7
REMARK    3  A    between atoms: O_7  and  N_8
REMARK    4  A    between atoms: C_18  and  N_19
REMARK                            x       y       z     vdW  Elec       q    Type
REMARK                         _______ _______ _______ _____ _____    ______ ____
ROOT
ATOM      1  N   UNL     1       2.713   6.176  18.403  0.00  0.00    +0.000 NA
ATOM      2  C   UNL     1       3.803   5.479  18.270  0.00  0.00    +0.000 C 
ATOM      3  C   UNL     1       5.186   5.989  18.057  0.00  0.00    +0.000 A 
ATOM      4  C   UNL     1       5.462   7.197  17.403  0.00  0.00    +0.000 A 
ATOM      5  C   UNL     1       6.779   7.645  17.279  0.00  0.00    +0.000 A 
ATOM      6  C   UNL     1       7.827   6.877  17.779  0.00  0.00    +0.000 A 
ATOM      7  C   UNL     1       7.563   5.640  18.367  0.00  0.00    +0.000 A 
ATOM      8  C   UNL     1       6.248   5.191  18.497  0.00  0.00    +0.000 A 
ATOM      9  O   UNL     1       6.105   3.935  19.027  0.00  0.00    +0.000 OA
ATOM     10  C   UNL     1       4.778   3.633  19.477  0.00  0.00    +0.000 C 
ATOM     11  C   UNL     1       3.724   3.973  18.428  0.00  0.00    +0.000 C 
ENDROOT
BRANCH  11  12
ATOM     12  N   UNL     1       2.400   3.513  18.816  0.00  0.00    +0.000 N 
ATOM     13  C   UNL     1       1.813   3.612  20.038  0.00  0.00    +0.000 A 
ATOM     14  N   UNL     1       0.605   3.097  19.994  0.00  0.00    +0.000 NA
ATOM     15  C   UNL     1       0.499   2.681  18.696  0.00  0.00    +0.000 A 
ATOM     16  N   UNL     1       1.558   2.942  17.926  0.00  0.00    +0.000 NA
ENDBRANCH  11  12
BRANCH   1  17
ATOM     17  O   UNL     1       2.943   7.546  18.520  0.00  0.00    +0.000 OA
BRANCH  17  18
ATOM     18  C   UNL     1       1.820   8.262  17.998  0.00  0.00    +0.000 C 
BRANCH  18  23
ATOM     19 CL   UNL     1      -0.637  11.157  22.679  0.00  0.00    +0.000 Cl
ATOM     20  C   UNL     1      -0.033  10.301  21.306  0.00  0.00    +0.000 A 
ATOM     21  C   UNL     1       0.802   9.206  21.541  0.00  0.00    +0.000 A 
ATOM     22  C   UNL     1       1.379   8.516  20.473  0.00  0.00    +0.000 A 
ATOM     23  C   UNL     1       1.124   8.919  19.158  0.00  0.00    +0.000 A 
ATOM     24  C   UNL     1       0.242   9.986  18.926  0.00  0.00    +0.000 A 
ATOM     25  C   UNL     1      -0.327  10.682  19.991  0.00  0.00    +0.000 A 
ATOM     26 CL   UNL     1      -1.361  12.018  19.622  0.00  0.00    +0.000 Cl
ENDBRANCH  18  23
ENDBRANCH  17  18
ENDBRANCH   1  17
TORSDOF 4
ENDMDL
MODEL 9
REMARK VINA RESULT:      -7.9      2.472      4.627
REMARK  Name = 
REMARK  4 active torsions:
REMARK  status: ('A' for Active; 'I' for Inactive)
REMARK    1  A    between atoms: C_5  and  C_6
REMARK    2  A    between atoms: C_6  and  O_7
REMARK    3  A    between atoms: O_7  and  N_8
REMARK    4  A    between atoms: C_18  and  N_19
REMARK                            x       y       z     vdW  Elec       q    Type
REMARK                         _______ _______ _______ _____ _____    ______ ____
ROOT
ATOM      1  N   UNL     1       2.655   6.136  18.406  0.00  0.00    +0.000 NA
ATOM      2  C   UNL     1       3.749   5.441  18.298  0.00  0.00    +0.000 C 
ATOM      3  C   UNL     1       5.128   5.950  18.061  0.00  0.00    +0.000 A 
ATOM      4  C   UNL     1       5.395   7.132  17.359  0.00  0.00    +0.000 A 
ATOM      5  C   UNL     1       6.710   7.583  17.214  0.00  0.00    +0.000 A 
ATOM      6  C   UNL     1       7.763   6.841  17.741  0.00  0.00    +0.000 A 
ATOM      7  C   UNL     1       7.508   5.628  18.379  0.00  0.00    +0.000 A 
ATOM      8  C   UNL     1       6.196   5.177  18.531  0.00  0.00    +0.000 A 
ATOM      9  O   UNL     1       6.062   3.942  19.110  0.00  0.00    +0.000 OA
ATOM     10  C   UNL     1       4.738   3.651  19.576  0.00  0.00    +0.000 C 
ATOM     11  C   UNL     1       3.680   3.942  18.517  0.00  0.00    +0.000 C 
ENDROOT
BRANCH  11  12
ATOM     12  N   UNL     1       2.360   3.490  18.926  0.00  0.00    +0.000 N 
ATOM     13  C   UNL     1       1.424   2.865  18.164  0.00  0.00    +0.000 A 
ATOM     14  N   UNL     1       0.363   2.598  18.892  0.00  0.00    +0.000 NA
ATOM     15  C   UNL     1       0.703   3.096  20.119  0.00  0.00    +0.000 A 
ATOM     16  N   UNL     1       1.926   3.623  20.200  0.00  0.00    +0.000 NA
ENDBRANCH  11  12
BRANCH   1  17
ATOM     17  O   UNL     1       2.877   7.511  18.467  0.00  0.00    +0.000 OA
BRANCH  17  18
ATOM     18  C   UNL     1       1.835   8.192  17.762  0.00  0.00    +0.000 C 
BRANCH  18  23
ATOM     19 CL   UNL     1       0.968  13.199  21.003  0.00  0.00    +0.000 Cl
ATOM     20  C   UNL     1       1.153  11.808  19.997  0.00  0.00    +0.000 A 
ATOM     21  C   UNL     1       0.710  10.581  20.501  0.00  0.00    +0.000 A 
ATOM     22  C   UNL     1       0.895   9.409  19.766  0.00  0.00    +0.000 A 
ATOM     23  C   UNL     1       1.527   9.454  18.520  0.00  0.00    +0.000 A 
ATOM     24  C   UNL     1       1.922  10.694  17.995  0.00  0.00    +0.000 A 
ATOM     25  C   UNL     1       1.746  11.864  18.732  0.00  0.00    +0.000 A 
ATOM     26 CL   UNL     1       2.308  13.346  18.038  0.00  0.00    +0.000 Cl
ENDBRANCH  18  23
ENDBRANCH  17  18
ENDBRANCH   1  17
TORSDOF 4
ENDMDL
