MODEL 1
REMARK VINA RESULT:      -9.6      0.000      0.000
REMARK  Name = 
REMARK  8 active torsions:
REMARK  status: ('A' for Active; 'I' for Inactive)
REMARK    1  A    between atoms: C_1  and  C_2
REMARK    2  A    between atoms: C_6  and  N_7
REMARK    3  A    between atoms: N_7  and  C_8
REMARK    4  A    between atoms: C_11  and  C_12
REMARK    5  A    between atoms: C_15  and  C_16
REMARK    6  A    between atoms: C_17  and  S_18
REMARK    7  A    between atoms: S_18  and  N_21
REMARK    8  A    between atoms: N_24  and  C_25
REMARK                            x       y       z     vdW  Elec       q    Type
REMARK                         _______ _______ _______ _____ _____    ______ ____
ROOT
ATOM      1  C   UNL     1       4.790   4.625  16.959  0.00  0.00    +0.000 A 
ATOM      2  N   UNL     1       5.075   5.936  17.042  0.00  0.00    +0.000 NA
ATOM      3  N   UNL     1       4.259   6.771  17.719  0.00  0.00    +0.000 NA
ATOM      4  C   UNL     1       3.107   6.340  18.288  0.00  0.00    +0.000 A 
ATOM      5  C   UNL     1       2.728   4.987  18.198  0.00  0.00    +0.000 A 
ATOM      6  C   UNL     1       1.495   4.464  18.662  0.00  0.00    +0.000 A 
ATOM      7  C   UNL     1       1.215   3.098  18.624  0.00  0.00    +0.000 A 
ATOM      8  C   UNL     1       2.146   2.218  18.094  0.00  0.00    +0.000 A 
ATOM      9  C   UNL     1       3.333   2.713  17.555  0.00  0.00    +0.000 A 
ATOM     10  C   UNL     1       3.639   4.094  17.575  0.00  0.00    +0.000 A 
ENDROOT
BRANCH   4  11
ATOM     11  C   UNL     1       2.487   7.432  19.090  0.00  0.00    +0.000 A 
ATOM     12  C   UNL     1       2.179   7.155  20.433  0.00  0.00    +0.000 A 
ATOM     13  C   UNL     1       1.213   7.892  21.126  0.00  0.00    +0.000 A 
ATOM     14  C   UNL     1       0.598   8.986  20.522  0.00  0.00    +0.000 A 
ATOM     15  C   UNL     1      -0.659   9.527  21.133  0.00  0.00    +0.000 C 
ATOM     16  C   UNL     1       1.097   9.431  19.288  0.00  0.00    +0.000 A 
ATOM     17  C   UNL     1       1.994   8.629  18.549  0.00  0.00    +0.000 A 
BRANCH  16  18
ATOM     18  S   UNL     1       0.693  11.074  18.687  0.00  0.00    +0.000 S 
ATOM     19  O   UNL     1       1.815  11.498  17.881  0.00  0.00    +0.000 OA
ATOM     20  O   UNL     1      -0.642  11.010  18.122  0.00  0.00    +0.000 OA
BRANCH  18  21
ATOM     21  N   UNL     1       0.637  11.992  20.093  0.00  0.00    +0.000 NA
ATOM     22  C   UNL     1      -0.498  12.912  20.272  0.00  0.00    +0.000 C 
ATOM     23  C   UNL     1      -0.187  14.257  19.600  0.00  0.00    +0.000 C 
ATOM     24  N   UNL     1       0.998  14.925  20.165  0.00  0.00    +0.000 NA
ATOM     25  C   UNL     1       1.386  16.050  19.305  0.00  0.00    +0.000 C 
ATOM     26  C   UNL     1       2.152  14.022  20.356  0.00  0.00    +0.000 C 
ATOM     27  C   UNL     1       1.897  12.529  20.666  0.00  0.00    +0.000 C 
ENDBRANCH  18  21
ENDBRANCH  16  18
ENDBRANCH   4  11
BRANCH   1  28
ATOM     28  N   UNL     1       5.675   3.806  16.219  0.00  0.00    +0.000 N 
ATOM     29  H   UNL     1       6.468   3.555  16.798  0.00  0.00    +0.000 HD
BRANCH  28  35
ATOM     30  C   UNL     1       4.888   2.901  11.404  0.00  0.00    +0.000 C 
ATOM     31  C   UNL     1       5.690   3.576  12.477  0.00  0.00    +0.000 A 
ATOM     32  C   UNL     1       6.835   4.315  12.180  0.00  0.00    +0.000 A 
ATOM     33  C   UNL     1       7.577   4.900  13.208  0.00  0.00    +0.000 A 
ATOM     34  C   UNL     1       7.181   4.752  14.542  0.00  0.00    +0.000 A 
ATOM     35  C   UNL     1       6.022   4.040  14.865  0.00  0.00    +0.000 A 
ATOM     36  C   UNL     1       5.298   3.444  13.816  0.00  0.00    +0.000 A 
ENDBRANCH  28  35
ENDBRANCH   1  28
TORSDOF 5
ENDMDL
MODEL 2
REMARK VINA RESULT:      -9.1      1.146      1.332
REMARK  Name = 
REMARK  8 active torsions:
REMARK  status: ('A' for Active; 'I' for Inactive)
REMARK    1  A    between atoms: C_1  and  C_2
REMARK    2  A    between atoms: C_6  and  N_7
REMARK    3  A    between atoms: N_7  and  C_8
REMARK    4  A    between atoms: C_11  and  C_12
REMARK    5  A    between atoms: C_15  and  C_16
REMARK    6  A    between atoms: C_17  and  S_18
REMARK    7  A    between atoms: S_18  and  N_21
REMARK    8  A    between atoms: N_24  and  C_25
REMARK                            x       y       z     vdW  Elec       q    Type
REMARK                         _______ _______ _______ _____ _____    ______ ____
ROOT
ATOM      1  C   UNL     1       3.862   4.811  17.768  0.00  0.00    +0.000 A 
ATOM      2  N   UNL     1       3.954   6.101  17.401  0.00  0.00    +0.000 NA
ATOM      3  N   UNL     1       3.280   7.054  18.077  0.00  0.00    +0.000 NA
ATOM      4  C   UNL     1       2.449   6.751  19.104  0.00  0.00    +0.000 A 
ATOM      5  C   UNL     1       2.272   5.414  19.508  0.00  0.00    +0.000 A 
ATOM      6  C   UNL     1       1.346   4.986  20.493  0.00  0.00    +0.000 A 
ATOM      7  C   UNL     1       1.280   3.658  20.913  0.00  0.00    +0.000 A 
ATOM      8  C   UNL     1       2.117   2.712  20.341  0.00  0.00    +0.000 A 
ATOM      9  C   UNL     1       2.980   3.087  19.312  0.00  0.00    +0.000 A 
ATOM     10  C   UNL     1       3.061   4.427  18.863  0.00  0.00    +0.000 A 
ENDROOT
BRANCH   4  11
ATOM     11  C   UNL     1       1.958   7.996  19.757  0.00  0.00    +0.000 A 
ATOM     12  C   UNL     1       1.534   7.903  21.093  0.00  0.00    +0.000 A 
ATOM     13  C   UNL     1       0.653   8.841  21.644  0.00  0.00    +0.000 A 
ATOM     14  C   UNL     1       0.249   9.947  20.901  0.00  0.00    +0.000 A 
ATOM     15  C   UNL     1      -0.943  10.726  21.368  0.00  0.00    +0.000 C 
ATOM     16  C   UNL     1       0.882  10.188  19.672  0.00  0.00    +0.000 A 
ATOM     17  C   UNL     1       1.687   9.194  19.075  0.00  0.00    +0.000 A 
BRANCH  16  18
ATOM     18  S   UNL     1       0.771  11.805  18.897  0.00  0.00    +0.000 S 
ATOM     19  O   UNL     1       1.915  11.913  18.021  0.00  0.00    +0.000 OA
ATOM     20  O   UNL     1      -0.577  11.941  18.377  0.00  0.00    +0.000 OA
BRANCH  18  21
ATOM     21  N   UNL     1       0.956  12.861  20.191  0.00  0.00    +0.000 NA
ATOM     22  C   UNL     1       0.055  14.023  20.267  0.00  0.00    +0.000 C 
ATOM     23  C   UNL     1       0.635  15.183  19.446  0.00  0.00    +0.000 C 
ATOM     24  N   UNL     1       1.952  15.631  19.929  0.00  0.00    +0.000 NA
ATOM     25  C   UNL     1       2.554  16.542  18.947  0.00  0.00    +0.000 C 
ATOM     26  C   UNL     1       2.886  14.522  20.218  0.00  0.00    +0.000 C 
ATOM     27  C   UNL     1       2.318  13.166  20.696  0.00  0.00    +0.000 C 
ENDBRANCH  18  21
ENDBRANCH  16  18
ENDBRANCH   4  11
BRANCH   1  28
ATOM     28  N   UNL     1       4.579   3.858  17.007  0.00  0.00    +0.000 N 
ATOM     29  H   UNL     1       4.981   3.163  17.626  0.00  0.00    +0.000 HD
BRANCH  28  35
ATOM     30  C   UNL     1       5.709   3.377  12.199  0.00  0.00    +0.000 C 
ATOM     31  C   UNL     1       6.035   3.934  13.553  0.00  0.00    +0.000 A 
ATOM     32  C   UNL     1       7.207   4.654  13.785  0.00  0.00    +0.000 A 
ATOM     33  C   UNL     1       7.495   5.128  15.067  0.00  0.00    +0.000 A 
ATOM     34  C   UNL     1       6.616   4.885  16.128  0.00  0.00    +0.000 A 
ATOM     35  C   UNL     1       5.421   4.190  15.917  0.00  0.00    +0.000 A 
ATOM     36  C   UNL     1       5.157   3.707  14.622  0.00  0.00    +0.000 A 
ENDBRANCH  28  35
ENDBRANCH   1  28
TORSDOF 5
ENDMDL
MODEL 3
REMARK VINA RESULT:      -9.1      3.292      9.565
REMARK  Name = 
REMARK  8 active torsions:
REMARK  status: ('A' for Active; 'I' for Inactive)
REMARK    1  A    between atoms: C_1  and  C_2
REMARK    2  A    between atoms: C_6  and  N_7
REMARK    3  A    between atoms: N_7  and  C_8
REMARK    4  A    between atoms: C_11  and  C_12
REMARK    5  A    between atoms: C_15  and  C_16
REMARK    6  A    between atoms: C_17  and  S_18
REMARK    7  A    between atoms: S_18  and  N_21
REMARK    8  A    between atoms: N_24  and  C_25
REMARK                            x       y       z     vdW  Elec       q    Type
REMARK                         _______ _______ _______ _____ _____    ______ ____
ROOT
ATOM      1  C   UNL     1      -0.512  10.557  19.187  0.00  0.00    +0.000 A 
ATOM      2  N   UNL     1       0.009  10.152  18.016  0.00  0.00    +0.000 NA
ATOM      3  N   UNL     1       0.968   9.203  17.986  0.00  0.00    +0.000 NA
ATOM      4  C   UNL     1       1.478   8.665  19.121  0.00  0.00    +0.000 A 
ATOM      5  C   UNL     1       1.008   9.079  20.382  0.00  0.00    +0.000 A 
ATOM      6  C   UNL     1       1.552   8.660  21.622  0.00  0.00    +0.000 A 
ATOM      7  C   UNL     1       0.985   9.037  22.839  0.00  0.00    +0.000 A 
ATOM      8  C   UNL     1      -0.124   9.868  22.854  0.00  0.00    +0.000 A 
ATOM      9  C   UNL     1      -0.631  10.363  21.653  0.00  0.00    +0.000 A 
ATOM     10  C   UNL     1      -0.071  10.001  20.406  0.00  0.00    +0.000 A 
ENDROOT
BRANCH   4  11
ATOM     11  C   UNL     1       2.403   7.545  18.792  0.00  0.00    +0.000 A 
ATOM     12  C   UNL     1       2.382   6.419  19.632  0.00  0.00    +0.000 A 
ATOM     13  C   UNL     1       3.475   5.548  19.711  0.00  0.00    +0.000 A 
ATOM     14  C   UNL     1       4.579   5.730  18.882  0.00  0.00    +0.000 A 
ATOM     15  C   UNL     1       5.855   5.023  19.225  0.00  0.00    +0.000 C 
ATOM     16  C   UNL     1       4.489   6.683  17.856  0.00  0.00    +0.000 A 
ATOM     17  C   UNL     1       3.436   7.624  17.844  0.00  0.00    +0.000 A 
BRANCH  16  18
ATOM     18  S   UNL     1       5.645   6.648  16.482  0.00  0.00    +0.000 S 
ATOM     19  O   UNL     1       4.925   7.147  15.333  0.00  0.00    +0.000 OA
ATOM     20  O   UNL     1       6.865   7.294  16.929  0.00  0.00    +0.000 OA
BRANCH  18  21
ATOM     21  N   UNL     1       5.949   5.008  16.281  0.00  0.00    +0.000 NA
ATOM     22  C   UNL     1       7.312   4.599  15.903  0.00  0.00    +0.000 C 
ATOM     23  C   UNL     1       7.462   4.649  14.375  0.00  0.00    +0.000 C 
ATOM     24  N   UNL     1       6.535   3.745  13.674  0.00  0.00    +0.000 NA
ATOM     25  C   UNL     1       6.548   4.044  12.236  0.00  0.00    +0.000 C 
ATOM     26  C   UNL     1       5.148   3.807  14.183  0.00  0.00    +0.000 C 
ATOM     27  C   UNL     1       4.909   4.141  15.674  0.00  0.00    +0.000 C 
ENDBRANCH  18  21
ENDBRANCH  16  18
ENDBRANCH   4  11
BRANCH   1  28
ATOM     28  N   UNL     1      -1.499  11.569  19.152  0.00  0.00    +0.000 N 
ATOM     29  H   UNL     1      -1.636  11.941  20.085  0.00  0.00    +0.000 HD
BRANCH  28  35
ATOM     30  C   UNL     1      -3.792  10.443  14.897  0.00  0.00    +0.000 C 
ATOM     31  C   UNL     1      -3.858  10.972  16.299  0.00  0.00    +0.000 A 
ATOM     32  C   UNL     1      -5.038  11.490  16.831  0.00  0.00    +0.000 A 
ATOM     33  C   UNL     1      -5.055  12.008  18.128  0.00  0.00    +0.000 A 
ATOM     34  C   UNL     1      -3.891  12.013  18.904  0.00  0.00    +0.000 A 
ATOM     35  C   UNL     1      -2.700  11.474  18.406  0.00  0.00    +0.000 A 
ATOM     36  C   UNL     1      -2.702  10.974  17.092  0.00  0.00    +0.000 A 
ENDBRANCH  28  35
ENDBRANCH   1  28
TORSDOF 5
ENDMDL
MODEL 4
REMARK VINA RESULT:      -9.0      0.302      1.178
REMARK  Name = 
REMARK  8 active torsions:
REMARK  status: ('A' for Active; 'I' for Inactive)
REMARK    1  A    between atoms: C_1  and  C_2
REMARK    2  A    between atoms: C_6  and  N_7
REMARK    3  A    between atoms: N_7  and  C_8
REMARK    4  A    between atoms: C_11  and  C_12
REMARK    5  A    between atoms: C_15  and  C_16
REMARK    6  A    between atoms: C_17  and  S_18
REMARK    7  A    between atoms: S_18  and  N_21
REMARK    8  A    between atoms: N_24  and  C_25
REMARK                            x       y       z     vdW  Elec       q    Type
REMARK                         _______ _______ _______ _____ _____    ______ ____
ROOT
ATOM      1  C   UNL     1       4.951   4.597  17.005  0.00  0.00    +0.000 A 
ATOM      2  N   UNL     1       5.259   5.900  17.129  0.00  0.00    +0.000 NA
ATOM      3  N   UNL     1       4.419   6.742  17.767  0.00  0.00    +0.000 NA
ATOM      4  C   UNL     1       3.223   6.329  18.252  0.00  0.00    +0.000 A 
ATOM      5  C   UNL     1       2.821   4.987  18.112  0.00  0.00    +0.000 A 
ATOM      6  C   UNL     1       1.548   4.484  18.485  0.00  0.00    +0.000 A 
ATOM      7  C   UNL     1       1.242   3.127  18.404  0.00  0.00    +0.000 A 
ATOM      8  C   UNL     1       2.186   2.234  17.921  0.00  0.00    +0.000 A 
ATOM      9  C   UNL     1       3.416   2.710  17.469  0.00  0.00    +0.000 A 
ATOM     10  C   UNL     1       3.750   4.083  17.534  0.00  0.00    +0.000 A 
ENDROOT
BRANCH   4  11
ATOM     11  C   UNL     1       2.576   7.421  19.031  0.00  0.00    +0.000 A 
ATOM     12  C   UNL     1       2.252   7.155  20.372  0.00  0.00    +0.000 A 
ATOM     13  C   UNL     1       1.265   7.888  21.041  0.00  0.00    +0.000 A 
ATOM     14  C   UNL     1       0.644   8.966  20.416  0.00  0.00    +0.000 A 
ATOM     15  C   UNL     1      -0.629   9.497  21.001  0.00  0.00    +0.000 C 
ATOM     16  C   UNL     1       1.156   9.403  19.184  0.00  0.00    +0.000 A 
ATOM     17  C   UNL     1       2.075   8.606  18.468  0.00  0.00    +0.000 A 
BRANCH  16  18
ATOM     18  S   UNL     1       0.740  11.034  18.557  0.00  0.00    +0.000 S 
ATOM     19  O   UNL     1       1.875  11.471  17.777  0.00  0.00    +0.000 OA
ATOM     20  O   UNL     1      -0.579  10.941  17.959  0.00  0.00    +0.000 OA
BRANCH  18  21
ATOM     21  N   UNL     1       0.631  11.963  19.953  0.00  0.00    +0.000 NA
ATOM     22  C   UNL     1      -0.520  12.870  20.090  0.00  0.00    +0.000 C 
ATOM     23  C   UNL     1      -0.205  14.213  19.416  0.00  0.00    +0.000 C 
ATOM     24  N   UNL     1       0.954  14.900  20.010  0.00  0.00    +0.000 NA
ATOM     25  C   UNL     1       1.355  16.023  19.152  0.00  0.00    +0.000 C 
ATOM     26  C   UNL     1       2.113  14.013  20.243  0.00  0.00    +0.000 C 
ATOM     27  C   UNL     1       1.866  12.520  20.558  0.00  0.00    +0.000 C 
ENDBRANCH  18  21
ENDBRANCH  16  18
ENDBRANCH   4  11
BRANCH   1  28
ATOM     28  N   UNL     1       5.865   3.770  16.309  0.00  0.00    +0.000 N 
ATOM     29  H   UNL     1       6.682   3.608  16.886  0.00  0.00    +0.000 HD
BRANCH  28  35
ATOM     30  C   UNL     1       8.584   5.912  12.753  0.00  0.00    +0.000 C 
ATOM     31  C   UNL     1       7.465   4.993  13.147  0.00  0.00    +0.000 A 
ATOM     32  C   UNL     1       6.645   4.389  12.194  0.00  0.00    +0.000 A 
ATOM     33  C   UNL     1       5.590   3.568  12.598  0.00  0.00    +0.000 A 
ATOM     34  C   UNL     1       5.346   3.344  13.958  0.00  0.00    +0.000 A 
ATOM     35  C   UNL     1       6.170   3.915  14.933  0.00  0.00    +0.000 A 
ATOM     36  C   UNL     1       7.216   4.752  14.505  0.00  0.00    +0.000 A 
ENDBRANCH  28  35
ENDBRANCH   1  28
TORSDOF 5
ENDMDL
MODEL 5
REMARK VINA RESULT:      -8.9      3.161      9.924
REMARK  Name = 
REMARK  8 active torsions:
REMARK  status: ('A' for Active; 'I' for Inactive)
REMARK    1  A    between atoms: C_1  and  C_2
REMARK    2  A    between atoms: C_6  and  N_7
REMARK    3  A    between atoms: N_7  and  C_8
REMARK    4  A    between atoms: C_11  and  C_12
REMARK    5  A    between atoms: C_15  and  C_16
REMARK    6  A    between atoms: C_17  and  S_18
REMARK    7  A    between atoms: S_18  and  N_21
REMARK    8  A    between atoms: N_24  and  C_25
REMARK                            x       y       z     vdW  Elec       q    Type
REMARK                         _______ _______ _______ _____ _____    ______ ____
ROOT
ATOM      1  C   UNL     1      -0.490  10.880  19.099  0.00  0.00    +0.000 A 
ATOM      2  N   UNL     1       0.067  10.472  17.946  0.00  0.00    +0.000 NA
ATOM      3  N   UNL     1       0.972   9.472  17.940  0.00  0.00    +0.000 NA
ATOM      4  C   UNL     1       1.394   8.882  19.085  0.00  0.00    +0.000 A 
ATOM      5  C   UNL     1       0.884   9.295  20.331  0.00  0.00    +0.000 A 
ATOM      6  C   UNL     1       1.341   8.819  21.586  0.00  0.00    +0.000 A 
ATOM      7  C   UNL     1       0.734   9.201  22.782  0.00  0.00    +0.000 A 
ATOM      8  C   UNL     1      -0.327  10.092  22.763  0.00  0.00    +0.000 A 
ATOM      9  C   UNL     1      -0.745  10.640  21.551  0.00  0.00    +0.000 A 
ATOM     10  C   UNL     1      -0.143  10.275  20.324  0.00  0.00    +0.000 A 
ENDROOT
BRANCH   4  11
ATOM     11  C   UNL     1       2.272   7.719  18.775  0.00  0.00    +0.000 A 
ATOM     12  C   UNL     1       2.167   6.589  19.603  0.00  0.00    +0.000 A 
ATOM     13  C   UNL     1       3.211   5.664  19.708  0.00  0.00    +0.000 A 
ATOM     14  C   UNL     1       4.349   5.796  18.917  0.00  0.00    +0.000 A 
ATOM     15  C   UNL     1       5.577   5.022  19.294  0.00  0.00    +0.000 C 
ATOM     16  C   UNL     1       4.341   6.761  17.898  0.00  0.00    +0.000 A 
ATOM     17  C   UNL     1       3.337   7.753  17.862  0.00  0.00    +0.000 A 
BRANCH  16  18
ATOM     18  S   UNL     1       5.538   6.678  16.562  0.00  0.00    +0.000 S 
ATOM     19  O   UNL     1       4.868   7.184  15.386  0.00  0.00    +0.000 OA
ATOM     20  O   UNL     1       6.761   7.294  17.040  0.00  0.00    +0.000 OA
BRANCH  18  21
ATOM     21  N   UNL     1       5.801   5.028  16.387  0.00  0.00    +0.000 NA
ATOM     22  C   UNL     1       7.169   4.576  16.083  0.00  0.00    +0.000 C 
ATOM     23  C   UNL     1       7.400   4.608  14.566  0.00  0.00    +0.000 C 
ATOM     24  N   UNL     1       6.483   3.728  13.822  0.00  0.00    +0.000 NA
ATOM     25  C   UNL     1       6.581   4.014  12.385  0.00  0.00    +0.000 C 
ATOM     26  C   UNL     1       5.075   3.835  14.258  0.00  0.00    +0.000 C 
ATOM     27  C   UNL     1       4.768   4.188  15.731  0.00  0.00    +0.000 C 
ENDBRANCH  18  21
ENDBRANCH  16  18
ENDBRANCH   4  11
BRANCH   1  28
ATOM     28  N   UNL     1      -1.418  11.947  19.040  0.00  0.00    +0.000 N 
ATOM     29  H   UNL     1      -1.260  12.576  19.819  0.00  0.00    +0.000 HD
BRANCH  28  35
ATOM     30  C   UNL     1      -6.183  12.574  20.274  0.00  0.00    +0.000 C 
ATOM     31  C   UNL     1      -5.155  12.035  19.324  0.00  0.00    +0.000 A 
ATOM     32  C   UNL     1      -5.514  11.272  18.214  0.00  0.00    +0.000 A 
ATOM     33  C   UNL     1      -4.528  10.756  17.370  0.00  0.00    +0.000 A 
ATOM     34  C   UNL     1      -3.175  10.998  17.629  0.00  0.00    +0.000 A 
ATOM     35  C   UNL     1      -2.788  11.784  18.720  0.00  0.00    +0.000 A 
ATOM     36  C   UNL     1      -3.796  12.279  19.566  0.00  0.00    +0.000 A 
ENDBRANCH  28  35
ENDBRANCH   1  28
TORSDOF 5
ENDMDL
MODEL 6
REMARK VINA RESULT:      -8.7      3.199      8.948
REMARK  Name = 
REMARK  8 active torsions:
REMARK  status: ('A' for Active; 'I' for Inactive)
REMARK    1  A    between atoms: C_1  and  C_2
REMARK    2  A    between atoms: C_6  and  N_7
REMARK    3  A    between atoms: N_7  and  C_8
REMARK    4  A    between atoms: C_11  and  C_12
REMARK    5  A    between atoms: C_15  and  C_16
REMARK    6  A    between atoms: C_17  and  S_18
REMARK    7  A    between atoms: S_18  and  N_21
REMARK    8  A    between atoms: N_24  and  C_25
REMARK                            x       y       z     vdW  Elec       q    Type
REMARK                         _______ _______ _______ _____ _____    ______ ____
ROOT
ATOM      1  C   UNL     1       1.245  10.757  18.487  0.00  0.00    +0.000 A 
ATOM      2  N   UNL     1       1.952  10.215  17.481  0.00  0.00    +0.000 NA
ATOM      3  N   UNL     1       2.354   8.928  17.544  0.00  0.00    +0.000 NA
ATOM      4  C   UNL     1       2.113   8.155  18.631  0.00  0.00    +0.000 A 
ATOM      5  C   UNL     1       1.419   8.677  19.738  0.00  0.00    +0.000 A 
ATOM      6  C   UNL     1       1.216   7.987  20.960  0.00  0.00    +0.000 A 
ATOM      7  C   UNL     1       0.442   8.525  21.988  0.00  0.00    +0.000 A 
ATOM      8  C   UNL     1      -0.128   9.779  21.838  0.00  0.00    +0.000 A 
ATOM      9  C   UNL     1       0.122  10.516  20.681  0.00  0.00    +0.000 A 
ATOM     10  C   UNL     1       0.909   9.997  19.626  0.00  0.00    +0.000 A 
ENDROOT
BRANCH   4  11
ATOM     11  C   UNL     1       2.531   6.749  18.369  0.00  0.00    +0.000 A 
ATOM     12  C   UNL     1       1.579   5.886  17.801  0.00  0.00    +0.000 A 
ATOM     13  C   UNL     1       1.683   4.497  17.937  0.00  0.00    +0.000 A 
ATOM     14  C   UNL     1       2.791   3.934  18.563  0.00  0.00    +0.000 A 
ATOM     15  C   UNL     1       2.713   2.504  19.007  0.00  0.00    +0.000 C 
ATOM     16  C   UNL     1       3.870   4.772  18.886  0.00  0.00    +0.000 A 
ATOM     17  C   UNL     1       3.721   6.176  18.843  0.00  0.00    +0.000 A 
BRANCH  16  18
ATOM     18  S   UNL     1       5.485   4.074  19.243  0.00  0.00    +0.000 S 
ATOM     19  O   UNL     1       6.199   5.074  20.005  0.00  0.00    +0.000 OA
ATOM     20  O   UNL     1       5.270   2.745  19.785  0.00  0.00    +0.000 OA
BRANCH  18  21
ATOM     21  N   UNL     1       6.183   3.927  17.722  0.00  0.00    +0.000 NA
ATOM     22  C   UNL     1       7.237   4.886  17.351  0.00  0.00    +0.000 C 
ATOM     23  C   UNL     1       6.601   6.152  16.758  0.00  0.00    +0.000 C 
ATOM     24  N   UNL     1       5.815   5.887  15.541  0.00  0.00    +0.000 NA
ATOM     25  C   UNL     1       5.028   7.078  15.195  0.00  0.00    +0.000 C 
ATOM     26  C   UNL     1       4.921   4.715  15.655  0.00  0.00    +0.000 C 
ATOM     27  C   UNL     1       5.339   3.537  16.566  0.00  0.00    +0.000 C 
ENDBRANCH  18  21
ENDBRANCH  16  18
ENDBRANCH   4  11
BRANCH   1  28
ATOM     28  N   UNL     1       0.871  12.116  18.370  0.00  0.00    +0.000 N 
ATOM     29  H   UNL     1       0.434  12.270  17.468  0.00  0.00    +0.000 HD
BRANCH  28  35
ATOM     30  C   UNL     1       5.100  14.678  17.950  0.00  0.00    +0.000 C 
ATOM     31  C   UNL     1       3.787  14.457  18.641  0.00  0.00    +0.000 A 
ATOM     32  C   UNL     1       3.414  15.202  19.759  0.00  0.00    +0.000 A 
ATOM     33  C   UNL     1       2.199  14.945  20.399  0.00  0.00    +0.000 A 
ATOM     34  C   UNL     1       1.347  13.941  19.926  0.00  0.00    +0.000 A 
ATOM     35  C   UNL     1       1.684  13.198  18.790  0.00  0.00    +0.000 A 
ATOM     36  C   UNL     1       2.919  13.461  18.171  0.00  0.00    +0.000 A 
ENDBRANCH  28  35
ENDBRANCH   1  28
TORSDOF 5
ENDMDL
MODEL 7
REMARK VINA RESULT:      -8.7      1.313      1.783
REMARK  Name = 
REMARK  8 active torsions:
REMARK  status: ('A' for Active; 'I' for Inactive)
REMARK    1  A    between atoms: C_1  and  C_2
REMARK    2  A    between atoms: C_6  and  N_7
REMARK    3  A    between atoms: N_7  and  C_8
REMARK    4  A    between atoms: C_11  and  C_12
REMARK    5  A    between atoms: C_15  and  C_16
REMARK    6  A    between atoms: C_17  and  S_18
REMARK    7  A    between atoms: S_18  and  N_21
REMARK    8  A    between atoms: N_24  and  C_25
REMARK                            x       y       z     vdW  Elec       q    Type
REMARK                         _______ _______ _______ _____ _____    ______ ____
ROOT
ATOM      1  C   UNL     1       3.915   4.825  17.965  0.00  0.00    +0.000 A 
ATOM      2  N   UNL     1       4.013   6.121  17.627  0.00  0.00    +0.000 NA
ATOM      3  N   UNL     1       3.289   7.055  18.279  0.00  0.00    +0.000 NA
ATOM      4  C   UNL     1       2.404   6.724  19.251  0.00  0.00    +0.000 A 
ATOM      5  C   UNL     1       2.219   5.378  19.620  0.00  0.00    +0.000 A 
ATOM      6  C   UNL     1       1.243   4.922  20.542  0.00  0.00    +0.000 A 
ATOM      7  C   UNL     1       1.169   3.586  20.934  0.00  0.00    +0.000 A 
ATOM      8  C   UNL     1       2.049   2.660  20.395  0.00  0.00    +0.000 A 
ATOM      9  C   UNL     1       2.965   3.063  19.425  0.00  0.00    +0.000 A 
ATOM     10  C   UNL     1       3.057   4.411  19.005  0.00  0.00    +0.000 A 
ENDROOT
BRANCH   4  11
ATOM     11  C   UNL     1       1.861   7.952  19.896  0.00  0.00    +0.000 A 
ATOM     12  C   UNL     1       2.059   8.098  21.279  0.00  0.00    +0.000 A 
ATOM     13  C   UNL     1       1.233   8.924  22.050  0.00  0.00    +0.000 A 
ATOM     14  C   UNL     1       0.248   9.697  21.441  0.00  0.00    +0.000 A 
ATOM     15  C   UNL     1      -0.832  10.284  22.298  0.00  0.00    +0.000 C 
ATOM     16  C   UNL     1       0.228   9.763  20.039  0.00  0.00    +0.000 A 
ATOM     17  C   UNL     1       0.988   8.855  19.270  0.00  0.00    +0.000 A 
BRANCH  16  18
ATOM     18  S   UNL     1      -0.673  11.075  19.206  0.00  0.00    +0.000 S 
ATOM     19  O   UNL     1      -1.086  10.536  17.930  0.00  0.00    +0.000 OA
ATOM     20  O   UNL     1      -1.653  11.588  20.146  0.00  0.00    +0.000 OA
BRANCH  18  21
ATOM     21  N   UNL     1       0.503  12.249  18.962  0.00  0.00    +0.000 NA
ATOM     22  C   UNL     1       1.543  12.409  19.991  0.00  0.00    +0.000 C 
ATOM     23  C   UNL     1       1.047  13.365  21.085  0.00  0.00    +0.000 C 
ATOM     24  N   UNL     1       0.736  14.712  20.578  0.00  0.00    +0.000 NA
ATOM     25  C   UNL     1       0.021  15.475  21.610  0.00  0.00    +0.000 C 
ATOM     26  C   UNL     1      -0.051  14.708  19.327  0.00  0.00    +0.000 C 
ATOM     27  C   UNL     1       0.127  13.539  18.331  0.00  0.00    +0.000 C 
ENDBRANCH  18  21
ENDBRANCH  16  18
ENDBRANCH   4  11
BRANCH   1  28
ATOM     28  N   UNL     1       4.685   3.893  17.230  0.00  0.00    +0.000 N 
ATOM     29  H   UNL     1       5.150   3.259  17.870  0.00  0.00    +0.000 HD
BRANCH  28  35
ATOM     30  C   UNL     1       5.624   3.434  12.379  0.00  0.00    +0.000 C 
ATOM     31  C   UNL     1       5.999   3.993  13.720  0.00  0.00    +0.000 A 
ATOM     32  C   UNL     1       7.171   4.725  13.906  0.00  0.00    +0.000 A 
ATOM     33  C   UNL     1       7.506   5.200  15.176  0.00  0.00    +0.000 A 
ATOM     34  C   UNL     1       6.673   4.945  16.271  0.00  0.00    +0.000 A 
ATOM     35  C   UNL     1       5.479   4.237  16.107  0.00  0.00    +0.000 A 
ATOM     36  C   UNL     1       5.168   3.754  14.823  0.00  0.00    +0.000 A 
ENDBRANCH  28  35
ENDBRANCH   1  28
TORSDOF 5
ENDMDL
MODEL 8
REMARK VINA RESULT:      -8.7      0.985      1.339
REMARK  Name = 
REMARK  8 active torsions:
REMARK  status: ('A' for Active; 'I' for Inactive)
REMARK    1  A    between atoms: C_1  and  C_2
REMARK    2  A    between atoms: C_6  and  N_7
REMARK    3  A    between atoms: N_7  and  C_8
REMARK    4  A    between atoms: C_11  and  C_12
REMARK    5  A    between atoms: C_15  and  C_16
REMARK    6  A    between atoms: C_17  and  S_18
REMARK    7  A    between atoms: S_18  and  N_21
REMARK    8  A    between atoms: N_24  and  C_25
REMARK                            x       y       z     vdW  Elec       q    Type
REMARK                         _______ _______ _______ _____ _____    ______ ____
ROOT
ATOM      1  C   UNL     1       4.958   4.991  16.924  0.00  0.00    +0.000 A 
ATOM      2  N   UNL     1       5.179   6.308  17.072  0.00  0.00    +0.000 NA
ATOM      3  N   UNL     1       4.279   7.084  17.711  0.00  0.00    +0.000 NA
ATOM      4  C   UNL     1       3.107   6.587  18.175  0.00  0.00    +0.000 A 
ATOM      5  C   UNL     1       2.794   5.224  18.010  0.00  0.00    +0.000 A 
ATOM      6  C   UNL     1       1.552   4.634  18.359  0.00  0.00    +0.000 A 
ATOM      7  C   UNL     1       1.336   3.261  18.253  0.00  0.00    +0.000 A 
ATOM      8  C   UNL     1       2.341   2.439  17.768  0.00  0.00    +0.000 A 
ATOM      9  C   UNL     1       3.544   3.001  17.340  0.00  0.00    +0.000 A 
ATOM     10  C   UNL     1       3.787   4.392  17.430  0.00  0.00    +0.000 A 
ENDROOT
BRANCH   4  11
ATOM     11  C   UNL     1       2.381   7.622  18.962  0.00  0.00    +0.000 A 
ATOM     12  C   UNL     1       2.510   7.581  20.361  0.00  0.00    +0.000 A 
ATOM     13  C   UNL     1       1.554   8.168  21.198  0.00  0.00    +0.000 A 
ATOM     14  C   UNL     1       0.495   8.891  20.656  0.00  0.00    +0.000 A 
ATOM     15  C   UNL     1      -0.684   9.197  21.530  0.00  0.00    +0.000 C 
ATOM     16  C   UNL     1       0.514   9.166  19.280  0.00  0.00    +0.000 A 
ATOM     17  C   UNL     1       1.415   8.490  18.428  0.00  0.00    +0.000 A 
BRANCH  16  18
ATOM     18  S   UNL     1      -0.527  10.462  18.600  0.00  0.00    +0.000 S 
ATOM     19  O   UNL     1      -0.866  10.047  17.257  0.00  0.00    +0.000 OA
ATOM     20  O   UNL     1      -1.566  10.735  19.575  0.00  0.00    +0.000 OA
BRANCH  18  21
ATOM     21  N   UNL     1       0.506  11.785  18.532  0.00  0.00    +0.000 NA
ATOM     22  C   UNL     1       1.612  11.847  19.501  0.00  0.00    +0.000 C 
ATOM     23  C   UNL     1       1.124  12.500  20.802  0.00  0.00    +0.000 C 
ATOM     24  N   UNL     1       0.644  13.879  20.612  0.00  0.00    +0.000 NA
ATOM     25  C   UNL     1      -0.047  14.333  21.825  0.00  0.00    +0.000 C 
ATOM     26  C   UNL     1      -0.244  14.041  19.442  0.00  0.00    +0.000 C 
ATOM     27  C   UNL     1      -0.043  13.126  18.212  0.00  0.00    +0.000 C 
ENDBRANCH  18  21
ENDBRANCH  16  18
ENDBRANCH   4  11
BRANCH   1  28
ATOM     28  N   UNL     1       5.931   4.236  16.227  0.00  0.00    +0.000 N 
ATOM     29  H   UNL     1       6.778   4.182  16.781  0.00  0.00    +0.000 HD
BRANCH  28  35
ATOM     30  C   UNL     1       4.759   2.991  11.569  0.00  0.00    +0.000 C 
ATOM     31  C   UNL     1       5.655   3.723  12.524  0.00  0.00    +0.000 A 
ATOM     32  C   UNL     1       6.790   4.405  12.085  0.00  0.00    +0.000 A 
ATOM     33  C   UNL     1       7.621   5.045  13.007  0.00  0.00    +0.000 A 
ATOM     34  C   UNL     1       7.326   5.010  14.374  0.00  0.00    +0.000 A 
ATOM     35  C   UNL     1       6.179   4.357  14.837  0.00  0.00    +0.000 A 
ATOM     36  C   UNL     1       5.364   3.704  13.895  0.00  0.00    +0.000 A 
ENDBRANCH  28  35
ENDBRANCH   1  28
TORSDOF 5
ENDMDL
MODEL 9
REMARK VINA RESULT:      -8.7      3.802     10.882
REMARK  Name = 
REMARK  8 active torsions:
REMARK  status: ('A' for Active; 'I' for Inactive)
REMARK    1  A    between atoms: C_1  and  C_2
REMARK    2  A    between atoms: C_6  and  N_7
REMARK    3  A    between atoms: N_7  and  C_8
REMARK    4  A    between atoms: C_11  and  C_12
REMARK    5  A    between atoms: C_15  and  C_16
REMARK    6  A    between atoms: C_17  and  S_18
REMARK    7  A    between atoms: S_18  and  N_21
REMARK    8  A    between atoms: N_24  and  C_25
REMARK                            x       y       z     vdW  Elec       q    Type
REMARK                         _______ _______ _______ _____ _____    ______ ____
ROOT
ATOM      1  C   UNL     1      -2.509  12.289  19.594  0.00  0.00    +0.000 A 
ATOM      2  N   UNL     1      -1.480  12.162  20.449  0.00  0.00    +0.000 NA
ATOM      3  N   UNL     1      -0.493  11.275  20.203  0.00  0.00    +0.000 NA
ATOM      4  C   UNL     1      -0.525  10.448  19.130  0.00  0.00    +0.000 A 
ATOM      5  C   UNL     1      -1.599  10.499  18.222  0.00  0.00    +0.000 A 
ATOM      6  C   UNL     1      -1.779   9.604  17.136  0.00  0.00    +0.000 A 
ATOM      7  C   UNL     1      -2.817   9.761  16.218  0.00  0.00    +0.000 A 
ATOM      8  C   UNL     1      -3.724  10.798  16.373  0.00  0.00    +0.000 A 
ATOM      9  C   UNL     1      -3.621  11.644  17.477  0.00  0.00    +0.000 A 
ATOM     10  C   UNL     1      -2.582  11.502  18.427  0.00  0.00    +0.000 A 
ENDROOT
BRANCH   4  11
ATOM     11  C   UNL     1       0.752   9.688  19.024  0.00  0.00    +0.000 A 
ATOM     12  C   UNL     1       1.743  10.202  18.172  0.00  0.00    +0.000 A 
ATOM     13  C   UNL     1       2.746   9.381  17.644  0.00  0.00    +0.000 A 
ATOM     14  C   UNL     1       2.838   8.047  18.030  0.00  0.00    +0.000 A 
ATOM     15  C   UNL     1       3.674   7.118  17.203  0.00  0.00    +0.000 C 
ATOM     16  C   UNL     1       2.024   7.603  19.084  0.00  0.00    +0.000 A 
ATOM     17  C   UNL     1       0.949   8.397  19.540  0.00  0.00    +0.000 A 
BRANCH  16  18
ATOM     18  S   UNL     1       2.407   6.074  19.944  0.00  0.00    +0.000 S 
ATOM     19  O   UNL     1       3.801   5.798  19.678  0.00  0.00    +0.000 OA
ATOM     20  O   UNL     1       1.927   6.214  21.306  0.00  0.00    +0.000 OA
BRANCH  18  21
ATOM     21  N   UNL     1       1.453   4.941  19.152  0.00  0.00    +0.000 NA
ATOM     22  C   UNL     1       1.010   3.760  19.911  0.00  0.00    +0.000 C 
ATOM     23  C   UNL     1       2.085   2.665  19.839  0.00  0.00    +0.000 C 
ATOM     24  N   UNL     1       2.357   2.213  18.464  0.00  0.00    +0.000 NA
ATOM     25  C   UNL     1       3.566   1.378  18.450  0.00  0.00    +0.000 C 
ATOM     26  C   UNL     1       2.504   3.318  17.494  0.00  0.00    +0.000 C 
ATOM     27  C   UNL     1       1.719   4.630  17.725  0.00  0.00    +0.000 C 
ENDBRANCH  18  21
ENDBRANCH  16  18
ENDBRANCH   4  11
BRANCH   1  28
ATOM     28  N   UNL     1      -3.521  13.223  19.919  0.00  0.00    +0.000 N 
ATOM     29  H   UNL     1      -3.146  14.163  19.861  0.00  0.00    +0.000 HD
BRANCH  28  35
ATOM     30  C   UNL     1      -4.350  12.580  24.769  0.00  0.00    +0.000 C 
ATOM     31  C   UNL     1      -4.882  12.684  23.370  0.00  0.00    +0.000 A 
ATOM     32  C   UNL     1      -6.233  12.487  23.085  0.00  0.00    +0.000 A 
ATOM     33  C   UNL     1      -6.687  12.556  21.766  0.00  0.00    +0.000 A 
ATOM     34  C   UNL     1      -5.796  12.822  20.721  0.00  0.00    +0.000 A 
ATOM     35  C   UNL     1      -4.441  13.052  20.983  0.00  0.00    +0.000 A 
ATOM     36  C   UNL     1      -4.001  12.961  22.316  0.00  0.00    +0.000 A 
ENDBRANCH  28  35
ENDBRANCH   1  28
TORSDOF 5
ENDMDL
