MODEL 1
REMARK VINA RESULT:      -8.6      0.000      0.000
REMARK  Name = 
REMARK  4 active torsions:
REMARK  status: ('A' for Active; 'I' for Inactive)
REMARK    1  A    between atoms: C_4  and  C_5
REMARK    2  A    between atoms: C_8  and  O_9
REMARK    3  A    between atoms: O_9  and  C_10
REMARK    4  A    between atoms: C_16  and  C_17
REMARK                            x       y       z     vdW  Elec       q    Type
REMARK                         _______ _______ _______ _____ _____    ______ ____
ROOT
ATOM      1  C   UNL     1       1.978   4.767  20.098  0.00  0.00    +0.000 A 
ATOM      2  C   UNL     1       0.943   3.882  20.384  0.00  0.00    +0.000 A 
ATOM      3  N   UNL     1       0.653   2.781  19.660  0.00  0.00    +0.000 NA
ATOM      4  C   UNL     1       1.430   2.478  18.598  0.00  0.00    +0.000 A 
ATOM      5  C   UNL     1       2.533   3.277  18.287  0.00  0.00    +0.000 A 
ATOM      6  S   UNL     1       3.657   3.037  17.006  0.00  0.00    +0.000 S 
ATOM      7  C   UNL     1       4.586   4.387  17.462  0.00  0.00    +0.000 A 
ATOM      8  C   UNL     1       4.046   5.039  18.547  0.00  0.00    +0.000 A 
ATOM      9  C   UNL     1       2.840   4.416  19.033  0.00  0.00    +0.000 A 
ENDROOT
BRANCH   7  10
ATOM     10  C   UNL     1       5.835   4.800  16.758  0.00  0.00    +0.000 A 
ATOM     11  N   UNL     1       6.439   6.022  16.940  0.00  0.00    +0.000 NA
ATOM     12  N   UNL     1       7.507   6.039  16.156  0.00  0.00    +0.000 NA
ATOM     13  N   UNL     1       7.491   4.852  15.541  0.00  0.00    +0.000 N 
ATOM     14  N   UNL     1       6.486   4.027  15.873  0.00  0.00    +0.000 NA
ATOM     15  H   UNL     1       8.200   4.598  14.858  0.00  0.00    +0.000 HD
ENDBRANCH   7  10
BRANCH   1  16
ATOM     16  O   UNL     1       2.244   5.899  20.838  0.00  0.00    +0.000 OA
BRANCH  16  20
ATOM     17  C   UNL     1       0.959   9.691  19.529  0.00  0.00    +0.000 A 
ATOM     18  C   UNL     1       0.673   9.189  20.812  0.00  0.00    +0.000 A 
ATOM     19  C   UNL     1       1.123   7.927  21.221  0.00  0.00    +0.000 A 
ATOM     20  C   UNL     1       1.856   7.126  20.350  0.00  0.00    +0.000 A 
ATOM     21  C   UNL     1       2.195   7.617  19.091  0.00  0.00    +0.000 A 
ATOM     22  C   UNL     1       1.737   8.878  18.683  0.00  0.00    +0.000 A 
BRANCH  17  26
ATOM     23  C   UNL     1      -0.452  13.562  18.238  0.00  0.00    +0.000 A 
ATOM     24  C   UNL     1       0.887  13.379  18.568  0.00  0.00    +0.000 A 
ATOM     25  C   UNL     1       1.342  12.122  18.982  0.00  0.00    +0.000 A 
ATOM     26  C   UNL     1       0.473  11.022  19.090  0.00  0.00    +0.000 A 
ATOM     27  C   UNL     1      -0.878  11.240  18.758  0.00  0.00    +0.000 A 
ATOM     28  C   UNL     1      -1.335  12.491  18.331  0.00  0.00    +0.000 A 
ENDBRANCH  17  26
ENDBRANCH  16  20
ENDBRANCH   1  16
TORSDOF 4
ENDMDL
MODEL 2
REMARK VINA RESULT:      -8.6      0.535      1.097
REMARK  Name = 
REMARK  4 active torsions:
REMARK  status: ('A' for Active; 'I' for Inactive)
REMARK    1  A    between atoms: C_4  and  C_5
REMARK    2  A    between atoms: C_8  and  O_9
REMARK    3  A    between atoms: O_9  and  C_10
REMARK    4  A    between atoms: C_16  and  C_17
REMARK                            x       y       z     vdW  Elec       q    Type
REMARK                         _______ _______ _______ _____ _____    ______ ____
ROOT
ATOM      1  C   UNL     1       2.092   4.821  19.998  0.00  0.00    +0.000 A 
ATOM      2  C   UNL     1       0.999   4.023  20.324  0.00  0.00    +0.000 A 
ATOM      3  N   UNL     1       0.601   2.942  19.622  0.00  0.00    +0.000 NA
ATOM      4  C   UNL     1       1.320   2.569  18.541  0.00  0.00    +0.000 A 
ATOM      5  C   UNL     1       2.472   3.275  18.189  0.00  0.00    +0.000 A 
ATOM      6  S   UNL     1       3.535   2.934  16.878  0.00  0.00    +0.000 S 
ATOM      7  C   UNL     1       4.581   4.210  17.290  0.00  0.00    +0.000 A 
ATOM      8  C   UNL     1       4.127   4.913  18.384  0.00  0.00    +0.000 A 
ATOM      9  C   UNL     1       2.891   4.393  18.912  0.00  0.00    +0.000 A 
ENDROOT
BRANCH   7  10
ATOM     10  C   UNL     1       5.837   4.516  16.545  0.00  0.00    +0.000 A 
ATOM     11  N   UNL     1       5.856   5.003  15.260  0.00  0.00    +0.000 NA
ATOM     12  N   UNL     1       7.131   5.145  14.926  0.00  0.00    +0.000 NA
ATOM     13  N   UNL     1       7.808   4.734  16.003  0.00  0.00    +0.000 N 
ATOM     14  N   UNL     1       7.069   4.338  17.051  0.00  0.00    +0.000 NA
ATOM     15  H   UNL     1       8.825   4.721  16.018  0.00  0.00    +0.000 HD
ENDBRANCH   7  10
BRANCH   1  16
ATOM     16  O   UNL     1       2.469   5.935  20.716  0.00  0.00    +0.000 OA
BRANCH  16  20
ATOM     17  C   UNL     1       0.945   9.668  19.499  0.00  0.00    +0.000 A 
ATOM     18  C   UNL     1       1.747   8.864  18.669  0.00  0.00    +0.000 A 
ATOM     19  C   UNL     1       2.232   7.623  19.100  0.00  0.00    +0.000 A 
ATOM     20  C   UNL     1       1.940   7.160  20.380  0.00  0.00    +0.000 A 
ATOM     21  C   UNL     1       1.108   7.913  21.206  0.00  0.00    +0.000 A 
ATOM     22  C   UNL     1       0.630   9.158  20.773  0.00  0.00    +0.000 A 
BRANCH  17  26
ATOM     23  C   UNL     1      -0.517  13.511  18.181  0.00  0.00    +0.000 A 
ATOM     24  C   UNL     1       0.788  13.380  18.645  0.00  0.00    +0.000 A 
ATOM     25  C   UNL     1       1.260  12.133  19.067  0.00  0.00    +0.000 A 
ATOM     26  C   UNL     1       0.441  10.989  19.050  0.00  0.00    +0.000 A 
ATOM     27  C   UNL     1      -0.877  11.155  18.583  0.00  0.00    +0.000 A 
ATOM     28  C   UNL     1      -1.349  12.398  18.147  0.00  0.00    +0.000 A 
ENDBRANCH  17  26
ENDBRANCH  16  20
ENDBRANCH   1  16
TORSDOF 4
ENDMDL
MODEL 3
REMARK VINA RESULT:      -8.4      1.731      2.585
REMARK  Name = 
REMARK  4 active torsions:
REMARK  status: ('A' for Active; 'I' for Inactive)
REMARK    1  A    between atoms: C_4  and  C_5
REMARK    2  A    between atoms: C_8  and  O_9
REMARK    3  A    between atoms: O_9  and  C_10
REMARK    4  A    between atoms: C_16  and  C_17
REMARK                            x       y       z     vdW  Elec       q    Type
REMARK                         _______ _______ _______ _____ _____    ______ ____
ROOT
ATOM      1  C   UNL     1       2.580   6.780  19.301  0.00  0.00    +0.000 A 
ATOM      2  C   UNL     1       1.828   6.170  20.301  0.00  0.00    +0.000 A 
ATOM      3  N   UNL     1       1.731   4.836  20.483  0.00  0.00    +0.000 NA
ATOM      4  C   UNL     1       2.432   4.017  19.670  0.00  0.00    +0.000 A 
ATOM      5  C   UNL     1       3.267   4.553  18.687  0.00  0.00    +0.000 A 
ATOM      6  S   UNL     1       4.263   3.681  17.586  0.00  0.00    +0.000 S 
ATOM      7  C   UNL     1       4.885   5.106  16.897  0.00  0.00    +0.000 A 
ATOM      8  C   UNL     1       4.332   6.233  17.460  0.00  0.00    +0.000 A 
ATOM      9  C   UNL     1       3.374   5.931  18.495  0.00  0.00    +0.000 A 
ENDROOT
BRANCH   7  10
ATOM     10  C   UNL     1       5.910   5.114  15.812  0.00  0.00    +0.000 A 
ATOM     11  N   UNL     1       5.753   4.454  14.616  0.00  0.00    +0.000 NA
ATOM     12  N   UNL     1       6.853   4.676  13.912  0.00  0.00    +0.000 NA
ATOM     13  N   UNL     1       7.613   5.437  14.707  0.00  0.00    +0.000 N 
ATOM     14  N   UNL     1       7.087   5.756  15.899  0.00  0.00    +0.000 NA
ATOM     15  H   UNL     1       8.538   5.748  14.419  0.00  0.00    +0.000 HD
ENDBRANCH   7  10
BRANCH   1  16
ATOM     16  O   UNL     1       2.648   8.144  19.118  0.00  0.00    +0.000 OA
BRANCH  16  20
ATOM     17  C   UNL     1      -0.924  10.375  19.083  0.00  0.00    +0.000 A 
ATOM     18  C   UNL     1      -0.247  10.036  20.269  0.00  0.00    +0.000 A 
ATOM     19  C   UNL     1       0.944   9.301  20.247  0.00  0.00    +0.000 A 
ATOM     20  C   UNL     1       1.481   8.869  19.037  0.00  0.00    +0.000 A 
ATOM     21  C   UNL     1       0.859   9.232  17.845  0.00  0.00    +0.000 A 
ATOM     22  C   UNL     1      -0.338   9.963  17.872  0.00  0.00    +0.000 A 
BRANCH  17  26
ATOM     23  C   UNL     1      -4.622  12.602  19.152  0.00  0.00    +0.000 A 
ATOM     24  C   UNL     1      -4.389  11.664  18.152  0.00  0.00    +0.000 A 
ATOM     25  C   UNL     1      -3.191  10.940  18.135  0.00  0.00    +0.000 A 
ATOM     26  C   UNL     1      -2.193  11.143  19.105  0.00  0.00    +0.000 A 
ATOM     27  C   UNL     1      -2.454  12.106  20.099  0.00  0.00    +0.000 A 
ATOM     28  C   UNL     1      -3.656  12.822  20.127  0.00  0.00    +0.000 A 
ENDBRANCH  17  26
ENDBRANCH  16  20
ENDBRANCH   1  16
TORSDOF 4
ENDMDL
MODEL 4
REMARK VINA RESULT:      -8.4      0.389      1.148
REMARK  Name = 
REMARK  4 active torsions:
REMARK  status: ('A' for Active; 'I' for Inactive)
REMARK    1  A    between atoms: C_4  and  C_5
REMARK    2  A    between atoms: C_8  and  O_9
REMARK    3  A    between atoms: O_9  and  C_10
REMARK    4  A    between atoms: C_16  and  C_17
REMARK                            x       y       z     vdW  Elec       q    Type
REMARK                         _______ _______ _______ _____ _____    ______ ____
ROOT
ATOM      1  C   UNL     1       1.955   4.947  20.057  0.00  0.00    +0.000 A 
ATOM      2  C   UNL     1       0.899   4.092  20.359  0.00  0.00    +0.000 A 
ATOM      3  N   UNL     1       0.560   3.005  19.634  0.00  0.00    +0.000 NA
ATOM      4  C   UNL     1       1.305   2.686  18.554  0.00  0.00    +0.000 A 
ATOM      5  C   UNL     1       2.426   3.452  18.226  0.00  0.00    +0.000 A 
ATOM      6  S   UNL     1       3.516   3.185  16.920  0.00  0.00    +0.000 S 
ATOM      7  C   UNL     1       4.496   4.502  17.365  0.00  0.00    +0.000 A 
ATOM      8  C   UNL     1       3.999   5.163  18.466  0.00  0.00    +0.000 A 
ATOM      9  C   UNL     1       2.784   4.576  18.972  0.00  0.00    +0.000 A 
ENDROOT
BRANCH   7  10
ATOM     10  C   UNL     1       5.743   4.881  16.638  0.00  0.00    +0.000 A 
ATOM     11  N   UNL     1       6.815   4.035  16.482  0.00  0.00    +0.000 NA
ATOM     12  N   UNL     1       7.733   4.705  15.800  0.00  0.00    +0.000 NA
ATOM     13  N   UNL     1       7.184   5.907  15.591  0.00  0.00    +0.000 N 
ATOM     14  N   UNL     1       5.945   6.084  16.076  0.00  0.00    +0.000 NA
ATOM     15  H   UNL     1       7.685   6.640  15.096  0.00  0.00    +0.000 HD
ENDBRANCH   7  10
BRANCH   1  16
ATOM     16  O   UNL     1       2.272   6.065  20.797  0.00  0.00    +0.000 OA
BRANCH  16  20
ATOM     17  C   UNL     1       0.960   9.890  19.619  0.00  0.00    +0.000 A 
ATOM     18  C   UNL     1       0.774   9.386  20.919  0.00  0.00    +0.000 A 
ATOM     19  C   UNL     1       1.230   8.113  21.283  0.00  0.00    +0.000 A 
ATOM     20  C   UNL     1       1.870   7.303  20.349  0.00  0.00    +0.000 A 
ATOM     21  C   UNL     1       2.111   7.794  19.068  0.00  0.00    +0.000 A 
ATOM     22  C   UNL     1       1.647   9.067  18.707  0.00  0.00    +0.000 A 
BRANCH  17  26
ATOM     23  C   UNL     1      -0.482  13.800  18.489  0.00  0.00    +0.000 A 
ATOM     24  C   UNL     1      -1.205  12.662  18.148  0.00  0.00    +0.000 A 
ATOM     25  C   UNL     1      -0.738  11.396  18.520  0.00  0.00    +0.000 A 
ATOM     26  C   UNL     1       0.467  11.233  19.227  0.00  0.00    +0.000 A 
ATOM     27  C   UNL     1       1.181  12.403  19.551  0.00  0.00    +0.000 A 
ATOM     28  C   UNL     1       0.711  13.671  19.193  0.00  0.00    +0.000 A 
ENDBRANCH  17  26
ENDBRANCH  16  20
ENDBRANCH   1  16
TORSDOF 4
ENDMDL
MODEL 5
REMARK VINA RESULT:      -8.4      5.083      8.596
REMARK  Name = 
REMARK  4 active torsions:
REMARK  status: ('A' for Active; 'I' for Inactive)
REMARK    1  A    between atoms: C_4  and  C_5
REMARK    2  A    between atoms: C_8  and  O_9
REMARK    3  A    between atoms: O_9  and  C_10
REMARK    4  A    between atoms: C_16  and  C_17
REMARK                            x       y       z     vdW  Elec       q    Type
REMARK                         _______ _______ _______ _____ _____    ______ ____
ROOT
ATOM      1  C   UNL     1       0.687   9.808  20.291  0.00  0.00    +0.000 A 
ATOM      2  C   UNL     1       1.392  10.550  21.234  0.00  0.00    +0.000 A 
ATOM      3  N   UNL     1       1.372  11.897  21.322  0.00  0.00    +0.000 NA
ATOM      4  C   UNL     1       0.593  12.592  20.465  0.00  0.00    +0.000 A 
ATOM      5  C   UNL     1      -0.201  11.917  19.536  0.00  0.00    +0.000 A 
ATOM      6  S   UNL     1      -1.281  12.619  18.393  0.00  0.00    +0.000 S 
ATOM      7  C   UNL     1      -1.781  11.100  17.815  0.00  0.00    +0.000 A 
ATOM      8  C   UNL     1      -1.125  10.068  18.446  0.00  0.00    +0.000 A 
ATOM      9  C   UNL     1      -0.187  10.525  19.441  0.00  0.00    +0.000 A 
ENDROOT
BRANCH   7  10
ATOM     10  C   UNL     1      -2.812  10.926  16.749  0.00  0.00    +0.000 A 
ATOM     11  N   UNL     1      -2.544  10.376  15.518  0.00  0.00    +0.000 NA
ATOM     12  N   UNL     1      -3.682  10.389  14.840  0.00  0.00    +0.000 NA
ATOM     13  N   UNL     1      -4.565  10.945  15.676  0.00  0.00    +0.000 N 
ATOM     14  N   UNL     1      -4.097  11.295  16.884  0.00  0.00    +0.000 NA
ATOM     15  H   UNL     1      -5.533  11.096  15.403  0.00  0.00    +0.000 HD
ENDBRANCH   7  10
BRANCH   1  16
ATOM     16  O   UNL     1       0.738   8.434  20.204  0.00  0.00    +0.000 OA
BRANCH  16  20
ATOM     17  C   UNL     1       3.870   6.473  18.183  0.00  0.00    +0.000 A 
ATOM     18  C   UNL     1       3.291   5.971  19.362  0.00  0.00    +0.000 A 
ATOM     19  C   UNL     1       2.243   6.642  20.006  0.00  0.00    +0.000 A 
ATOM     20  C   UNL     1       1.760   7.844  19.496  0.00  0.00    +0.000 A 
ATOM     21  C   UNL     1       2.282   8.340  18.304  0.00  0.00    +0.000 A 
ATOM     22  C   UNL     1       3.335   7.668  17.666  0.00  0.00    +0.000 A 
BRANCH  17  26
ATOM     23  C   UNL     1       7.120   4.419  16.217  0.00  0.00    +0.000 A 
ATOM     24  C   UNL     1       7.267   4.872  17.524  0.00  0.00    +0.000 A 
ATOM     25  C   UNL     1       6.210   5.534  18.160  0.00  0.00    +0.000 A 
ATOM     26  C   UNL     1       4.988   5.771  17.506  0.00  0.00    +0.000 A 
ATOM     27  C   UNL     1       4.872   5.308  16.181  0.00  0.00    +0.000 A 
ATOM     28  C   UNL     1       5.921   4.635  15.546  0.00  0.00    +0.000 A 
ENDBRANCH  17  26
ENDBRANCH  16  20
ENDBRANCH   1  16
TORSDOF 4
ENDMDL
MODEL 6
REMARK VINA RESULT:      -8.4      2.068      2.468
REMARK  Name = 
REMARK  4 active torsions:
REMARK  status: ('A' for Active; 'I' for Inactive)
REMARK    1  A    between atoms: C_4  and  C_5
REMARK    2  A    between atoms: C_8  and  O_9
REMARK    3  A    between atoms: O_9  and  C_10
REMARK    4  A    between atoms: C_16  and  C_17
REMARK                            x       y       z     vdW  Elec       q    Type
REMARK                         _______ _______ _______ _____ _____    ______ ____
ROOT
ATOM      1  C   UNL     1       2.213   6.211  19.896  0.00  0.00    +0.000 A 
ATOM      2  C   UNL     1       1.208   5.510  20.554  0.00  0.00    +0.000 A 
ATOM      3  N   UNL     1       0.794   4.269  20.223  0.00  0.00    +0.000 NA
ATOM      4  C   UNL     1       1.409   3.629  19.205  0.00  0.00    +0.000 A 
ATOM      5  C   UNL     1       2.476   4.236  18.540  0.00  0.00    +0.000 A 
ATOM      6  S   UNL     1       3.406   3.571  17.252  0.00  0.00    +0.000 S 
ATOM      7  C   UNL     1       4.421   4.934  17.176  0.00  0.00    +0.000 A 
ATOM      8  C   UNL     1       4.052   5.900  18.085  0.00  0.00    +0.000 A 
ATOM      9  C   UNL     1       2.911   5.518  18.878  0.00  0.00    +0.000 A 
ENDROOT
BRANCH   7  10
ATOM     10  C   UNL     1       5.570   5.051  16.231  0.00  0.00    +0.000 A 
ATOM     11  N   UNL     1       6.758   4.381  16.397  0.00  0.00    +0.000 NA
ATOM     12  N   UNL     1       7.537   4.730  15.383  0.00  0.00    +0.000 NA
ATOM     13  N   UNL     1       6.797   5.587  14.672  0.00  0.00    +0.000 N 
ATOM     14  N   UNL     1       5.561   5.827  15.135  0.00  0.00    +0.000 NA
ATOM     15  H   UNL     1       7.160   6.031  13.832  0.00  0.00    +0.000 HD
ENDBRANCH   7  10
BRANCH   1  16
ATOM     16  O   UNL     1       2.606   7.488  20.235  0.00  0.00    +0.000 OA
BRANCH  16  20
ATOM     17  C   UNL     1      -0.309  10.354  21.249  0.00  0.00    +0.000 A 
ATOM     18  C   UNL     1       0.391   9.603  22.211  0.00  0.00    +0.000 A 
ATOM     19  C   UNL     1       1.362   8.664  21.843  0.00  0.00    +0.000 A 
ATOM     20  C   UNL     1       1.646   8.437  20.498  0.00  0.00    +0.000 A 
ATOM     21  C   UNL     1       1.003   9.200  19.526  0.00  0.00    +0.000 A 
ATOM     22  C   UNL     1       0.027  10.135  19.900  0.00  0.00    +0.000 A 
BRANCH  17  26
ATOM     23  C   UNL     1      -3.337  13.218  22.375  0.00  0.00    +0.000 A 
ATOM     24  C   UNL     1      -2.950  13.096  21.045  0.00  0.00    +0.000 A 
ATOM     25  C   UNL     1      -1.971  12.163  20.682  0.00  0.00    +0.000 A 
ATOM     26  C   UNL     1      -1.346  11.340  21.637  0.00  0.00    +0.000 A 
ATOM     27  C   UNL     1      -1.753  11.494  22.976  0.00  0.00    +0.000 A 
ATOM     28  C   UNL     1      -2.740  12.415  23.342  0.00  0.00    +0.000 A 
ENDBRANCH  17  26
ENDBRANCH  16  20
ENDBRANCH   1  16
TORSDOF 4
ENDMDL
MODEL 7
REMARK VINA RESULT:      -8.4      1.997      2.336
REMARK  Name = 
REMARK  4 active torsions:
REMARK  status: ('A' for Active; 'I' for Inactive)
REMARK    1  A    between atoms: C_4  and  C_5
REMARK    2  A    between atoms: C_8  and  O_9
REMARK    3  A    between atoms: O_9  and  C_10
REMARK    4  A    between atoms: C_16  and  C_17
REMARK                            x       y       z     vdW  Elec       q    Type
REMARK                         _______ _______ _______ _____ _____    ______ ____
ROOT
ATOM      1  C   UNL     1       2.251   6.096  19.913  0.00  0.00    +0.000 A 
ATOM      2  C   UNL     1       1.223   5.391  20.532  0.00  0.00    +0.000 A 
ATOM      3  N   UNL     1       0.800   4.165  20.159  0.00  0.00    +0.000 NA
ATOM      4  C   UNL     1       1.427   3.545  19.136  0.00  0.00    +0.000 A 
ATOM      5  C   UNL     1       2.515   4.155  18.509  0.00  0.00    +0.000 A 
ATOM      6  S   UNL     1       3.462   3.513  17.222  0.00  0.00    +0.000 S 
ATOM      7  C   UNL     1       4.495   4.864  17.203  0.00  0.00    +0.000 A 
ATOM      8  C   UNL     1       4.121   5.809  18.131  0.00  0.00    +0.000 A 
ATOM      9  C   UNL     1       2.959   5.422  18.891  0.00  0.00    +0.000 A 
ENDROOT
BRANCH   7  10
ATOM     10  C   UNL     1       5.665   4.991  16.284  0.00  0.00    +0.000 A 
ATOM     11  N   UNL     1       5.628   5.696  15.105  0.00  0.00    +0.000 NA
ATOM     12  N   UNL     1       6.829   5.584  14.557  0.00  0.00    +0.000 NA
ATOM     13  N   UNL     1       7.519   4.822  15.413  0.00  0.00    +0.000 N 
ATOM     14  N   UNL     1       6.861   4.424  16.513  0.00  0.00    +0.000 NA
ATOM     15  H   UNL     1       8.483   4.558  15.231  0.00  0.00    +0.000 HD
ENDBRANCH   7  10
BRANCH   1  16
ATOM     16  O   UNL     1       2.653   7.357  20.295  0.00  0.00    +0.000 OA
BRANCH  16  20
ATOM     17  C   UNL     1      -0.237  10.281  21.210  0.00  0.00    +0.000 A 
ATOM     18  C   UNL     1       0.448   9.549  22.197  0.00  0.00    +0.000 A 
ATOM     19  C   UNL     1       1.411   8.589  21.861  0.00  0.00    +0.000 A 
ATOM     20  C   UNL     1       1.702   8.324  20.526  0.00  0.00    +0.000 A 
ATOM     21  C   UNL     1       1.075   9.067  19.528  0.00  0.00    +0.000 A 
ATOM     22  C   UNL     1       0.106  10.023  19.869  0.00  0.00    +0.000 A 
BRANCH  17  26
ATOM     23  C   UNL     1      -3.225  13.223  22.241  0.00  0.00    +0.000 A 
ATOM     24  C   UNL     1      -2.639  12.443  23.232  0.00  0.00    +0.000 A 
ATOM     25  C   UNL     1      -1.668  11.493  22.896  0.00  0.00    +0.000 A 
ATOM     26  C   UNL     1      -1.266  11.289  21.563  0.00  0.00    +0.000 A 
ATOM     27  C   UNL     1      -1.883  12.087  20.581  0.00  0.00    +0.000 A 
ATOM     28  C   UNL     1      -2.845  13.047  20.914  0.00  0.00    +0.000 A 
ENDBRANCH  17  26
ENDBRANCH  16  20
ENDBRANCH   1  16
TORSDOF 4
ENDMDL
MODEL 8
REMARK VINA RESULT:      -8.4      1.463      1.853
REMARK  Name = 
REMARK  4 active torsions:
REMARK  status: ('A' for Active; 'I' for Inactive)
REMARK    1  A    between atoms: C_4  and  C_5
REMARK    2  A    between atoms: C_8  and  O_9
REMARK    3  A    between atoms: O_9  and  C_10
REMARK    4  A    between atoms: C_16  and  C_17
REMARK                            x       y       z     vdW  Elec       q    Type
REMARK                         _______ _______ _______ _____ _____    ______ ____
ROOT
ATOM      1  C   UNL     1       2.968   5.633  19.464  0.00  0.00    +0.000 A 
ATOM      2  C   UNL     1       2.164   4.815  20.253  0.00  0.00    +0.000 A 
ATOM      3  N   UNL     1       1.915   3.513  20.003  0.00  0.00    +0.000 NA
ATOM      4  C   UNL     1       2.504   2.932  18.936  0.00  0.00    +0.000 A 
ATOM      5  C   UNL     1       3.383   3.665  18.136  0.00  0.00    +0.000 A 
ATOM      6  S   UNL     1       4.254   3.096  16.765  0.00  0.00    +0.000 S 
ATOM      7  C   UNL     1       5.029   4.593  16.537  0.00  0.00    +0.000 A 
ATOM      8  C   UNL     1       4.618   5.529  17.458  0.00  0.00    +0.000 A 
ATOM      9  C   UNL     1       3.646   5.012  18.389  0.00  0.00    +0.000 A 
ENDROOT
BRANCH   7  10
ATOM     10  C   UNL     1       6.032   4.844  15.461  0.00  0.00    +0.000 A 
ATOM     11  N   UNL     1       7.231   5.480  15.677  0.00  0.00    +0.000 NA
ATOM     12  N   UNL     1       7.851   5.531  14.506  0.00  0.00    +0.000 NA
ATOM     13  N   UNL     1       7.006   4.942  13.653  0.00  0.00    +0.000 N 
ATOM     14  N   UNL     1       5.860   4.483  14.178  0.00  0.00    +0.000 NA
ATOM     15  H   UNL     1       7.225   4.856  12.664  0.00  0.00    +0.000 HD
ENDBRANCH   7  10
BRANCH   1  16
ATOM     16  O   UNL     1       3.192   6.968  19.724  0.00  0.00    +0.000 OA
BRANCH  16  20
ATOM     17  C   UNL     1       0.006   9.705  19.412  0.00  0.00    +0.000 A 
ATOM     18  C   UNL     1       0.405   9.134  20.634  0.00  0.00    +0.000 A 
ATOM     19  C   UNL     1       1.475   8.234  20.707  0.00  0.00    +0.000 A 
ATOM     20  C   UNL     1       2.163   7.866  19.553  0.00  0.00    +0.000 A 
ATOM     21  C   UNL     1       1.822   8.452  18.337  0.00  0.00    +0.000 A 
ATOM     22  C   UNL     1       0.745   9.349  18.268  0.00  0.00    +0.000 A 
BRANCH  17  26
ATOM     23  C   UNL     1      -3.322  12.446  19.182  0.00  0.00    +0.000 A 
ATOM     24  C   UNL     1      -3.159  11.460  18.214  0.00  0.00    +0.000 A 
ATOM     25  C   UNL     1      -2.082  10.570  18.294  0.00  0.00    +0.000 A 
ATOM     26  C   UNL     1      -1.135  10.649  19.331  0.00  0.00    +0.000 A 
ATOM     27  C   UNL     1      -1.321  11.663  20.290  0.00  0.00    +0.000 A 
ATOM     28  C   UNL     1      -2.404  12.547  20.222  0.00  0.00    +0.000 A 
ENDBRANCH  17  26
ENDBRANCH  16  20
ENDBRANCH   1  16
TORSDOF 4
ENDMDL
MODEL 9
REMARK VINA RESULT:      -8.4      2.063      2.559
REMARK  Name = 
REMARK  4 active torsions:
REMARK  status: ('A' for Active; 'I' for Inactive)
REMARK    1  A    between atoms: C_4  and  C_5
REMARK    2  A    between atoms: C_8  and  O_9
REMARK    3  A    between atoms: O_9  and  C_10
REMARK    4  A    between atoms: C_16  and  C_17
REMARK                            x       y       z     vdW  Elec       q    Type
REMARK                         _______ _______ _______ _____ _____    ______ ____
ROOT
ATOM      1  C   UNL     1       2.245   6.211  19.742  0.00  0.00    +0.000 A 
ATOM      2  C   UNL     1       1.342   5.558  20.575  0.00  0.00    +0.000 A 
ATOM      3  N   UNL     1       0.980   4.264  20.450  0.00  0.00    +0.000 NA
ATOM      4  C   UNL     1       1.548   3.522  19.475  0.00  0.00    +0.000 A 
ATOM      5  C   UNL     1       2.519   4.085  18.643  0.00  0.00    +0.000 A 
ATOM      6  S   UNL     1       3.380   3.297  17.377  0.00  0.00    +0.000 S 
ATOM      7  C   UNL     1       4.298   4.686  17.031  0.00  0.00    +0.000 A 
ATOM      8  C   UNL     1       3.946   5.748  17.832  0.00  0.00    +0.000 A 
ATOM      9  C   UNL     1       2.898   5.422  18.768  0.00  0.00    +0.000 A 
ENDROOT
BRANCH   7  10
ATOM     10  C   UNL     1       5.357   4.730  15.979  0.00  0.00    +0.000 A 
ATOM     11  N   UNL     1       5.926   5.896  15.526  0.00  0.00    +0.000 NA
ATOM     12  N   UNL     1       6.810   5.553  14.600  0.00  0.00    +0.000 NA
ATOM     13  N   UNL     1       6.726   4.220  14.533  0.00  0.00    +0.000 N 
ATOM     14  N   UNL     1       5.850   3.640  15.368  0.00  0.00    +0.000 NA
ATOM     15  H   UNL     1       7.292   3.684  13.881  0.00  0.00    +0.000 HD
ENDBRANCH   7  10
BRANCH   1  16
ATOM     16  O   UNL     1       2.584   7.541  19.873  0.00  0.00    +0.000 OA
BRANCH  16  20
ATOM     17  C   UNL     1      -0.300  10.321  21.174  0.00  0.00    +0.000 A 
ATOM     18  C   UNL     1       0.065  10.176  19.824  0.00  0.00    +0.000 A 
ATOM     19  C   UNL     1       1.022   9.235  19.421  0.00  0.00    +0.000 A 
ATOM     20  C   UNL     1       1.651   8.426  20.363  0.00  0.00    +0.000 A 
ATOM     21  C   UNL     1       1.274   8.514  21.701  0.00  0.00    +0.000 A 
ATOM     22  C   UNL     1       0.321   9.462  22.100  0.00  0.00    +0.000 A 
BRANCH  17  26
ATOM     23  C   UNL     1      -3.230  13.236  22.423  0.00  0.00    +0.000 A 
ATOM     24  C   UNL     1      -2.867  13.138  21.084  0.00  0.00    +0.000 A 
ATOM     25  C   UNL     1      -1.920  12.190  20.681  0.00  0.00    +0.000 A 
ATOM     26  C   UNL     1      -1.304  11.325  21.604  0.00  0.00    +0.000 A 
ATOM     27  C   UNL     1      -1.685  11.454  22.953  0.00  0.00    +0.000 A 
ATOM     28  C   UNL     1      -2.641  12.392  23.358  0.00  0.00    +0.000 A 
ENDBRANCH  17  26
ENDBRANCH  16  20
ENDBRANCH   1  16
TORSDOF 4
ENDMDL
