MODEL 1
REMARK VINA RESULT:      -7.5      0.000      0.000
REMARK  Name = 
REMARK  3 active torsions:
REMARK  status: ('A' for Active; 'I' for Inactive)
REMARK    1  A    between atoms: C_1  and  C_2
REMARK    2  A    between atoms: C_6  and  C_7
REMARK    3  A    between atoms: C_16  and  C_18
REMARK                            x       y       z     vdW  Elec       q    Type
REMARK                         _______ _______ _______ _____ _____    ______ ____
ROOT
ATOM      1  C   UNL     1       2.771   6.630  18.794  0.00  0.00    +0.000 C 
ATOM      2  O   UNL     1       3.631   6.534  17.923  0.00  0.00    +0.000 OA
ATOM      3  N   UNL     1       2.122   7.840  19.071  0.00  0.00    +0.000 N 
ATOM      4  C   UNL     1       2.260   8.947  18.136  0.00  0.00    +0.000 C 
ATOM      5  C   UNL     1       0.906   9.631  17.935  0.00  0.00    +0.000 C 
ATOM      6  C   UNL     1       0.202  10.029  19.263  0.00  0.00    +0.000 C 
ATOM      7  C   UNL     1      -1.252  10.498  18.953  0.00  0.00    +0.000 C 
ATOM      8  C   UNL     1      -1.308  11.974  19.326  0.00  0.00    +0.000 C 
ATOM      9  N   UNL     1       0.081  12.375  19.354  0.00  0.00    +0.000 N 
ATOM     10  C   UNL     1       0.425  13.710  19.217  0.00  0.00    +0.000 C 
ATOM     11  O   UNL     1      -0.419  14.595  19.085  0.00  0.00    +0.000 OA
ATOM     12  C   UNL     1       0.858  11.274  19.890  0.00  0.00    +0.000 C 
ATOM     13  C   UNL     1       0.215   8.844  20.248  0.00  0.00    +0.000 C 
ATOM     14  C   UNL     1       1.605   8.222  20.383  0.00  0.00    +0.000 C 
ENDROOT
BRANCH   1  20
ATOM     15  C   UNL     1       1.459   3.843  17.663  0.00  0.00    +0.000 C 
ATOM     16  C   UNL     1       1.789   4.297  19.033  0.00  0.00    +0.000 A 
ATOM     17  O   UNL     1       1.520   3.404  20.027  0.00  0.00    +0.000 OA
ATOM     18  C   UNL     1       1.839   3.995  21.200  0.00  0.00    +0.000 A 
ATOM     19  C   UNL     1       2.295   5.271  20.976  0.00  0.00    +0.000 A 
ATOM     20  C   UNL     1       2.337   5.456  19.560  0.00  0.00    +0.000 A 
ENDBRANCH   1  20
BRANCH  10  21
ATOM     21  C   UNL     1       1.849  14.107  19.216  0.00  0.00    +0.000 A 
ATOM     22  C   UNL     1       2.671  14.029  18.091  0.00  0.00    +0.000 A 
ATOM     23  C   UNL     1       4.021  14.352  18.200  0.00  0.00    +0.000 A 
ATOM     24  C   UNL     1       4.486  14.821  19.417  0.00  0.00    +0.000 A 
ATOM     25  N   UNL     1       3.701  14.990  20.503  0.00  0.00    +0.000 NA
ATOM     26  C   UNL     1       2.396  14.637  20.377  0.00  0.00    +0.000 A 
ENDBRANCH  10  21
TORSDOF 2
ENDMDL
MODEL 2
REMARK VINA RESULT:      -7.1      0.957      1.308
REMARK  Name = 
REMARK  3 active torsions:
REMARK  status: ('A' for Active; 'I' for Inactive)
REMARK    1  A    between atoms: C_1  and  C_2
REMARK    2  A    between atoms: C_6  and  C_7
REMARK    3  A    between atoms: C_16  and  C_18
REMARK                            x       y       z     vdW  Elec       q    Type
REMARK                         _______ _______ _______ _____ _____    ______ ____
ROOT
ATOM      1  C   UNL     1       2.820   6.576  18.746  0.00  0.00    +0.000 C 
ATOM      2  O   UNL     1       3.586   6.511  17.788  0.00  0.00    +0.000 OA
ATOM      3  N   UNL     1       2.197   7.773  19.122  0.00  0.00    +0.000 N 
ATOM      4  C   UNL     1       2.234   8.907  18.211  0.00  0.00    +0.000 C 
ATOM      5  C   UNL     1       0.864   9.588  18.170  0.00  0.00    +0.000 C 
ATOM      6  C   UNL     1       0.299   9.943  19.574  0.00  0.00    +0.000 C 
ATOM      7  C   UNL     1      -1.181  10.411  19.428  0.00  0.00    +0.000 C 
ATOM      8  C   UNL     1      -1.204  11.875  19.848  0.00  0.00    +0.000 C 
ATOM      9  N   UNL     1       0.178  12.284  19.745  0.00  0.00    +0.000 N 
ATOM     10  C   UNL     1       0.502  13.625  19.612  0.00  0.00    +0.000 C 
ATOM     11  O   UNL     1      -0.355  14.507  19.593  0.00  0.00    +0.000 OA
ATOM     12  C   UNL     1       1.011  11.174  20.166  0.00  0.00    +0.000 C 
ATOM     13  C   UNL     1       0.418   8.730  20.518  0.00  0.00    +0.000 C 
ATOM     14  C   UNL     1       1.816   8.114  20.492  0.00  0.00    +0.000 C 
ENDROOT
BRANCH   1  20
ATOM     15  C   UNL     1       4.676   3.937  19.342  0.00  0.00    +0.000 C 
ATOM     16  C   UNL     1       3.296   4.287  19.743  0.00  0.00    +0.000 A 
ATOM     17  O   UNL     1       2.659   3.363  20.518  0.00  0.00    +0.000 OA
ATOM     18  C   UNL     1       1.409   3.821  20.751  0.00  0.00    +0.000 A 
ATOM     19  C   UNL     1       1.224   5.026  20.119  0.00  0.00    +0.000 A 
ATOM     20  C   UNL     1       2.472   5.378  19.518  0.00  0.00    +0.000 A 
ENDBRANCH   1  20
BRANCH  10  21
ATOM     21  C   UNL     1       1.916  14.031  19.476  0.00  0.00    +0.000 A 
ATOM     22  C   UNL     1       2.735  14.351  20.559  0.00  0.00    +0.000 A 
ATOM     23  C   UNL     1       4.033  14.799  20.334  0.00  0.00    +0.000 A 
ATOM     24  C   UNL     1       4.497  14.833  19.029  0.00  0.00    +0.000 A 
ATOM     25  N   UNL     1       3.762  14.450  17.963  0.00  0.00    +0.000 NA
ATOM     26  C   UNL     1       2.488  14.049  18.211  0.00  0.00    +0.000 A 
ENDBRANCH  10  21
TORSDOF 2
ENDMDL
MODEL 3
REMARK VINA RESULT:      -6.7      6.499      9.294
REMARK  Name = 
REMARK  3 active torsions:
REMARK  status: ('A' for Active; 'I' for Inactive)
REMARK    1  A    between atoms: C_1  and  C_2
REMARK    2  A    between atoms: C_6  and  C_7
REMARK    3  A    between atoms: C_16  and  C_18
REMARK                            x       y       z     vdW  Elec       q    Type
REMARK                         _______ _______ _______ _____ _____    ______ ____
ROOT
ATOM      1  C   UNL     1       1.763   3.468  18.636  0.00  0.00    +0.000 C 
ATOM      2  O   UNL     1       0.683   3.523  18.054  0.00  0.00    +0.000 OA
ATOM      3  N   UNL     1       2.975   3.734  17.987  0.00  0.00    +0.000 N 
ATOM      4  C   UNL     1       2.951   4.353  16.670  0.00  0.00    +0.000 C 
ATOM      5  C   UNL     1       4.030   5.434  16.583  0.00  0.00    +0.000 C 
ATOM      6  C   UNL     1       5.443   4.946  17.010  0.00  0.00    +0.000 C 
ATOM      7  C   UNL     1       6.403   6.170  17.106  0.00  0.00    +0.000 C 
ATOM      8  C   UNL     1       7.454   5.969  16.023  0.00  0.00    +0.000 C 
ATOM      9  N   UNL     1       6.844   5.016  15.124  0.00  0.00    +0.000 N 
ATOM     10  C   UNL     1       7.280   4.915  13.812  0.00  0.00    +0.000 C 
ATOM     11  O   UNL     1       8.198   5.605  13.371  0.00  0.00    +0.000 OA
ATOM     12  C   UNL     1       6.083   4.069  15.917  0.00  0.00    +0.000 C 
ATOM     13  C   UNL     1       5.362   4.185  18.348  0.00  0.00    +0.000 C 
ATOM     14  C   UNL     1       4.257   3.129  18.344  0.00  0.00    +0.000 C 
ENDROOT
BRANCH   1  20
ATOM     15  C   UNL     1       2.305   5.551  21.113  0.00  0.00    +0.000 C 
ATOM     16  C   UNL     1       2.062   4.091  21.083  0.00  0.00    +0.000 A 
ATOM     17  O   UNL     1       2.041   3.475  22.299  0.00  0.00    +0.000 OA
ATOM     18  C   UNL     1       1.854   2.155  22.081  0.00  0.00    +0.000 A 
ATOM     19  C   UNL     1       1.771   1.907  20.734  0.00  0.00    +0.000 A 
ATOM     20  C   UNL     1       1.832   3.172  20.072  0.00  0.00    +0.000 A 
ENDBRANCH   1  20
BRANCH  10  21
ATOM     21  C   UNL     1       6.629   3.960  12.891  0.00  0.00    +0.000 A 
ATOM     22  C   UNL     1       5.252   3.918  12.669  0.00  0.00    +0.000 A 
ATOM     23  C   UNL     1       4.716   2.935  11.842  0.00  0.00    +0.000 A 
ATOM     24  C   UNL     1       5.589   2.073  11.199  0.00  0.00    +0.000 A 
ATOM     25  N   UNL     1       6.932   2.138  11.324  0.00  0.00    +0.000 NA
ATOM     26  C   UNL     1       7.424   3.086  12.162  0.00  0.00    +0.000 A 
ENDBRANCH  10  21
TORSDOF 2
ENDMDL
MODEL 4
REMARK VINA RESULT:      -6.6      4.155      6.749
REMARK  Name = 
REMARK  3 active torsions:
REMARK  status: ('A' for Active; 'I' for Inactive)
REMARK    1  A    between atoms: C_1  and  C_2
REMARK    2  A    between atoms: C_6  and  C_7
REMARK    3  A    between atoms: C_16  and  C_18
REMARK                            x       y       z     vdW  Elec       q    Type
REMARK                         _______ _______ _______ _____ _____    ______ ____
ROOT
ATOM      1  C   UNL     1       0.585  10.624  19.679  0.00  0.00    +0.000 C 
ATOM      2  O   UNL     1       1.116  11.437  20.431  0.00  0.00    +0.000 OA
ATOM      3  N   UNL     1      -0.759  10.726  19.300  0.00  0.00    +0.000 N 
ATOM      4  C   UNL     1      -1.480  11.961  19.574  0.00  0.00    +0.000 C 
ATOM      5  C   UNL     1      -2.339  12.342  18.367  0.00  0.00    +0.000 C 
ATOM      6  C   UNL     1      -3.255  11.191  17.862  0.00  0.00    +0.000 C 
ATOM      7  C   UNL     1      -3.902  11.607  16.507  0.00  0.00    +0.000 C 
ATOM      8  C   UNL     1      -5.400  11.710  16.767  0.00  0.00    +0.000 C 
ATOM      9  N   UNL     1      -5.491  11.831  18.205  0.00  0.00    +0.000 N 
ATOM     10  C   UNL     1      -6.620  12.382  18.789  0.00  0.00    +0.000 C 
ATOM     11  O   UNL     1      -7.581  12.768  18.124  0.00  0.00    +0.000 OA
ATOM     12  C   UNL     1      -4.465  10.992  18.795  0.00  0.00    +0.000 C 
ATOM     13  C   UNL     1      -2.446   9.887  17.725  0.00  0.00    +0.000 C 
ATOM     14  C   UNL     1      -1.617   9.589  18.974  0.00  0.00    +0.000 C 
ENDROOT
BRANCH   1  20
ATOM     15  C   UNL     1       1.432   7.771  21.061  0.00  0.00    +0.000 C 
ATOM     16  C   UNL     1       1.688   8.334  19.716  0.00  0.00    +0.000 A 
ATOM     17  O   UNL     1       2.393   7.531  18.869  0.00  0.00    +0.000 OA
ATOM     18  C   UNL     1       2.570   8.214  17.717  0.00  0.00    +0.000 A 
ATOM     19  C   UNL     1       2.001   9.460  17.815  0.00  0.00    +0.000 A 
ATOM     20  C   UNL     1       1.358   9.524  19.089  0.00  0.00    +0.000 A 
ENDBRANCH   1  20
BRANCH  10  21
ATOM     21  C   UNL     1      -6.692  12.530  20.257  0.00  0.00    +0.000 A 
ATOM     22  C   UNL     1      -6.109  13.587  20.956  0.00  0.00    +0.000 A 
ATOM     23  C   UNL     1      -6.160  13.607  22.347  0.00  0.00    +0.000 A 
ATOM     24  C   UNL     1      -6.867  12.605  22.990  0.00  0.00    +0.000 A 
ATOM     25  N   UNL     1      -7.516  11.613  22.343  0.00  0.00    +0.000 NA
ATOM     26  C   UNL     1      -7.421  11.602  20.988  0.00  0.00    +0.000 A 
ENDBRANCH  10  21
TORSDOF 2
ENDMDL
MODEL 5
REMARK VINA RESULT:      -6.4      4.046      6.618
REMARK  Name = 
REMARK  3 active torsions:
REMARK  status: ('A' for Active; 'I' for Inactive)
REMARK    1  A    between atoms: C_1  and  C_2
REMARK    2  A    between atoms: C_6  and  C_7
REMARK    3  A    between atoms: C_16  and  C_18
REMARK                            x       y       z     vdW  Elec       q    Type
REMARK                         _______ _______ _______ _____ _____    ______ ____
ROOT
ATOM      1  C   UNL     1       0.652  10.326  19.641  0.00  0.00    +0.000 C 
ATOM      2  O   UNL     1       1.084  11.098  20.492  0.00  0.00    +0.000 OA
ATOM      3  N   UNL     1      -0.630  10.462  19.092  0.00  0.00    +0.000 N 
ATOM      4  C   UNL     1      -1.372  11.692  19.325  0.00  0.00    +0.000 C 
ATOM      5  C   UNL     1      -2.061  12.137  18.033  0.00  0.00    +0.000 C 
ATOM      6  C   UNL     1      -2.910  11.022  17.360  0.00  0.00    +0.000 C 
ATOM      7  C   UNL     1      -3.369  11.505  15.951  0.00  0.00    +0.000 C 
ATOM      8  C   UNL     1      -4.887  11.616  16.015  0.00  0.00    +0.000 C 
ATOM      9  N   UNL     1      -5.167  11.674  17.432  0.00  0.00    +0.000 N 
ATOM     10  C   UNL     1      -6.360  12.213  17.886  0.00  0.00    +0.000 C 
ATOM     11  O   UNL     1      -7.221  12.640  17.119  0.00  0.00    +0.000 OA
ATOM     12  C   UNL     1      -4.234  10.797  18.115  0.00  0.00    +0.000 C 
ATOM     13  C   UNL     1      -2.099   9.714  17.272  0.00  0.00    +0.000 C 
ATOM     14  C   UNL     1      -1.445   9.351  18.605  0.00  0.00    +0.000 C 
ENDROOT
BRANCH   1  20
ATOM     15  C   UNL     1       1.491   7.509  21.098  0.00  0.00    +0.000 C 
ATOM     16  C   UNL     1       1.812   8.068  19.766  0.00  0.00    +0.000 A 
ATOM     17  O   UNL     1       2.588   7.278  18.971  0.00  0.00    +0.000 OA
ATOM     18  C   UNL     1       2.816   7.956  17.824  0.00  0.00    +0.000 A 
ATOM     19  C   UNL     1       2.208   9.186  17.876  0.00  0.00    +0.000 A 
ATOM     20  C   UNL     1       1.488   9.244  19.109  0.00  0.00    +0.000 A 
ENDBRANCH   1  20
BRANCH  10  21
ATOM     21  C   UNL     1      -6.625  12.298  19.338  0.00  0.00    +0.000 A 
ATOM     22  C   UNL     1      -7.296  11.310  20.059  0.00  0.00    +0.000 A 
ATOM     23  C   UNL     1      -7.570  11.507  21.409  0.00  0.00    +0.000 A 
ATOM     24  C   UNL     1      -7.088  12.657  22.014  0.00  0.00    +0.000 A 
ATOM     25  N   UNL     1      -6.362  13.594  21.368  0.00  0.00    +0.000 NA
ATOM     26  C   UNL     1      -6.138  13.390  20.044  0.00  0.00    +0.000 A 
ENDBRANCH  10  21
TORSDOF 2
ENDMDL
MODEL 6
REMARK VINA RESULT:      -6.3      3.986      6.580
REMARK  Name = 
REMARK  3 active torsions:
REMARK  status: ('A' for Active; 'I' for Inactive)
REMARK    1  A    between atoms: C_1  and  C_2
REMARK    2  A    between atoms: C_6  and  C_7
REMARK    3  A    between atoms: C_16  and  C_18
REMARK                            x       y       z     vdW  Elec       q    Type
REMARK                         _______ _______ _______ _____ _____    ______ ____
ROOT
ATOM      1  C   UNL     1       0.720  11.780  19.497  0.00  0.00    +0.000 C 
ATOM      2  O   UNL     1       0.673  10.928  18.614  0.00  0.00    +0.000 OA
ATOM      3  N   UNL     1       1.749  12.727  19.566  0.00  0.00    +0.000 N 
ATOM      4  C   UNL     1       2.638  12.892  18.425  0.00  0.00    +0.000 C 
ATOM      5  C   UNL     1       2.890  14.379  18.171  0.00  0.00    +0.000 C 
ATOM      6  C   UNL     1       3.356  15.160  19.433  0.00  0.00    +0.000 C 
ATOM      7  C   UNL     1       3.357  16.687  19.121  0.00  0.00    +0.000 C 
ATOM      8  C   UNL     1       4.811  17.132  19.198  0.00  0.00    +0.000 C 
ATOM      9  N   UNL     1       5.556  15.900  19.066  0.00  0.00    +0.000 N 
ATOM     10  C   UNL     1       6.877  15.924  18.648  0.00  0.00    +0.000 C 
ATOM     11  O   UNL     1       7.465  16.974  18.394  0.00  0.00    +0.000 OA
ATOM     12  C   UNL     1       4.830  14.856  19.764  0.00  0.00    +0.000 C 
ATOM     13  C   UNL     1       2.444  14.828  20.631  0.00  0.00    +0.000 C 
ATOM     14  C   UNL     1       2.246  13.323  20.805  0.00  0.00    +0.000 C 
ENDROOT
BRANCH   1  20
ATOM     15  C   UNL     1       0.242   9.898  22.142  0.00  0.00    +0.000 C 
ATOM     16  C   UNL     1      -0.500  11.062  21.609  0.00  0.00    +0.000 A 
ATOM     17  O   UNL     1      -1.581  11.454  22.342  0.00  0.00    +0.000 OA
ATOM     18  C   UNL     1      -2.157  12.489  21.692  0.00  0.00    +0.000 A 
ATOM     19  C   UNL     1      -1.471  12.760  20.534  0.00  0.00    +0.000 A 
ATOM     20  C   UNL     1      -0.343  11.883  20.504  0.00  0.00    +0.000 A 
ENDBRANCH   1  20
BRANCH  10  21
ATOM     21  C   UNL     1       7.621  14.658  18.486  0.00  0.00    +0.000 A 
ATOM     22  C   UNL     1       7.421  13.774  17.425  0.00  0.00    +0.000 A 
ATOM     23  C   UNL     1       8.111  12.567  17.393  0.00  0.00    +0.000 A 
ATOM     24  C   UNL     1       9.044  12.319  18.386  0.00  0.00    +0.000 A 
ATOM     25  N   UNL     1       9.326  13.187  19.381  0.00  0.00    +0.000 NA
ATOM     26  C   UNL     1       8.614  14.343  19.405  0.00  0.00    +0.000 A 
ENDBRANCH  10  21
TORSDOF 2
ENDMDL
MODEL 7
REMARK VINA RESULT:      -6.2      5.011      8.117
REMARK  Name = 
REMARK  3 active torsions:
REMARK  status: ('A' for Active; 'I' for Inactive)
REMARK    1  A    between atoms: C_1  and  C_2
REMARK    2  A    between atoms: C_6  and  C_7
REMARK    3  A    between atoms: C_16  and  C_18
REMARK                            x       y       z     vdW  Elec       q    Type
REMARK                         _______ _______ _______ _____ _____    ______ ____
ROOT
ATOM      1  C   UNL     1       1.780  13.455  19.045  0.00  0.00    +0.000 C 
ATOM      2  O   UNL     1       2.024  12.749  18.070  0.00  0.00    +0.000 OA
ATOM      3  N   UNL     1       0.531  13.450  19.677  0.00  0.00    +0.000 N 
ATOM      4  C   UNL     1      -0.420  12.396  19.355  0.00  0.00    +0.000 C 
ATOM      5  C   UNL     1      -1.093  11.893  20.634  0.00  0.00    +0.000 C 
ATOM      6  C   UNL     1      -1.700  13.025  21.510  0.00  0.00    +0.000 C 
ATOM      7  C   UNL     1      -2.145  12.431  22.881  0.00  0.00    +0.000 C 
ATOM      8  C   UNL     1      -3.661  12.572  22.929  0.00  0.00    +0.000 C 
ATOM      9  N   UNL     1      -4.034  12.753  21.545  0.00  0.00    +0.000 N 
ATOM     10  C   UNL     1      -5.326  12.476  21.128  0.00  0.00    +0.000 C 
ATOM     11  O   UNL     1      -6.198  12.090  21.905  0.00  0.00    +0.000 OA
ATOM     12  C   UNL     1      -3.012  13.557  20.902  0.00  0.00    +0.000 C 
ATOM     13  C   UNL     1      -0.677  14.163  21.693  0.00  0.00    +0.000 C 
ATOM     14  C   UNL     1      -0.055  14.598  20.366  0.00  0.00    +0.000 C 
ENDROOT
BRANCH   1  20
ATOM     15  C   UNL     1       3.161  16.147  17.773  0.00  0.00    +0.000 C 
ATOM     16  C   UNL     1       3.368  15.442  19.057  0.00  0.00    +0.000 A 
ATOM     17  O   UNL     1       4.288  16.002  19.892  0.00  0.00    +0.000 OA
ATOM     18  C   UNL     1       4.379  15.212  20.984  0.00  0.00    +0.000 A 
ATOM     19  C   UNL     1       3.538  14.134  20.857  0.00  0.00    +0.000 A 
ATOM     20  C   UNL     1       2.817  14.309  19.636  0.00  0.00    +0.000 A 
ENDBRANCH   1  20
BRANCH  10  21
ATOM     21  C   UNL     1      -5.691  12.635  19.704  0.00  0.00    +0.000 A 
ATOM     22  C   UNL     1      -5.279  11.759  18.700  0.00  0.00    +0.000 A 
ATOM     23  C   UNL     1      -5.605  12.027  17.374  0.00  0.00    +0.000 A 
ATOM     24  C   UNL     1      -6.406  13.125  17.106  0.00  0.00    +0.000 A 
ATOM     25  N   UNL     1      -6.893  13.946  18.060  0.00  0.00    +0.000 NA
ATOM     26  C   UNL     1      -6.532  13.678  19.342  0.00  0.00    +0.000 A 
ENDBRANCH  10  21
TORSDOF 2
ENDMDL
MODEL 8
REMARK VINA RESULT:      -6.2      6.006      9.382
REMARK  Name = 
REMARK  3 active torsions:
REMARK  status: ('A' for Active; 'I' for Inactive)
REMARK    1  A    between atoms: C_1  and  C_2
REMARK    2  A    between atoms: C_6  and  C_7
REMARK    3  A    between atoms: C_16  and  C_18
REMARK                            x       y       z     vdW  Elec       q    Type
REMARK                         _______ _______ _______ _____ _____    ______ ____
ROOT
ATOM      1  C   UNL     1      -0.567  14.849  22.646  0.00  0.00    +0.000 C 
ATOM      2  O   UNL     1       0.467  14.192  22.725  0.00  0.00    +0.000 OA
ATOM      3  N   UNL     1      -1.704  14.373  21.983  0.00  0.00    +0.000 N 
ATOM      4  C   UNL     1      -1.770  12.967  21.611  0.00  0.00    +0.000 C 
ATOM      5  C   UNL     1      -3.164  12.413  21.911  0.00  0.00    +0.000 C 
ATOM      6  C   UNL     1      -4.319  13.264  21.311  0.00  0.00    +0.000 C 
ATOM      7  C   UNL     1      -5.680  12.748  21.867  0.00  0.00    +0.000 C 
ATOM      8  C   UNL     1      -6.441  12.191  20.671  0.00  0.00    +0.000 C 
ATOM      9  N   UNL     1      -5.412  11.971  19.680  0.00  0.00    +0.000 N 
ATOM     10  C   UNL     1      -5.621  11.079  18.641  0.00  0.00    +0.000 C 
ATOM     11  O   UNL     1      -6.676  10.462  18.509  0.00  0.00    +0.000 OA
ATOM     12  C   UNL     1      -4.441  13.044  19.791  0.00  0.00    +0.000 C 
ATOM     13  C   UNL     1      -4.105  14.756  21.635  0.00  0.00    +0.000 C 
ATOM     14  C   UNL     1      -2.686  15.219  21.308  0.00  0.00    +0.000 C 
ENDROOT
BRANCH   1  20
ATOM     15  C   UNL     1      -2.210  15.616  25.381  0.00  0.00    +0.000 C 
ATOM     16  C   UNL     1      -1.388  16.431  24.459  0.00  0.00    +0.000 A 
ATOM     17  O   UNL     1      -1.264  17.747  24.793  0.00  0.00    +0.000 OA
ATOM     18  C   UNL     1      -0.526  18.342  23.830  0.00  0.00    +0.000 A 
ATOM     19  C   UNL     1      -0.187  17.427  22.864  0.00  0.00    +0.000 A 
ATOM     20  C   UNL     1      -0.681  16.159  23.299  0.00  0.00    +0.000 A 
ENDBRANCH   1  20
BRANCH  10  21
ATOM     21  C   UNL     1      -4.551  10.838  17.650  0.00  0.00    +0.000 A 
ATOM     22  C   UNL     1      -3.502   9.940  17.850  0.00  0.00    +0.000 A 
ATOM     23  C   UNL     1      -2.495   9.832  16.895  0.00  0.00    +0.000 A 
ATOM     24  C   UNL     1      -2.615  10.571  15.730  0.00  0.00    +0.000 A 
ATOM     25  N   UNL     1      -3.659  11.386  15.465  0.00  0.00    +0.000 NA
ATOM     26  C   UNL     1      -4.610  11.495  16.428  0.00  0.00    +0.000 A 
ENDBRANCH  10  21
TORSDOF 2
ENDMDL
MODEL 9
REMARK VINA RESULT:      -6.1      6.070      9.196
REMARK  Name = 
REMARK  3 active torsions:
REMARK  status: ('A' for Active; 'I' for Inactive)
REMARK    1  A    between atoms: C_1  and  C_2
REMARK    2  A    between atoms: C_6  and  C_7
REMARK    3  A    between atoms: C_16  and  C_18
REMARK                            x       y       z     vdW  Elec       q    Type
REMARK                         _______ _______ _______ _____ _____    ______ ____
ROOT
ATOM      1  C   UNL     1       2.074  14.488  18.991  0.00  0.00    +0.000 C 
ATOM      2  O   UNL     1       1.662  13.657  18.187  0.00  0.00    +0.000 OA
ATOM      3  N   UNL     1       3.441  14.729  19.181  0.00  0.00    +0.000 N 
ATOM      4  C   UNL     1       4.394  14.189  18.224  0.00  0.00    +0.000 C 
ATOM      5  C   UNL     1       5.463  15.236  17.905  0.00  0.00    +0.000 C 
ATOM      6  C   UNL     1       6.135  15.850  19.166  0.00  0.00    +0.000 C 
ATOM      7  C   UNL     1       7.026  17.055  18.738  0.00  0.00    +0.000 C 
ATOM      8  C   UNL     1       8.460  16.654  19.058  0.00  0.00    +0.000 C 
ATOM      9  N   UNL     1       8.398  15.215  19.173  0.00  0.00    +0.000 N 
ATOM     10  C   UNL     1       9.544  14.451  19.018  0.00  0.00    +0.000 C 
ATOM     11  O   UNL     1      10.644  14.957  18.798  0.00  0.00    +0.000 OA
ATOM     12  C   UNL     1       7.137  14.865  19.798  0.00  0.00    +0.000 C 
ATOM     13  C   UNL     1       5.062  16.275  20.187  0.00  0.00    +0.000 C 
ATOM     14  C   UNL     1       4.037  15.170  20.441  0.00  0.00    +0.000 C 
ENDROOT
BRANCH   1  20
ATOM     15  C   UNL     1       1.373  17.667  18.574  0.00  0.00    +0.000 C 
ATOM     16  C   UNL     1       0.879  16.663  19.543  0.00  0.00    +0.000 A 
ATOM     17  O   UNL     1      -0.053  17.114  20.430  0.00  0.00    +0.000 OA
ATOM     18  C   UNL     1      -0.356  16.089  21.256  0.00  0.00    +0.000 A 
ATOM     19  C   UNL     1       0.385  14.982  20.925  0.00  0.00    +0.000 A 
ATOM     20  C   UNL     1       1.142  15.320  19.761  0.00  0.00    +0.000 A 
ENDBRANCH   1  20
BRANCH  10  21
ATOM     21  C   UNL     1       9.466  12.978  19.105  0.00  0.00    +0.000 A 
ATOM     22  C   UNL     1       9.227  12.151  18.007  0.00  0.00    +0.000 A 
ATOM     23  C   UNL     1       9.092  10.778  18.194  0.00  0.00    +0.000 A 
ATOM     24  C   UNL     1       9.283  10.269  19.468  0.00  0.00    +0.000 A 
ATOM     25  N   UNL     1       9.599  11.029  20.538  0.00  0.00    +0.000 NA
ATOM     26  C   UNL     1       9.692  12.368  20.332  0.00  0.00    +0.000 A 
ENDBRANCH  10  21
TORSDOF 2
ENDMDL
