MODEL 1
REMARK VINA RESULT:      -9.4      0.000      0.000
REMARK  Name = 
REMARK  6 active torsions:
REMARK  status: ('A' for Active; 'I' for Inactive)
REMARK    1  A    between atoms: C_1  and  C_2
REMARK    2  A    between atoms: C_2  and  C_3
REMARK    3  A    between atoms: N_7  and  C_8
REMARK    4  A    between atoms: C_11  and  N_12
REMARK    5  A    between atoms: C_17  and  C_18
REMARK    6  A    between atoms: C_25  and  C_26
REMARK                            x       y       z     vdW  Elec       q    Type
REMARK                         _______ _______ _______ _____ _____    ______ ____
ROOT
ATOM      1  C   UNL     1       2.481   7.116  19.604  0.00  0.00    +0.000 C 
ATOM      2  C   UNL     1       1.999   7.863  18.354  0.00  0.00    +0.000 C 
ATOM      3  C   UNL     1       1.807   9.356  18.654  0.00  0.00    +0.000 C 
ATOM      4  C   UNL     1       0.844   9.610  19.829  0.00  0.00    +0.000 C 
ATOM      5  C   UNL     1       1.198   8.735  21.056  0.00  0.00    +0.000 C 
ATOM      6  C   UNL     1       1.422   7.263  20.706  0.00  0.00    +0.000 C 
ENDROOT
BRANCH   4   7
ATOM      7  N   UNL     1       0.804  11.039  20.174  0.00  0.00    +0.000 N 
ATOM      8  N   UNL     1       1.549  11.904  19.448  0.00  0.00    +0.000 NA
ATOM      9  C   UNL     1       1.377  13.074  20.058  0.00  0.00    +0.000 A 
ATOM     10  C   UNL     1       0.473  12.998  21.134  0.00  0.00    +0.000 A 
ATOM     11  C   UNL     1      -0.056  13.919  22.059  0.00  0.00    +0.000 A 
ATOM     12  C   UNL     1      -0.989  13.471  23.003  0.00  0.00    +0.000 A 
ATOM     13  C   UNL     1      -1.387  12.130  23.018  0.00  0.00    +0.000 A 
ATOM     14  C   UNL     1      -0.857  11.196  22.112  0.00  0.00    +0.000 A 
ATOM     15  C   UNL     1       0.083  11.659  21.178  0.00  0.00    +0.000 A 
BRANCH  12  16
ATOM     16  C   UNL     1      -1.544  14.397  23.950  0.00  0.00    +0.000 C 
ATOM     17  N   UNL     1      -1.992  15.145  24.715  0.00  0.00    +0.000 NA
ENDBRANCH  12  16
ENDBRANCH   4   7
BRANCH   1  24
ATOM     18  C   UNL     1       4.353   2.910  17.509  0.00  0.00    +0.000 C 
ATOM     19  C   UNL     1       3.264   3.805  18.104  0.00  0.00    +0.000 C 
ATOM     20  C   UNL     1       1.930   3.465  17.412  0.00  0.00    +0.000 C 
ATOM     21  O   UNL     1       3.082   3.496  19.501  0.00  0.00    +0.000 OA
ATOM     22  C   UNL     1       2.618   4.629  20.121  0.00  0.00    +0.000 C 
ATOM     23  O   UNL     1       2.102   4.619  21.224  0.00  0.00    +0.000 OA
ATOM     24  N   UNL     1       2.848   5.726  19.323  0.00  0.00    +0.000 N 
ATOM     25  C   UNL     1       3.536   5.326  18.110  0.00  0.00    +0.000 C 
BRANCH  25  26
ATOM     26  C   UNL     1       4.994   5.766  18.145  0.00  0.00    +0.000 A 
ATOM     27  C   UNL     1       5.883   5.305  19.133  0.00  0.00    +0.000 A 
ATOM     28  C   UNL     1       7.213   5.730  19.162  0.00  0.00    +0.000 A 
ATOM     29  C   UNL     1       7.673   6.639  18.214  0.00  0.00    +0.000 A 
ATOM     30  C   UNL     1       6.808   7.115  17.232  0.00  0.00    +0.000 A 
ATOM     31  C   UNL     1       5.479   6.681  17.195  0.00  0.00    +0.000 A 
ENDBRANCH  25  26
ENDBRANCH   1  24
TORSDOF 4
ENDMDL
MODEL 2
REMARK VINA RESULT:      -9.1      1.324      1.549
REMARK  Name = 
REMARK  6 active torsions:
REMARK  status: ('A' for Active; 'I' for Inactive)
REMARK    1  A    between atoms: C_1  and  C_2
REMARK    2  A    between atoms: C_2  and  C_3
REMARK    3  A    between atoms: N_7  and  C_8
REMARK    4  A    between atoms: C_11  and  N_12
REMARK    5  A    between atoms: C_17  and  C_18
REMARK    6  A    between atoms: C_25  and  C_26
REMARK                            x       y       z     vdW  Elec       q    Type
REMARK                         _______ _______ _______ _____ _____    ______ ____
ROOT
ATOM      1  C   UNL     1       2.569   6.360  19.477  0.00  0.00    +0.000 C 
ATOM      2  C   UNL     1       2.214   6.890  18.081  0.00  0.00    +0.000 C 
ATOM      3  C   UNL     1       2.211   8.425  18.068  0.00  0.00    +0.000 C 
ATOM      4  C   UNL     1       1.265   9.030  19.122  0.00  0.00    +0.000 C 
ATOM      5  C   UNL     1       1.476   8.386  20.514  0.00  0.00    +0.000 C 
ATOM      6  C   UNL     1       1.514   6.858  20.476  0.00  0.00    +0.000 C 
ENDROOT
BRANCH   4   7
ATOM      7  N   UNL     1       1.404  10.493  19.172  0.00  0.00    +0.000 N 
ATOM      8  N   UNL     1       2.135  11.110  18.216  0.00  0.00    +0.000 NA
ATOM      9  C   UNL     1       2.151  12.387  18.590  0.00  0.00    +0.000 A 
ATOM     10  C   UNL     1       1.380  12.624  19.743  0.00  0.00    +0.000 A 
ATOM     11  C   UNL     1       1.057  13.760  20.510  0.00  0.00    +0.000 A 
ATOM     12  C   UNL     1       0.205  13.614  21.613  0.00  0.00    +0.000 A 
ATOM     13  C   UNL     1      -0.314  12.357  21.938  0.00  0.00    +0.000 A 
ATOM     14  C   UNL     1       0.011  11.211  21.193  0.00  0.00    +0.000 A 
ATOM     15  C   UNL     1       0.872  11.374  20.096  0.00  0.00    +0.000 A 
BRANCH  12  16
ATOM     16  C   UNL     1      -0.140  14.762  22.403  0.00  0.00    +0.000 C 
ATOM     17  N   UNL     1      -0.419  15.689  23.042  0.00  0.00    +0.000 NA
ENDBRANCH  12  16
ENDBRANCH   4   7
BRANCH   1  24
ATOM     18  C   UNL     1       3.517   1.563  18.184  0.00  0.00    +0.000 C 
ATOM     19  C   UNL     1       2.696   2.710  18.776  0.00  0.00    +0.000 C 
ATOM     20  C   UNL     1       1.203   2.391  18.569  0.00  0.00    +0.000 C 
ATOM     21  O   UNL     1       2.899   2.777  20.202  0.00  0.00    +0.000 OA
ATOM     22  C   UNL     1       2.698   4.078  20.592  0.00  0.00    +0.000 C 
ATOM     23  O   UNL     1       2.516   4.403  21.751  0.00  0.00    +0.000 OA
ATOM     24  N   UNL     1       2.757   4.908  19.496  0.00  0.00    +0.000 N 
ATOM     25  C   UNL     1       3.048   4.139  18.301  0.00  0.00    +0.000 C 
BRANCH  25  26
ATOM     26  C   UNL     1       4.481   4.378  17.840  0.00  0.00    +0.000 A 
ATOM     27  C   UNL     1       5.525   4.606  18.754  0.00  0.00    +0.000 A 
ATOM     28  C   UNL     1       6.830   4.841  18.315  0.00  0.00    +0.000 A 
ATOM     29  C   UNL     1       7.110   4.869  16.952  0.00  0.00    +0.000 A 
ATOM     30  C   UNL     1       6.090   4.654  16.030  0.00  0.00    +0.000 A 
ATOM     31  C   UNL     1       4.785   4.408  16.468  0.00  0.00    +0.000 A 
ENDBRANCH  25  26
ENDBRANCH   1  24
TORSDOF 4
ENDMDL
MODEL 3
REMARK VINA RESULT:      -9.1      1.507      2.874
REMARK  Name = 
REMARK  6 active torsions:
REMARK  status: ('A' for Active; 'I' for Inactive)
REMARK    1  A    between atoms: C_1  and  C_2
REMARK    2  A    between atoms: C_2  and  C_3
REMARK    3  A    between atoms: N_7  and  C_8
REMARK    4  A    between atoms: C_11  and  N_12
REMARK    5  A    between atoms: C_17  and  C_18
REMARK    6  A    between atoms: C_25  and  C_26
REMARK                            x       y       z     vdW  Elec       q    Type
REMARK                         _______ _______ _______ _____ _____    ______ ____
ROOT
ATOM      1  C   UNL     1       2.432   7.271  19.666  0.00  0.00    +0.000 C 
ATOM      2  C   UNL     1       2.001   8.055  18.419  0.00  0.00    +0.000 C 
ATOM      3  C   UNL     1       1.875   9.551  18.736  0.00  0.00    +0.000 C 
ATOM      4  C   UNL     1       0.911   9.836  19.903  0.00  0.00    +0.000 C 
ATOM      5  C   UNL     1       1.208   8.931  21.123  0.00  0.00    +0.000 C 
ATOM      6  C   UNL     1       1.367   7.455  20.757  0.00  0.00    +0.000 C 
ENDROOT
BRANCH   4   7
ATOM      7  N   UNL     1       0.934  11.261  20.265  0.00  0.00    +0.000 N 
ATOM      8  N   UNL     1       0.352  11.648  21.424  0.00  0.00    +0.000 NA
ATOM      9  C   UNL     1       0.451  12.975  21.412  0.00  0.00    +0.000 A 
ATOM     10  C   UNL     1       1.154  13.457  20.292  0.00  0.00    +0.000 A 
ATOM     11  C   UNL     1       1.543  14.729  19.831  0.00  0.00    +0.000 A 
ATOM     12  C   UNL     1       2.286  14.823  18.647  0.00  0.00    +0.000 A 
ATOM     13  C   UNL     1       2.634  13.667  17.942  0.00  0.00    +0.000 A 
ATOM     14  C   UNL     1       2.241  12.392  18.380  0.00  0.00    +0.000 A 
ATOM     15  C   UNL     1       1.490  12.315  19.563  0.00  0.00    +0.000 A 
BRANCH  12  16
ATOM     16  C   UNL     1       2.696  16.112  18.165  0.00  0.00    +0.000 C 
ATOM     17  N   UNL     1       3.028  17.153  17.776  0.00  0.00    +0.000 NA
ENDBRANCH  12  16
ENDBRANCH   4   7
BRANCH   1  24
ATOM     18  C   UNL     1       4.090   3.004  17.515  0.00  0.00    +0.000 C 
ATOM     19  C   UNL     1       3.050   3.938  18.136  0.00  0.00    +0.000 C 
ATOM     20  C   UNL     1       1.689   3.656  17.470  0.00  0.00    +0.000 C 
ATOM     21  O   UNL     1       2.885   3.630  19.535  0.00  0.00    +0.000 OA
ATOM     22  C   UNL     1       2.479   4.778  20.170  0.00  0.00    +0.000 C 
ATOM     23  O   UNL     1       1.986   4.783  21.283  0.00  0.00    +0.000 OA
ATOM     24  N   UNL     1       2.737   5.869  19.371  0.00  0.00    +0.000 N 
ATOM     25  C   UNL     1       3.383   5.447  18.143  0.00  0.00    +0.000 C 
BRANCH  25  26
ATOM     26  C   UNL     1       4.859   5.828  18.150  0.00  0.00    +0.000 A 
ATOM     27  C   UNL     1       5.747   5.332  19.121  0.00  0.00    +0.000 A 
ATOM     28  C   UNL     1       7.093   5.703  19.124  0.00  0.00    +0.000 A 
ATOM     29  C   UNL     1       7.571   6.592  18.167  0.00  0.00    +0.000 A 
ATOM     30  C   UNL     1       6.708   7.103  17.202  0.00  0.00    +0.000 A 
ATOM     31  C   UNL     1       5.362   6.722  17.190  0.00  0.00    +0.000 A 
ENDBRANCH  25  26
ENDBRANCH   1  24
TORSDOF 4
ENDMDL
MODEL 4
REMARK VINA RESULT:      -8.8      1.423      1.427
REMARK  Name = 
REMARK  6 active torsions:
REMARK  status: ('A' for Active; 'I' for Inactive)
REMARK    1  A    between atoms: C_1  and  C_2
REMARK    2  A    between atoms: C_2  and  C_3
REMARK    3  A    between atoms: N_7  and  C_8
REMARK    4  A    between atoms: C_11  and  N_12
REMARK    5  A    between atoms: C_17  and  C_18
REMARK    6  A    between atoms: C_25  and  C_26
REMARK                            x       y       z     vdW  Elec       q    Type
REMARK                         _______ _______ _______ _____ _____    ______ ____
ROOT
ATOM      1  C   UNL     1       2.470   7.411  19.228  0.00  0.00    +0.000 C 
ATOM      2  C   UNL     1       2.075   7.975  17.857  0.00  0.00    +0.000 C 
ATOM      3  C   UNL     1       1.924   9.501  17.922  0.00  0.00    +0.000 C 
ATOM      4  C   UNL     1       0.918   9.958  18.995  0.00  0.00    +0.000 C 
ATOM      5  C   UNL     1       1.181   9.267  20.355  0.00  0.00    +0.000 C 
ATOM      6  C   UNL     1       1.366   7.754  20.239  0.00  0.00    +0.000 C 
ENDROOT
BRANCH   4   7
ATOM      7  N   UNL     1       0.916  11.423  19.120  0.00  0.00    +0.000 N 
ATOM      8  N   UNL     1       2.014  12.111  18.734  0.00  0.00    +0.000 NA
ATOM      9  C   UNL     1       1.741  13.372  19.060  0.00  0.00    +0.000 A 
ATOM     10  C   UNL     1       0.448  13.528  19.591  0.00  0.00    +0.000 A 
ATOM     11  C   UNL     1      -0.315  14.616  20.055  0.00  0.00    +0.000 A 
ATOM     12  C   UNL     1      -1.625  14.387  20.498  0.00  0.00    +0.000 A 
ATOM     13  C   UNL     1      -2.159  13.094  20.475  0.00  0.00    +0.000 A 
ATOM     14  C   UNL     1      -1.405  11.995  20.030  0.00  0.00    +0.000 A 
ATOM     15  C   UNL     1      -0.092  12.241  19.597  0.00  0.00    +0.000 A 
BRANCH  12  16
ATOM     16  C   UNL     1      -2.420  15.485  20.969  0.00  0.00    +0.000 C 
ATOM     17  N   UNL     1      -3.062  16.373  21.350  0.00  0.00    +0.000 NA
ENDBRANCH  12  16
ENDBRANCH   4   7
BRANCH   1  24
ATOM     18  C   UNL     1       4.291   2.886  17.889  0.00  0.00    +0.000 C 
ATOM     19  C   UNL     1       3.206   3.891  18.279  0.00  0.00    +0.000 C 
ATOM     20  C   UNL     1       1.900   3.493  17.563  0.00  0.00    +0.000 C 
ATOM     21  O   UNL     1       2.934   3.799  19.692  0.00  0.00    +0.000 OA
ATOM     22  C   UNL     1       2.480   5.025  20.111  0.00  0.00    +0.000 C 
ATOM     23  O   UNL     1       1.903   5.194  21.169  0.00  0.00    +0.000 OA
ATOM     24  N   UNL     1       2.797   5.984  19.176  0.00  0.00    +0.000 N 
ATOM     25  C   UNL     1       3.536   5.388  18.079  0.00  0.00    +0.000 C 
BRANCH  25  26
ATOM     26  C   UNL     1       5.006   5.784  18.140  0.00  0.00    +0.000 A 
ATOM     27  C   UNL     1       5.854   5.331  19.166  0.00  0.00    +0.000 A 
ATOM     28  C   UNL     1       7.195   5.716  19.217  0.00  0.00    +0.000 A 
ATOM     29  C   UNL     1       7.709   6.576  18.252  0.00  0.00    +0.000 A 
ATOM     30  C   UNL     1       6.885   7.043  17.231  0.00  0.00    +0.000 A 
ATOM     31  C   UNL     1       5.545   6.649  17.172  0.00  0.00    +0.000 A 
ENDBRANCH  25  26
ENDBRANCH   1  24
TORSDOF 4
ENDMDL
MODEL 5
REMARK VINA RESULT:      -8.7      1.913      3.693
REMARK  Name = 
REMARK  6 active torsions:
REMARK  status: ('A' for Active; 'I' for Inactive)
REMARK    1  A    between atoms: C_1  and  C_2
REMARK    2  A    between atoms: C_2  and  C_3
REMARK    3  A    between atoms: N_7  and  C_8
REMARK    4  A    between atoms: C_11  and  N_12
REMARK    5  A    between atoms: C_17  and  C_18
REMARK    6  A    between atoms: C_25  and  C_26
REMARK                            x       y       z     vdW  Elec       q    Type
REMARK                         _______ _______ _______ _____ _____    ______ ____
ROOT
ATOM      1  C   UNL     1       2.383   7.488  18.577  0.00  0.00    +0.000 C 
ATOM      2  C   UNL     1       2.208   7.791  20.071  0.00  0.00    +0.000 C 
ATOM      3  C   UNL     1       0.999   8.710  20.299  0.00  0.00    +0.000 C 
ATOM      4  C   UNL     1       1.085  10.022  19.496  0.00  0.00    +0.000 C 
ATOM      5  C   UNL     1       1.439   9.760  18.012  0.00  0.00    +0.000 C 
ATOM      6  C   UNL     1       2.621   8.808  17.830  0.00  0.00    +0.000 C 
ENDROOT
BRANCH   4   7
ATOM      7  N   UNL     1      -0.155  10.800  19.631  0.00  0.00    +0.000 N 
ATOM      8  N   UNL     1      -0.766  11.250  18.511  0.00  0.00    +0.000 NA
ATOM      9  C   UNL     1      -1.779  11.985  18.963  0.00  0.00    +0.000 A 
ATOM     10  C   UNL     1      -1.879  11.964  20.367  0.00  0.00    +0.000 A 
ATOM     11  C   UNL     1      -2.753  12.534  21.312  0.00  0.00    +0.000 A 
ATOM     12  C   UNL     1      -2.555  12.259  22.671  0.00  0.00    +0.000 A 
ATOM     13  C   UNL     1      -1.505  11.428  23.075  0.00  0.00    +0.000 A 
ATOM     14  C   UNL     1      -0.614  10.865  22.146  0.00  0.00    +0.000 A 
ATOM     15  C   UNL     1      -0.822  11.157  20.788  0.00  0.00    +0.000 A 
BRANCH  12  16
ATOM     16  C   UNL     1      -3.440  12.826  23.649  0.00  0.00    +0.000 C 
ATOM     17  N   UNL     1      -4.155  13.285  24.439  0.00  0.00    +0.000 NA
ENDBRANCH  12  16
ENDBRANCH   4   7
BRANCH   1  24
ATOM     18  C   UNL     1       5.484   3.509  18.951  0.00  0.00    +0.000 C 
ATOM     19  C   UNL     1       5.127   4.984  18.756  0.00  0.00    +0.000 C 
ATOM     20  C   UNL     1       6.277   5.838  19.324  0.00  0.00    +0.000 C 
ATOM     21  O   UNL     1       5.056   5.291  17.349  0.00  0.00    +0.000 OA
ATOM     22  C   UNL     1       4.184   6.340  17.195  0.00  0.00    +0.000 C 
ATOM     23  O   UNL     1       4.125   7.011  16.180  0.00  0.00    +0.000 OA
ATOM     24  N   UNL     1       3.413   6.476  18.326  0.00  0.00    +0.000 N 
ATOM     25  C   UNL     1       3.752   5.446  19.289  0.00  0.00    +0.000 C 
BRANCH  25  26
ATOM     26  C   UNL     1       2.652   4.394  19.365  0.00  0.00    +0.000 A 
ATOM     27  C   UNL     1       2.102   3.812  18.208  0.00  0.00    +0.000 A 
ATOM     28  C   UNL     1       1.084   2.862  18.293  0.00  0.00    +0.000 A 
ATOM     29  C   UNL     1       0.583   2.488  19.537  0.00  0.00    +0.000 A 
ATOM     30  C   UNL     1       1.107   3.057  20.694  0.00  0.00    +0.000 A 
ATOM     31  C   UNL     1       2.136   4.001  20.611  0.00  0.00    +0.000 A 
ENDBRANCH  25  26
ENDBRANCH   1  24
TORSDOF 4
ENDMDL
MODEL 6
REMARK VINA RESULT:      -8.6      3.190      9.554
REMARK  Name = 
REMARK  6 active torsions:
REMARK  status: ('A' for Active; 'I' for Inactive)
REMARK    1  A    between atoms: C_1  and  C_2
REMARK    2  A    between atoms: C_2  and  C_3
REMARK    3  A    between atoms: N_7  and  C_8
REMARK    4  A    between atoms: C_11  and  N_12
REMARK    5  A    between atoms: C_17  and  C_18
REMARK    6  A    between atoms: C_25  and  C_26
REMARK                            x       y       z     vdW  Elec       q    Type
REMARK                         _______ _______ _______ _____ _____    ______ ____
ROOT
ATOM      1  C   UNL     1       0.156   9.732  20.405  0.00  0.00    +0.000 C 
ATOM      2  C   UNL     1       1.140  10.008  19.260  0.00  0.00    +0.000 C 
ATOM      3  C   UNL     1       1.616   8.694  18.626  0.00  0.00    +0.000 C 
ATOM      4  C   UNL     1       2.248   7.731  19.649  0.00  0.00    +0.000 C 
ATOM      5  C   UNL     1       1.357   7.568  20.904  0.00  0.00    +0.000 C 
ATOM      6  C   UNL     1       0.871   8.899  21.479  0.00  0.00    +0.000 C 
ENDROOT
BRANCH   4   7
ATOM      7  N   UNL     1       2.554   6.434  19.027  0.00  0.00    +0.000 N 
ATOM      8  N   UNL     1       1.930   5.327  19.489  0.00  0.00    +0.000 NA
ATOM      9  C   UNL     1       2.484   4.330  18.805  0.00  0.00    +0.000 A 
ATOM     10  C   UNL     1       3.415   4.778  17.850  0.00  0.00    +0.000 A 
ATOM     11  C   UNL     1       4.234   4.157  16.887  0.00  0.00    +0.000 A 
ATOM     12  C   UNL     1       5.037   4.956  16.063  0.00  0.00    +0.000 A 
ATOM     13  C   UNL     1       5.020   6.348  16.200  0.00  0.00    +0.000 A 
ATOM     14  C   UNL     1       4.221   6.982  17.166  0.00  0.00    +0.000 A 
ATOM     15  C   UNL     1       3.428   6.166  17.989  0.00  0.00    +0.000 A 
BRANCH  12  16
ATOM     16  C   UNL     1       5.874   4.340  15.072  0.00  0.00    +0.000 C 
ATOM     17  N   UNL     1       6.549   3.842  14.271  0.00  0.00    +0.000 NA
ENDBRANCH  12  16
ENDBRANCH   4   7
BRANCH   1  24
ATOM     18  C   UNL     1      -1.891  14.337  20.843  0.00  0.00    +0.000 C 
ATOM     19  C   UNL     1      -0.910  13.211  21.175  0.00  0.00    +0.000 C 
ATOM     20  C   UNL     1       0.426  13.846  21.607  0.00  0.00    +0.000 C 
ATOM     21  O   UNL     1      -1.386  12.463  22.313  0.00  0.00    +0.000 OA
ATOM     22  C   UNL     1      -0.891  11.187  22.210  0.00  0.00    +0.000 C 
ATOM     23  O   UNL     1      -0.873  10.404  23.142  0.00  0.00    +0.000 OA
ATOM     24  N   UNL     1      -0.460  10.956  20.924  0.00  0.00    +0.000 N 
ATOM     25  C   UNL     1      -0.705  12.122  20.097  0.00  0.00    +0.000 C 
BRANCH  25  26
ATOM     26  C   UNL     1      -1.864  11.873  19.140  0.00  0.00    +0.000 A 
ATOM     27  C   UNL     1      -1.652  11.557  17.786  0.00  0.00    +0.000 A 
ATOM     28  C   UNL     1      -2.724  11.347  16.917  0.00  0.00    +0.000 A 
ATOM     29  C   UNL     1      -4.030  11.466  17.383  0.00  0.00    +0.000 A 
ATOM     30  C   UNL     1      -4.263  11.786  18.718  0.00  0.00    +0.000 A 
ATOM     31  C   UNL     1      -3.190  11.985  19.592  0.00  0.00    +0.000 A 
ENDBRANCH  25  26
ENDBRANCH   1  24
TORSDOF 4
ENDMDL
MODEL 7
REMARK VINA RESULT:      -8.5      2.835      4.614
REMARK  Name = 
REMARK  6 active torsions:
REMARK  status: ('A' for Active; 'I' for Inactive)
REMARK    1  A    between atoms: C_1  and  C_2
REMARK    2  A    between atoms: C_2  and  C_3
REMARK    3  A    between atoms: N_7  and  C_8
REMARK    4  A    between atoms: C_11  and  N_12
REMARK    5  A    between atoms: C_17  and  C_18
REMARK    6  A    between atoms: C_25  and  C_26
REMARK                            x       y       z     vdW  Elec       q    Type
REMARK                         _______ _______ _______ _____ _____    ______ ____
ROOT
ATOM      1  C   UNL     1       2.433   7.541  18.637  0.00  0.00    +0.000 C 
ATOM      2  C   UNL     1       2.190   7.741  20.139  0.00  0.00    +0.000 C 
ATOM      3  C   UNL     1       1.030   8.718  20.376  0.00  0.00    +0.000 C 
ATOM      4  C   UNL     1       1.244  10.078  19.686  0.00  0.00    +0.000 C 
ATOM      5  C   UNL     1       1.667   9.908  18.207  0.00  0.00    +0.000 C 
ATOM      6  C   UNL     1       2.796   8.896  18.012  0.00  0.00    +0.000 C 
ENDROOT
BRANCH   4   7
ATOM      7  N   UNL     1       0.049  10.925  19.817  0.00  0.00    +0.000 N 
ATOM      8  N   UNL     1       0.012  11.849  20.804  0.00  0.00    +0.000 NA
ATOM      9  C   UNL     1      -1.210  12.368  20.719  0.00  0.00    +0.000 A 
ATOM     10  C   UNL     1      -1.949  11.844  19.643  0.00  0.00    +0.000 A 
ATOM     11  C   UNL     1      -3.237  12.062  19.117  0.00  0.00    +0.000 A 
ATOM     12  C   UNL     1      -3.633  11.353  17.975  0.00  0.00    +0.000 A 
ATOM     13  C   UNL     1      -2.756  10.446  17.372  0.00  0.00    +0.000 A 
ATOM     14  C   UNL     1      -1.474  10.205  17.893  0.00  0.00    +0.000 A 
ATOM     15  C   UNL     1      -1.096  10.917  19.042  0.00  0.00    +0.000 A 
BRANCH  12  16
ATOM     16  C   UNL     1      -4.940  11.568  17.421  0.00  0.00    +0.000 C 
ATOM     17  N   UNL     1      -5.996  11.741  16.974  0.00  0.00    +0.000 NA
ENDBRANCH  12  16
ENDBRANCH   4   7
BRANCH   1  24
ATOM     18  C   UNL     1       5.366   3.431  18.938  0.00  0.00    +0.000 C 
ATOM     19  C   UNL     1       5.068   4.919  18.748  0.00  0.00    +0.000 C 
ATOM     20  C   UNL     1       6.270   5.723  19.283  0.00  0.00    +0.000 C 
ATOM     21  O   UNL     1       4.972   5.227  17.343  0.00  0.00    +0.000 OA
ATOM     22  C   UNL     1       4.143   6.313  17.209  0.00  0.00    +0.000 C 
ATOM     23  O   UNL     1       4.085   6.985  16.195  0.00  0.00    +0.000 OA
ATOM     24  N   UNL     1       3.410   6.485  18.361  0.00  0.00    +0.000 N 
ATOM     25  C   UNL     1       3.730   5.442  19.318  0.00  0.00    +0.000 C 
BRANCH  25  26
ATOM     26  C   UNL     1       2.587   4.440  19.426  0.00  0.00    +0.000 A 
ATOM     27  C   UNL     1       1.929   3.941  18.288  0.00  0.00    +0.000 A 
ATOM     28  C   UNL     1       0.873   3.036  18.404  0.00  0.00    +0.000 A 
ATOM     29  C   UNL     1       0.445   2.625  19.663  0.00  0.00    +0.000 A 
ATOM     30  C   UNL     1       1.077   3.111  20.804  0.00  0.00    +0.000 A 
ATOM     31  C   UNL     1       2.143   4.010  20.688  0.00  0.00    +0.000 A 
ENDBRANCH  25  26
ENDBRANCH   1  24
TORSDOF 4
ENDMDL
MODEL 8
REMARK VINA RESULT:      -8.4      2.407      3.247
REMARK  Name = 
REMARK  6 active torsions:
REMARK  status: ('A' for Active; 'I' for Inactive)
REMARK    1  A    between atoms: C_1  and  C_2
REMARK    2  A    between atoms: C_2  and  C_3
REMARK    3  A    between atoms: N_7  and  C_8
REMARK    4  A    between atoms: C_11  and  N_12
REMARK    5  A    between atoms: C_17  and  C_18
REMARK    6  A    between atoms: C_25  and  C_26
REMARK                            x       y       z     vdW  Elec       q    Type
REMARK                         _______ _______ _______ _____ _____    ______ ____
ROOT
ATOM      1  C   UNL     1       1.960   6.287  19.153  0.00  0.00    +0.000 C 
ATOM      2  C   UNL     1       2.068   7.106  20.446  0.00  0.00    +0.000 C 
ATOM      3  C   UNL     1       1.304   8.430  20.314  0.00  0.00    +0.000 C 
ATOM      4  C   UNL     1       1.769   9.272  19.111  0.00  0.00    +0.000 C 
ATOM      5  C   UNL     1       1.842   8.426  17.817  0.00  0.00    +0.000 C 
ATOM      6  C   UNL     1       2.575   7.097  18.003  0.00  0.00    +0.000 C 
ENDROOT
BRANCH   4   7
ATOM      7  N   UNL     1       0.914  10.457  18.940  0.00  0.00    +0.000 N 
ATOM      8  N   UNL     1       1.410  11.670  19.274  0.00  0.00    +0.000 NA
ATOM      9  C   UNL     1       0.385  12.501  19.102  0.00  0.00    +0.000 A 
ATOM     10  C   UNL     1      -0.757  11.855  18.592  0.00  0.00    +0.000 A 
ATOM     11  C   UNL     1      -2.052  12.264  18.223  0.00  0.00    +0.000 A 
ATOM     12  C   UNL     1      -2.943  11.313  17.707  0.00  0.00    +0.000 A 
ATOM     13  C   UNL     1      -2.543   9.981  17.562  0.00  0.00    +0.000 A 
ATOM     14  C   UNL     1      -1.260   9.553  17.941  0.00  0.00    +0.000 A 
ATOM     15  C   UNL     1      -0.383  10.517  18.464  0.00  0.00    +0.000 A 
BRANCH  12  16
ATOM     16  C   UNL     1      -4.266  11.714  17.319  0.00  0.00    +0.000 C 
ATOM     17  N   UNL     1      -5.335  12.038  17.006  0.00  0.00    +0.000 NA
ENDBRANCH  12  16
ENDBRANCH   4   7
BRANCH   1  24
ATOM     18  C   UNL     1       4.285   1.878  18.295  0.00  0.00    +0.000 C 
ATOM     19  C   UNL     1       3.128   2.783  18.721  0.00  0.00    +0.000 C 
ATOM     20  C   UNL     1       1.806   2.064  18.389  0.00  0.00    +0.000 C 
ATOM     21  O   UNL     1       3.141   2.957  20.153  0.00  0.00    +0.000 OA
ATOM     22  C   UNL     1       2.559   4.170  20.430  0.00  0.00    +0.000 C 
ATOM     23  O   UNL     1       2.166   4.480  21.540  0.00  0.00    +0.000 OA
ATOM     24  N   UNL     1       2.522   4.941  19.291  0.00  0.00    +0.000 N 
ATOM     25  C   UNL     1       3.142   4.233  18.187  0.00  0.00    +0.000 C 
BRANCH  25  26
ATOM     26  C   UNL     1       4.503   4.833  17.855  0.00  0.00    +0.000 A 
ATOM     27  C   UNL     1       5.414   5.204  18.861  0.00  0.00    +0.000 A 
ATOM     28  C   UNL     1       6.650   5.767  18.542  0.00  0.00    +0.000 A 
ATOM     29  C   UNL     1       6.991   5.987  17.211  0.00  0.00    +0.000 A 
ATOM     30  C   UNL     1       6.101   5.635  16.200  0.00  0.00    +0.000 A 
ATOM     31  C   UNL     1       4.867   5.059  16.517  0.00  0.00    +0.000 A 
ENDBRANCH  25  26
ENDBRANCH   1  24
TORSDOF 4
ENDMDL
MODEL 9
REMARK VINA RESULT:      -8.4      3.061      9.214
REMARK  Name = 
REMARK  6 active torsions:
REMARK  status: ('A' for Active; 'I' for Inactive)
REMARK    1  A    between atoms: C_1  and  C_2
REMARK    2  A    between atoms: C_2  and  C_3
REMARK    3  A    between atoms: N_7  and  C_8
REMARK    4  A    between atoms: C_11  and  N_12
REMARK    5  A    between atoms: C_17  and  C_18
REMARK    6  A    between atoms: C_25  and  C_26
REMARK                            x       y       z     vdW  Elec       q    Type
REMARK                         _______ _______ _______ _____ _____    ______ ____
ROOT
ATOM      1  C   UNL     1      -0.124  10.071  19.658  0.00  0.00    +0.000 C 
ATOM      2  C   UNL     1       0.869  10.243  18.501  0.00  0.00    +0.000 C 
ATOM      3  C   UNL     1       1.492   8.895  18.116  0.00  0.00    +0.000 C 
ATOM      4  C   UNL     1       2.176   8.191  19.303  0.00  0.00    +0.000 C 
ATOM      5  C   UNL     1       1.261   8.157  20.551  0.00  0.00    +0.000 C 
ATOM      6  C   UNL     1       0.629   9.511  20.875  0.00  0.00    +0.000 C 
ENDROOT
BRANCH   4   7
ATOM      7  N   UNL     1       2.628   6.844  18.924  0.00  0.00    +0.000 N 
ATOM      8  N   UNL     1       2.172   5.782  19.627  0.00  0.00    +0.000 NA
ATOM      9  C   UNL     1       2.828   4.744  19.114  0.00  0.00    +0.000 A 
ATOM     10  C   UNL     1       3.657   5.105  18.036  0.00  0.00    +0.000 A 
ATOM     11  C   UNL     1       4.515   4.411  17.162  0.00  0.00    +0.000 A 
ATOM     12  C   UNL     1       5.177   5.123  16.153  0.00  0.00    +0.000 A 
ATOM     13  C   UNL     1       4.981   6.502  16.021  0.00  0.00    +0.000 A 
ATOM     14  C   UNL     1       4.141   7.212  16.895  0.00  0.00    +0.000 A 
ATOM     15  C   UNL     1       3.492   6.485  17.905  0.00  0.00    +0.000 A 
BRANCH  12  16
ATOM     16  C   UNL     1       6.051   4.430  15.249  0.00  0.00    +0.000 C 
ATOM     17  N   UNL     1       6.757   3.871  14.519  0.00  0.00    +0.000 NA
ENDBRANCH  12  16
ENDBRANCH   4   7
BRANCH   1  24
ATOM     18  C   UNL     1      -1.573  14.585  21.420  0.00  0.00    +0.000 C 
ATOM     19  C   UNL     1      -1.713  13.088  21.143  0.00  0.00    +0.000 C 
ATOM     20  C   UNL     1      -2.540  12.462  22.283  0.00  0.00    +0.000 C 
ATOM     21  O   UNL     1      -2.472  12.879  19.935  0.00  0.00    +0.000 OA
ATOM     22  C   UNL     1      -2.075  11.681  19.394  0.00  0.00    +0.000 C 
ATOM     23  O   UNL     1      -2.716  11.092  18.543  0.00  0.00    +0.000 OA
ATOM     24  N   UNL     1      -0.873  11.297  19.943  0.00  0.00    +0.000 N 
ATOM     25  C   UNL     1      -0.408  12.300  20.882  0.00  0.00    +0.000 C 
BRANCH  25  26
ATOM     26  C   UNL     1       0.764  13.081  20.301  0.00  0.00    +0.000 A 
ATOM     27  C   UNL     1       0.673  13.743  19.063  0.00  0.00    +0.000 A 
ATOM     28  C   UNL     1       1.762  14.441  18.537  0.00  0.00    +0.000 A 
ATOM     29  C   UNL     1       2.967  14.475  19.231  0.00  0.00    +0.000 A 
ATOM     30  C   UNL     1       3.082  13.820  20.454  0.00  0.00    +0.000 A 
ATOM     31  C   UNL     1       1.989  13.131  20.988  0.00  0.00    +0.000 A 
ENDBRANCH  25  26
ENDBRANCH   1  24
TORSDOF 4
ENDMDL
