MODEL 1
REMARK VINA RESULT:      -6.4      0.000      0.000
REMARK  Name = 
REMARK  7 active torsions:
REMARK  status: ('A' for Active; 'I' for Inactive)
REMARK    1  A    between atoms: C_1  and  S_2
REMARK    2  A    between atoms: S_2  and  N_5
REMARK    3  A    between atoms: C_7  and  C_8
REMARK    4  A    between atoms: C_8  and  S_9
REMARK    5  A    between atoms: S_9  and  N_12
REMARK    6  A    between atoms: C_14  and  C_15
REMARK    7  A    between atoms: C_18  and  C_19
REMARK                            x       y       z     vdW  Elec       q    Type
REMARK                         _______ _______ _______ _____ _____    ______ ____
ROOT
ATOM      1  S   UNL     1       1.948   3.427  18.774  0.00  0.00    +0.000 S 
ATOM      2  O   UNL     1       0.705   2.756  18.459  0.00  0.00    +0.000 OA
ATOM      3  O   UNL     1       2.878   2.856  19.732  0.00  0.00    +0.000 OA
ENDROOT
BRANCH   1   4
ATOM      4  N   UNL     1       1.555   4.977  19.319  0.00  0.00    +0.000 NA
ATOM      5  C   UNL     1       1.356   5.189  20.793  0.00  0.00    +0.000 C 
ATOM      6  C   UNL     1       1.870   6.636  20.678  0.00  0.00    +0.000 C 
ATOM      7  C   UNL     1       2.469   6.175  19.314  0.00  0.00    +0.000 C 
BRANCH   6   8
ATOM      8  C   UNL     1       0.845   7.748  20.824  0.00  0.00    +0.000 C 
ATOM      9  C   UNL     1       0.738   8.546  22.105  0.00  0.00    +0.000 C 
ATOM     10  C   UNL     1       1.231   9.204  20.851  0.00  0.00    +0.000 C 
ENDBRANCH   6   8
BRANCH   7  11
ATOM     11  C   UNL     1       2.326   6.997  18.055  0.00  0.00    +0.000 C 
ATOM     12  C   UNL     1       2.757   8.440  17.947  0.00  0.00    +0.000 C 
ATOM     13  C   UNL     1       3.515   7.381  17.202  0.00  0.00    +0.000 C 
ENDBRANCH   7  11
ENDBRANCH   1   4
BRANCH   1  14
ATOM     14  C   UNL     1       2.820   3.724  17.241  0.00  0.00    +0.000 C 
BRANCH  14  17
ATOM     15  N   UNL     1       5.753   4.634  16.900  0.00  0.00    +0.000 NA
ATOM     16  C   UNL     1       5.211   3.412  16.235  0.00  0.00    +0.000 C 
ATOM     17  C   UNL     1       4.243   3.207  17.417  0.00  0.00    +0.000 C 
ATOM     18  C   UNL     1       5.193   4.147  18.197  0.00  0.00    +0.000 C 
BRANCH  15  20
ATOM     19  C   UNL     1       7.287   6.693  17.640  0.00  0.00    +0.000 C 
ATOM     20  S   UNL     1       7.330   5.198  16.679  0.00  0.00    +0.000 S 
ATOM     21  O   UNL     1       7.479   5.552  15.284  0.00  0.00    +0.000 OA
ATOM     22  O   UNL     1       8.228   4.261  17.320  0.00  0.00    +0.000 OA
ENDBRANCH  15  20
ENDBRANCH  14  17
ENDBRANCH   1  14
TORSDOF 6
ENDMDL
MODEL 2
REMARK VINA RESULT:      -6.4      2.983      4.502
REMARK  Name = 
REMARK  7 active torsions:
REMARK  status: ('A' for Active; 'I' for Inactive)
REMARK    1  A    between atoms: C_1  and  S_2
REMARK    2  A    between atoms: S_2  and  N_5
REMARK    3  A    between atoms: C_7  and  C_8
REMARK    4  A    between atoms: C_8  and  S_9
REMARK    5  A    between atoms: S_9  and  N_12
REMARK    6  A    between atoms: C_14  and  C_15
REMARK    7  A    between atoms: C_18  and  C_19
REMARK                            x       y       z     vdW  Elec       q    Type
REMARK                         _______ _______ _______ _____ _____    ______ ____
ROOT
ATOM      1  S   UNL     1       6.525   5.302  18.046  0.00  0.00    +0.000 S 
ATOM      2  O   UNL     1       7.397   4.912  19.133  0.00  0.00    +0.000 OA
ATOM      3  O   UNL     1       6.440   6.689  17.623  0.00  0.00    +0.000 OA
ENDROOT
BRANCH   1   4
ATOM      4  N   UNL     1       4.963   4.804  18.454  0.00  0.00    +0.000 NA
ATOM      5  C   UNL     1       4.800   3.781  19.542  0.00  0.00    +0.000 C 
ATOM      6  C   UNL     1       3.444   4.391  19.943  0.00  0.00    +0.000 C 
ATOM      7  C   UNL     1       3.919   5.643  19.145  0.00  0.00    +0.000 C 
BRANCH   6   8
ATOM      8  C   UNL     1       2.198   3.589  19.604  0.00  0.00    +0.000 C 
ATOM      9  C   UNL     1       1.525   2.718  20.642  0.00  0.00    +0.000 C 
ATOM     10  C   UNL     1       0.836   3.950  20.136  0.00  0.00    +0.000 C 
ENDBRANCH   6   8
BRANCH   7  11
ATOM     11  C   UNL     1       3.022   6.358  18.163  0.00  0.00    +0.000 C 
ATOM     12  C   UNL     1       2.110   7.500  18.545  0.00  0.00    +0.000 C 
ATOM     13  C   UNL     1       3.309   7.765  17.684  0.00  0.00    +0.000 C 
ENDBRANCH   7  11
ENDBRANCH   1   4
BRANCH   1  14
ATOM     14  C   UNL     1       6.933   4.298  16.623  0.00  0.00    +0.000 C 
BRANCH  14  17
ATOM     15  N   UNL     1       6.323   3.850  13.627  0.00  0.00    +0.000 NA
ATOM     16  C   UNL     1       7.324   4.851  14.099  0.00  0.00    +0.000 C 
ATOM     17  C   UNL     1       6.495   5.066  15.381  0.00  0.00    +0.000 C 
ATOM     18  C   UNL     1       5.332   4.426  14.587  0.00  0.00    +0.000 C 
BRANCH  15  20
ATOM     19  C   UNL     1       6.567   1.844  11.878  0.00  0.00    +0.000 C 
ATOM     20  S   UNL     1       6.016   3.531  11.996  0.00  0.00    +0.000 S 
ATOM     21  O   UNL     1       6.905   4.361  11.212  0.00  0.00    +0.000 OA
ATOM     22  O   UNL     1       4.583   3.564  11.802  0.00  0.00    +0.000 OA
ENDBRANCH  15  20
ENDBRANCH  14  17
ENDBRANCH   1  14
TORSDOF 6
ENDMDL
MODEL 3
REMARK VINA RESULT:      -6.4      3.039      6.740
REMARK  Name = 
REMARK  7 active torsions:
REMARK  status: ('A' for Active; 'I' for Inactive)
REMARK    1  A    between atoms: C_1  and  S_2
REMARK    2  A    between atoms: S_2  and  N_5
REMARK    3  A    between atoms: C_7  and  C_8
REMARK    4  A    between atoms: C_8  and  S_9
REMARK    5  A    between atoms: S_9  and  N_12
REMARK    6  A    between atoms: C_14  and  C_15
REMARK    7  A    between atoms: C_18  and  C_19
REMARK                            x       y       z     vdW  Elec       q    Type
REMARK                         _______ _______ _______ _____ _____    ______ ____
ROOT
ATOM      1  S   UNL     1       4.382   4.213  18.959  0.00  0.00    +0.000 S 
ATOM      2  O   UNL     1       5.261   3.658  19.967  0.00  0.00    +0.000 OA
ATOM      3  O   UNL     1       3.096   3.599  18.677  0.00  0.00    +0.000 OA
ENDROOT
BRANCH   1   4
ATOM      4  N   UNL     1       5.248   4.255  17.509  0.00  0.00    +0.000 NA
ATOM      5  C   UNL     1       4.560   3.807  16.252  0.00  0.00    +0.000 C 
ATOM      6  C   UNL     1       5.395   4.793  15.415  0.00  0.00    +0.000 C 
ATOM      7  C   UNL     1       5.686   5.497  16.776  0.00  0.00    +0.000 C 
BRANCH   6   8
ATOM      8  C   UNL     1       6.470   4.202  14.518  0.00  0.00    +0.000 C 
ATOM      9  C   UNL     1       6.161   3.800  13.092  0.00  0.00    +0.000 C 
ATOM     10  C   UNL     1       7.067   4.963  13.363  0.00  0.00    +0.000 C 
ENDBRANCH   6   8
BRANCH   7  11
ATOM     11  C   UNL     1       7.074   5.935  17.174  0.00  0.00    +0.000 C 
ATOM     12  C   UNL     1       7.392   7.304  17.726  0.00  0.00    +0.000 C 
ATOM     13  C   UNL     1       7.484   6.104  18.621  0.00  0.00    +0.000 C 
ENDBRANCH   7  11
ENDBRANCH   1   4
BRANCH   1  14
ATOM     14  C   UNL     1       4.117   5.939  19.346  0.00  0.00    +0.000 C 
BRANCH  14  17
ATOM     15  N   UNL     1       1.966   7.895  20.392  0.00  0.00    +0.000 NA
ATOM     16  C   UNL     1       1.865   6.418  20.583  0.00  0.00    +0.000 C 
ATOM     17  C   UNL     1       2.618   6.203  19.255  0.00  0.00    +0.000 C 
ATOM     18  C   UNL     1       2.225   7.665  18.938  0.00  0.00    +0.000 C 
BRANCH  15  20
ATOM     19  C   UNL     1       0.679  10.112  19.637  0.00  0.00    +0.000 C 
ATOM     20  S   UNL     1       0.844   8.997  21.012  0.00  0.00    +0.000 S 
ATOM     21  O   UNL     1       1.480   9.703  22.103  0.00  0.00    +0.000 OA
ATOM     22  O   UNL     1      -0.409   8.297  21.192  0.00  0.00    +0.000 OA
ENDBRANCH  15  20
ENDBRANCH  14  17
ENDBRANCH   1  14
TORSDOF 6
ENDMDL
MODEL 4
REMARK VINA RESULT:      -6.3      3.430      6.724
REMARK  Name = 
REMARK  7 active torsions:
REMARK  status: ('A' for Active; 'I' for Inactive)
REMARK    1  A    between atoms: C_1  and  S_2
REMARK    2  A    between atoms: S_2  and  N_5
REMARK    3  A    between atoms: C_7  and  C_8
REMARK    4  A    between atoms: C_8  and  S_9
REMARK    5  A    between atoms: S_9  and  N_12
REMARK    6  A    between atoms: C_14  and  C_15
REMARK    7  A    between atoms: C_18  and  C_19
REMARK                            x       y       z     vdW  Elec       q    Type
REMARK                         _______ _______ _______ _____ _____    ______ ____
ROOT
ATOM      1  S   UNL     1       4.026   4.691  18.802  0.00  0.00    +0.000 S 
ATOM      2  O   UNL     1       4.810   5.388  19.800  0.00  0.00    +0.000 OA
ATOM      3  O   UNL     1       3.452   3.388  19.085  0.00  0.00    +0.000 OA
ENDROOT
BRANCH   1   4
ATOM      4  N   UNL     1       4.998   4.525  17.430  0.00  0.00    +0.000 NA
ATOM      5  C   UNL     1       4.350   4.111  16.140  0.00  0.00    +0.000 C 
ATOM      6  C   UNL     1       5.385   4.917  15.334  0.00  0.00    +0.000 C 
ATOM      7  C   UNL     1       5.672   5.646  16.682  0.00  0.00    +0.000 C 
BRANCH   6   8
ATOM      8  C   UNL     1       6.426   4.126  14.558  0.00  0.00    +0.000 C 
ATOM      9  C   UNL     1       6.198   3.749  13.110  0.00  0.00    +0.000 C 
ATOM     10  C   UNL     1       7.262   4.743  13.468  0.00  0.00    +0.000 C 
ENDBRANCH   6   8
BRANCH   7  11
ATOM     11  C   UNL     1       7.076   5.900  17.176  0.00  0.00    +0.000 C 
ATOM     12  C   UNL     1       7.653   7.281  17.378  0.00  0.00    +0.000 C 
ATOM     13  C   UNL     1       7.360   6.417  18.569  0.00  0.00    +0.000 C 
ENDBRANCH   7  11
ENDBRANCH   1   4
BRANCH   1  14
ATOM     14  C   UNL     1       2.717   5.785  18.265  0.00  0.00    +0.000 C 
BRANCH  14  17
ATOM     15  N   UNL     1       1.380   8.516  18.815  0.00  0.00    +0.000 NA
ATOM     16  C   UNL     1       2.560   8.369  17.912  0.00  0.00    +0.000 C 
ATOM     17  C   UNL     1       3.056   7.185  18.765  0.00  0.00    +0.000 C 
ATOM     18  C   UNL     1       2.114   7.739  19.860  0.00  0.00    +0.000 C 
BRANCH  15  20
ATOM     19  C   UNL     1      -0.646   9.932  17.798  0.00  0.00    +0.000 C 
ATOM     20  S   UNL     1       0.583   9.982  19.082  0.00  0.00    +0.000 S 
ATOM     21  O   UNL     1       1.515  11.048  18.786  0.00  0.00    +0.000 OA
ATOM     22  O   UNL     1      -0.083   9.895  20.364  0.00  0.00    +0.000 OA
ENDBRANCH  15  20
ENDBRANCH  14  17
ENDBRANCH   1  14
TORSDOF 6
ENDMDL
MODEL 5
REMARK VINA RESULT:      -6.2      2.799      6.409
REMARK  Name = 
REMARK  7 active torsions:
REMARK  status: ('A' for Active; 'I' for Inactive)
REMARK    1  A    between atoms: C_1  and  S_2
REMARK    2  A    between atoms: S_2  and  N_5
REMARK    3  A    between atoms: C_7  and  C_8
REMARK    4  A    between atoms: C_8  and  S_9
REMARK    5  A    between atoms: S_9  and  N_12
REMARK    6  A    between atoms: C_14  and  C_15
REMARK    7  A    between atoms: C_18  and  C_19
REMARK                            x       y       z     vdW  Elec       q    Type
REMARK                         _______ _______ _______ _____ _____    ______ ____
ROOT
ATOM      1  S   UNL     1       4.030   3.396  19.213  0.00  0.00    +0.000 S 
ATOM      2  O   UNL     1       4.994   2.603  19.945  0.00  0.00    +0.000 OA
ATOM      3  O   UNL     1       2.780   2.813  18.761  0.00  0.00    +0.000 OA
ENDROOT
BRANCH   1   4
ATOM      4  N   UNL     1       4.820   4.012  17.852  0.00  0.00    +0.000 NA
ATOM      5  C   UNL     1       3.997   4.360  16.644  0.00  0.00    +0.000 C 
ATOM      6  C   UNL     1       4.980   5.484  16.269  0.00  0.00    +0.000 C 
ATOM      7  C   UNL     1       5.472   5.366  17.744  0.00  0.00    +0.000 C 
BRANCH   6   8
ATOM      8  C   UNL     1       5.867   5.251  15.057  0.00  0.00    +0.000 C 
ATOM      9  C   UNL     1       6.672   3.977  14.914  0.00  0.00    +0.000 C 
ATOM     10  C   UNL     1       5.525   4.247  13.987  0.00  0.00    +0.000 C 
ENDBRANCH   6   8
BRANCH   7  11
ATOM     11  C   UNL     1       6.938   5.323  18.102  0.00  0.00    +0.000 C 
ATOM     12  C   UNL     1       7.790   6.557  18.283  0.00  0.00    +0.000 C 
ATOM     13  C   UNL     1       7.447   5.710  19.473  0.00  0.00    +0.000 C 
ENDBRANCH   7  11
ENDBRANCH   1   4
BRANCH   1  14
ATOM     14  C   UNL     1       3.660   4.852  20.184  0.00  0.00    +0.000 C 
BRANCH  14  17
ATOM     15  N   UNL     1       1.689   7.171  20.717  0.00  0.00    +0.000 NA
ATOM     16  C   UNL     1       1.258   5.742  20.701  0.00  0.00    +0.000 C 
ATOM     17  C   UNL     1       2.351   5.431  19.659  0.00  0.00    +0.000 C 
ATOM     18  C   UNL     1       2.364   6.957  19.400  0.00  0.00    +0.000 C 
BRANCH  15  20
ATOM     19  C   UNL     1       1.507   9.205  22.441  0.00  0.00    +0.000 C 
ATOM     20  S   UNL     1       0.652   8.457  21.073  0.00  0.00    +0.000 S 
ATOM     21  O   UNL     1      -0.591   7.897  21.558  0.00  0.00    +0.000 OA
ATOM     22  O   UNL     1       0.682   9.372  19.953  0.00  0.00    +0.000 OA
ENDBRANCH  15  20
ENDBRANCH  14  17
ENDBRANCH   1  14
TORSDOF 6
ENDMDL
MODEL 6
REMARK VINA RESULT:      -6.1      3.448      6.930
REMARK  Name = 
REMARK  7 active torsions:
REMARK  status: ('A' for Active; 'I' for Inactive)
REMARK    1  A    between atoms: C_1  and  S_2
REMARK    2  A    between atoms: S_2  and  N_5
REMARK    3  A    between atoms: C_7  and  C_8
REMARK    4  A    between atoms: C_8  and  S_9
REMARK    5  A    between atoms: S_9  and  N_12
REMARK    6  A    between atoms: C_14  and  C_15
REMARK    7  A    between atoms: C_18  and  C_19
REMARK                            x       y       z     vdW  Elec       q    Type
REMARK                         _______ _______ _______ _____ _____    ______ ____
ROOT
ATOM      1  S   UNL     1       4.143   5.076  18.751  0.00  0.00    +0.000 S 
ATOM      2  O   UNL     1       4.955   4.771  19.910  0.00  0.00    +0.000 OA
ATOM      3  O   UNL     1       2.884   4.388  18.525  0.00  0.00    +0.000 OA
ENDROOT
BRANCH   1   4
ATOM      4  N   UNL     1       5.106   4.824  17.386  0.00  0.00    +0.000 NA
ATOM      5  C   UNL     1       4.452   4.315  16.133  0.00  0.00    +0.000 C 
ATOM      6  C   UNL     1       5.474   5.073  15.265  0.00  0.00    +0.000 C 
ATOM      7  C   UNL     1       5.763   5.897  16.557  0.00  0.00    +0.000 C 
BRANCH   6   8
ATOM      8  C   UNL     1       6.516   4.239  14.538  0.00  0.00    +0.000 C 
ATOM      9  C   UNL     1       6.272   3.742  13.130  0.00  0.00    +0.000 C 
ATOM     10  C   UNL     1       7.322   4.780  13.386  0.00  0.00    +0.000 C 
ENDBRANCH   6   8
BRANCH   7  11
ATOM     11  C   UNL     1       7.168   6.197  17.021  0.00  0.00    +0.000 C 
ATOM     12  C   UNL     1       7.649   7.581  17.386  0.00  0.00    +0.000 C 
ATOM     13  C   UNL     1       7.487   6.545  18.459  0.00  0.00    +0.000 C 
ENDBRANCH   7  11
ENDBRANCH   1   4
BRANCH   1  14
ATOM     14  C   UNL     1       3.839   6.839  18.738  0.00  0.00    +0.000 C 
BRANCH  14  17
ATOM     15  N   UNL     1       1.799   8.998  19.587  0.00  0.00    +0.000 NA
ATOM     16  C   UNL     1       1.852   7.652  20.227  0.00  0.00    +0.000 C 
ATOM     17  C   UNL     1       2.337   7.045  18.895  0.00  0.00    +0.000 C 
ATOM     18  C   UNL     1       1.778   8.334  18.247  0.00  0.00    +0.000 C 
BRANCH  15  20
ATOM     19  C   UNL     1       1.251  11.547  18.997  0.00  0.00    +0.000 C 
ATOM     20  S   UNL     1       0.745  10.225  20.074  0.00  0.00    +0.000 S 
ATOM     21  O   UNL     1       1.085  10.583  21.433  0.00  0.00    +0.000 OA
ATOM     22  O   UNL     1      -0.597   9.823  19.712  0.00  0.00    +0.000 OA
ENDBRANCH  15  20
ENDBRANCH  14  17
ENDBRANCH   1  14
TORSDOF 6
ENDMDL
MODEL 7
REMARK VINA RESULT:      -6.1      2.936      6.424
REMARK  Name = 
REMARK  7 active torsions:
REMARK  status: ('A' for Active; 'I' for Inactive)
REMARK    1  A    between atoms: C_1  and  S_2
REMARK    2  A    between atoms: S_2  and  N_5
REMARK    3  A    between atoms: C_7  and  C_8
REMARK    4  A    between atoms: C_8  and  S_9
REMARK    5  A    between atoms: S_9  and  N_12
REMARK    6  A    between atoms: C_14  and  C_15
REMARK    7  A    between atoms: C_18  and  C_19
REMARK                            x       y       z     vdW  Elec       q    Type
REMARK                         _______ _______ _______ _____ _____    ______ ____
ROOT
ATOM      1  S   UNL     1       3.059   3.346  19.110  0.00  0.00    +0.000 S 
ATOM      2  O   UNL     1       3.779   3.411  20.364  0.00  0.00    +0.000 OA
ATOM      3  O   UNL     1       2.225   2.201  18.791  0.00  0.00    +0.000 OA
ENDROOT
BRANCH   1   4
ATOM      4  N   UNL     1       4.198   3.500  17.872  0.00  0.00    +0.000 NA
ATOM      5  C   UNL     1       3.707   3.588  16.455  0.00  0.00    +0.000 C 
ATOM      6  C   UNL     1       4.905   4.475  16.070  0.00  0.00    +0.000 C 
ATOM      7  C   UNL     1       5.056   4.709  17.604  0.00  0.00    +0.000 C 
BRANCH   6   8
ATOM      8  C   UNL     1       5.979   3.845  15.198  0.00  0.00    +0.000 C 
ATOM      9  C   UNL     1       5.950   4.000  13.693  0.00  0.00    +0.000 C 
ATOM     10  C   UNL     1       7.029   4.664  14.493  0.00  0.00    +0.000 C 
ENDBRANCH   6   8
BRANCH   7  11
ATOM     11  C   UNL     1       6.392   4.626  18.303  0.00  0.00    +0.000 C 
ATOM     12  C   UNL     1       7.477   5.667  18.157  0.00  0.00    +0.000 C 
ATOM     13  C   UNL     1       6.754   5.527  19.464  0.00  0.00    +0.000 C 
ENDBRANCH   7  11
ENDBRANCH   1   4
BRANCH   1  14
ATOM     14  C   UNL     1       2.069   4.829  18.963  0.00  0.00    +0.000 C 
BRANCH  14  17
ATOM     15  N   UNL     1       1.406   7.490  20.386  0.00  0.00    +0.000 NA
ATOM     16  C   UNL     1       2.508   7.369  19.387  0.00  0.00    +0.000 C 
ATOM     17  C   UNL     1       2.728   5.906  19.818  0.00  0.00    +0.000 C 
ATOM     18  C   UNL     1       1.953   6.296  21.099  0.00  0.00    +0.000 C 
BRANCH  15  20
ATOM     19  C   UNL     1      -0.648   8.536  21.739  0.00  0.00    +0.000 C 
ATOM     20  S   UNL     1       0.972   8.945  21.129  0.00  0.00    +0.000 S 
ATOM     21  O   UNL     1       0.834   9.944  20.092  0.00  0.00    +0.000 OA
ATOM     22  O   UNL     1       1.854   9.144  22.258  0.00  0.00    +0.000 OA
ENDBRANCH  15  20
ENDBRANCH  14  17
ENDBRANCH   1  14
TORSDOF 6
ENDMDL
MODEL 8
REMARK VINA RESULT:      -6.1      3.295      6.631
REMARK  Name = 
REMARK  7 active torsions:
REMARK  status: ('A' for Active; 'I' for Inactive)
REMARK    1  A    between atoms: C_1  and  S_2
REMARK    2  A    between atoms: S_2  and  N_5
REMARK    3  A    between atoms: C_7  and  C_8
REMARK    4  A    between atoms: C_8  and  S_9
REMARK    5  A    between atoms: S_9  and  N_12
REMARK    6  A    between atoms: C_14  and  C_15
REMARK    7  A    between atoms: C_18  and  C_19
REMARK                            x       y       z     vdW  Elec       q    Type
REMARK                         _______ _______ _______ _____ _____    ______ ____
ROOT
ATOM      1  S   UNL     1       4.315   4.449  18.744  0.00  0.00    +0.000 S 
ATOM      2  O   UNL     1       5.105   5.174  19.716  0.00  0.00    +0.000 OA
ATOM      3  O   UNL     1       3.827   3.112  19.032  0.00  0.00    +0.000 OA
ENDROOT
BRANCH   1   4
ATOM      4  N   UNL     1       5.229   4.356  17.326  0.00  0.00    +0.000 NA
ATOM      5  C   UNL     1       4.552   3.896  16.067  0.00  0.00    +0.000 C 
ATOM      6  C   UNL     1       5.485   4.777  15.216  0.00  0.00    +0.000 C 
ATOM      7  C   UNL     1       5.781   5.525  16.551  0.00  0.00    +0.000 C 
BRANCH   6   8
ATOM      8  C   UNL     1       6.542   4.066  14.388  0.00  0.00    +0.000 C 
ATOM      9  C   UNL     1       6.321   3.783  12.918  0.00  0.00    +0.000 C 
ATOM     10  C   UNL     1       7.362   4.776  13.342  0.00  0.00    +0.000 C 
ENDBRANCH   6   8
BRANCH   7  11
ATOM     11  C   UNL     1       7.185   5.881  16.979  0.00  0.00    +0.000 C 
ATOM     12  C   UNL     1       7.528   7.126  17.763  0.00  0.00    +0.000 C 
ATOM     13  C   UNL     1       7.641   5.781  18.419  0.00  0.00    +0.000 C 
ENDBRANCH   7  11
ENDBRANCH   1   4
BRANCH   1  14
ATOM     14  C   UNL     1       2.924   5.476  18.286  0.00  0.00    +0.000 C 
BRANCH  14  17
ATOM     15  N   UNL     1       1.626   8.273  18.485  0.00  0.00    +0.000 NA
ATOM     16  C   UNL     1       2.859   8.017  17.683  0.00  0.00    +0.000 C 
ATOM     17  C   UNL     1       3.266   6.910  18.675  0.00  0.00    +0.000 C 
ATOM     18  C   UNL     1       2.268   7.584  19.646  0.00  0.00    +0.000 C 
BRANCH  15  20
ATOM     19  C   UNL     1       0.360   9.811  20.267  0.00  0.00    +0.000 C 
ATOM     20  S   UNL     1       0.852   9.773  18.558  0.00  0.00    +0.000 S 
ATOM     21  O   UNL     1      -0.338   9.693  17.738  0.00  0.00    +0.000 OA
ATOM     22  O   UNL     1       1.852  10.797  18.342  0.00  0.00    +0.000 OA
ENDBRANCH  15  20
ENDBRANCH  14  17
ENDBRANCH   1  14
TORSDOF 6
ENDMDL
MODEL 9
REMARK VINA RESULT:      -6.1      2.952      4.383
REMARK  Name = 
REMARK  7 active torsions:
REMARK  status: ('A' for Active; 'I' for Inactive)
REMARK    1  A    between atoms: C_1  and  S_2
REMARK    2  A    between atoms: S_2  and  N_5
REMARK    3  A    between atoms: C_7  and  C_8
REMARK    4  A    between atoms: C_8  and  S_9
REMARK    5  A    between atoms: S_9  and  N_12
REMARK    6  A    between atoms: C_14  and  C_15
REMARK    7  A    between atoms: C_18  and  C_19
REMARK                            x       y       z     vdW  Elec       q    Type
REMARK                         _______ _______ _______ _____ _____    ______ ____
ROOT
ATOM      1  S   UNL     1       6.436   5.493  18.155  0.00  0.00    +0.000 S 
ATOM      2  O   UNL     1       7.296   5.223  19.287  0.00  0.00    +0.000 OA
ATOM      3  O   UNL     1       6.278   6.844  17.648  0.00  0.00    +0.000 OA
ENDROOT
BRANCH   1   4
ATOM      4  N   UNL     1       4.896   4.921  18.550  0.00  0.00    +0.000 NA
ATOM      5  C   UNL     1       4.778   3.837  19.583  0.00  0.00    +0.000 C 
ATOM      6  C   UNL     1       3.407   4.378  20.028  0.00  0.00    +0.000 C 
ATOM      7  C   UNL     1       3.832   5.686  19.294  0.00  0.00    +0.000 C 
BRANCH   6   8
ATOM      8  C   UNL     1       2.185   3.554  19.657  0.00  0.00    +0.000 C 
ATOM      9  C   UNL     1       1.515   2.653  20.672  0.00  0.00    +0.000 C 
ATOM     10  C   UNL     1       0.807   3.876  20.173  0.00  0.00    +0.000 C 
ENDBRANCH   6   8
BRANCH   7  11
ATOM     11  C   UNL     1       2.901   6.423  18.360  0.00  0.00    +0.000 C 
ATOM     12  C   UNL     1       2.180   7.696  18.734  0.00  0.00    +0.000 C 
ATOM     13  C   UNL     1       3.279   7.737  17.714  0.00  0.00    +0.000 C 
ENDBRANCH   7  11
ENDBRANCH   1   4
BRANCH   1  14
ATOM     14  C   UNL     1       6.949   4.435  16.806  0.00  0.00    +0.000 C 
BRANCH  14  17
ATOM     15  N   UNL     1       6.600   3.848  13.793  0.00  0.00    +0.000 NA
ATOM     16  C   UNL     1       6.446   5.218  14.365  0.00  0.00    +0.000 C 
ATOM     17  C   UNL     1       5.933   4.603  15.682  0.00  0.00    +0.000 C 
ATOM     18  C   UNL     1       5.666   3.332  14.840  0.00  0.00    +0.000 C 
BRANCH  15  20
ATOM     19  C   UNL     1       4.730   3.646  11.894  0.00  0.00    +0.000 C 
ATOM     20  S   UNL     1       6.485   3.505  12.142  0.00  0.00    +0.000 S 
ATOM     21  O   UNL     1       6.867   2.122  11.954  0.00  0.00    +0.000 OA
ATOM     22  O   UNL     1       7.142   4.575  11.422  0.00  0.00    +0.000 OA
ENDBRANCH  15  20
ENDBRANCH  14  17
ENDBRANCH   1  14
TORSDOF 6
ENDMDL
