MODEL 1
REMARK VINA RESULT:      -8.5      0.000      0.000
REMARK  Name = 
REMARK  6 active torsions:
REMARK  status: ('A' for Active; 'I' for Inactive)
REMARK    1  A    between atoms: C_1  and  C_2
REMARK    2  A    between atoms: C_2  and  C_4
REMARK    3  A    between atoms: C_8  and  N_9
REMARK    4  A    between atoms: C_10  and  C_12
REMARK    5  A    between atoms: C_12  and  S_13
REMARK    6  A    between atoms: S_13  and  C_14
REMARK                            x       y       z     vdW  Elec       q    Type
REMARK                         _______ _______ _______ _____ _____    ______ ____
ROOT
ATOM      1  N   UNL     1       6.375   5.225  15.666  0.00  0.00    +0.000 N 
ATOM      2  C   UNL     1       5.644   6.338  16.066  0.00  0.00    +0.000 C 
ATOM      3  O   UNL     1       5.112   7.151  15.310  0.00  0.00    +0.000 OA
ATOM      4  H   UNL     1       6.564   4.523  16.373  0.00  0.00    +0.000 HD
ENDROOT
BRANCH   1   9
ATOM      5  C   UNL     1       6.132   3.582  12.330  0.00  0.00    +0.000 A 
ATOM      6  C   UNL     1       7.215   4.157  11.657  0.00  0.00    +0.000 A 
ATOM      7  C   UNL     1       8.033   5.069  12.313  0.00  0.00    +0.000 A 
ATOM      8  C   UNL     1       7.771   5.416  13.639  0.00  0.00    +0.000 A 
ATOM      9  C   UNL     1       6.683   4.876  14.327  0.00  0.00    +0.000 A 
ATOM     10  C   UNL     1       5.873   3.941  13.668  0.00  0.00    +0.000 A 
BRANCH   5  12
ATOM     11  C   UNL     1       3.878   3.052  11.174  0.00  0.00    +0.000 C 
ATOM     12  C   UNL     1       5.240   2.598  11.648  0.00  0.00    +0.000 C 
ATOM     13  O   UNL     1       5.622   1.442  11.478  0.00  0.00    +0.000 OA
ENDBRANCH   5  12
ENDBRANCH   1   9
BRANCH   2  14
ATOM     14  C   UNL     1       5.504   6.498  17.574  0.00  0.00    +0.000 C 
BRANCH  14  15
ATOM     15  S   UNL     1       6.288   5.097  18.434  0.00  0.00    +0.000 S 
BRANCH  15  16
ATOM     16  C   UNL     1       4.860   4.249  18.923  0.00  0.00    +0.000 A 
ATOM     17  N   UNL     1       3.921   4.833  19.601  0.00  0.00    +0.000 NA
ATOM     18  C   UNL     1       2.859   4.034  19.905  0.00  0.00    +0.000 A 
ATOM     19  C   UNL     1       2.725   2.752  19.570  0.00  0.00    +0.000 A 
ATOM     20  C   UNL     1       3.794   2.109  18.810  0.00  0.00    +0.000 A 
ATOM     21  O   UNL     1       3.752   0.935  18.475  0.00  0.00    +0.000 OA
ATOM     22  N   UNL     1       4.838   2.945  18.518  0.00  0.00    +0.000 N 
ATOM     23  C   UNL     1       1.475   2.135  20.063  0.00  0.00    +0.000 C 
ATOM     24  C   UNL     1       0.697   3.354  20.578  0.00  0.00    +0.000 C 
ATOM     25  C   UNL     1       1.695   4.513  20.703  0.00  0.00    +0.000 C 
ATOM     26  H   UNL     1       5.623   2.568  18.015  0.00  0.00    +0.000 HD
ENDBRANCH  15  16
ENDBRANCH  14  15
ENDBRANCH   2  14
TORSDOF 5
ENDMDL
MODEL 2
REMARK VINA RESULT:      -8.3      3.499      7.814
REMARK  Name = 
REMARK  6 active torsions:
REMARK  status: ('A' for Active; 'I' for Inactive)
REMARK    1  A    between atoms: C_1  and  C_2
REMARK    2  A    between atoms: C_2  and  C_4
REMARK    3  A    between atoms: C_8  and  N_9
REMARK    4  A    between atoms: C_10  and  C_12
REMARK    5  A    between atoms: C_12  and  S_13
REMARK    6  A    between atoms: S_13  and  C_14
REMARK                            x       y       z     vdW  Elec       q    Type
REMARK                         _______ _______ _______ _____ _____    ______ ____
ROOT
ATOM      1  N   UNL     1       2.703   5.477  20.309  0.00  0.00    +0.000 N 
ATOM      2  C   UNL     1       2.147   4.265  19.915  0.00  0.00    +0.000 C 
ATOM      3  O   UNL     1       1.227   4.131  19.109  0.00  0.00    +0.000 OA
ATOM      4  H   UNL     1       3.591   5.437  20.797  0.00  0.00    +0.000 HD
ENDROOT
BRANCH   1   9
ATOM      5  C   UNL     1       1.211   8.888  20.474  0.00  0.00    +0.000 A 
ATOM      6  C   UNL     1       1.394   9.336  19.162  0.00  0.00    +0.000 A 
ATOM      7  C   UNL     1       1.990   8.502  18.223  0.00  0.00    +0.000 A 
ATOM      8  C   UNL     1       2.412   7.224  18.590  0.00  0.00    +0.000 A 
ATOM      9  C   UNL     1       2.264   6.760  19.898  0.00  0.00    +0.000 A 
ATOM     10  C   UNL     1       1.643   7.596  20.837  0.00  0.00    +0.000 A 
BRANCH   5  12
ATOM     11  C   UNL     1      -0.477   9.170  22.415  0.00  0.00    +0.000 C 
ATOM     12  C   UNL     1       0.571   9.763  21.501  0.00  0.00    +0.000 C 
ATOM     13  O   UNL     1       0.903  10.943  21.592  0.00  0.00    +0.000 OA
ENDBRANCH   5  12
ENDBRANCH   1   9
BRANCH   2  14
ATOM     14  C   UNL     1       2.788   3.036  20.549  0.00  0.00    +0.000 C 
BRANCH  14  15
ATOM     15  S   UNL     1       3.628   2.036  19.280  0.00  0.00    +0.000 S 
BRANCH  15  16
ATOM     16  C   UNL     1       4.650   3.259  18.606  0.00  0.00    +0.000 A 
ATOM     17  N   UNL     1       5.434   3.975  19.350  0.00  0.00    +0.000 NA
ATOM     18  C   UNL     1       6.180   4.892  18.670  0.00  0.00    +0.000 A 
ATOM     19  C   UNL     1       6.159   5.096  17.354  0.00  0.00    +0.000 A 
ATOM     20  C   UNL     1       5.265   4.283  16.532  0.00  0.00    +0.000 A 
ATOM     21  O   UNL     1       5.179   4.417  15.322  0.00  0.00    +0.000 OA
ATOM     22  N   UNL     1       4.541   3.370  17.249  0.00  0.00    +0.000 N 
ATOM     23  C   UNL     1       7.058   6.180  16.904  0.00  0.00    +0.000 C 
ATOM     24  C   UNL     1       7.864   6.476  18.177  0.00  0.00    +0.000 C 
ATOM     25  C   UNL     1       7.118   5.829  19.351  0.00  0.00    +0.000 C 
ATOM     26  H   UNL     1       3.886   2.788  16.755  0.00  0.00    +0.000 HD
ENDBRANCH  15  16
ENDBRANCH  14  15
ENDBRANCH   2  14
TORSDOF 5
ENDMDL
MODEL 3
REMARK VINA RESULT:      -8.3      1.433      1.433
REMARK  Name = 
REMARK  6 active torsions:
REMARK  status: ('A' for Active; 'I' for Inactive)
REMARK    1  A    between atoms: C_1  and  C_2
REMARK    2  A    between atoms: C_2  and  C_4
REMARK    3  A    between atoms: C_8  and  N_9
REMARK    4  A    between atoms: C_10  and  C_12
REMARK    5  A    between atoms: C_12  and  S_13
REMARK    6  A    between atoms: S_13  and  C_14
REMARK                            x       y       z     vdW  Elec       q    Type
REMARK                         _______ _______ _______ _____ _____    ______ ____
ROOT
ATOM      1  N   UNL     1       6.547   5.381  15.617  0.00  0.00    +0.000 N 
ATOM      2  C   UNL     1       7.226   4.910  16.735  0.00  0.00    +0.000 C 
ATOM      3  O   UNL     1       8.188   4.142  16.715  0.00  0.00    +0.000 OA
ATOM      4  H   UNL     1       5.928   6.172  15.756  0.00  0.00    +0.000 HD
ENDROOT
BRANCH   1   9
ATOM      5  C   UNL     1       6.203   3.667  12.326  0.00  0.00    +0.000 A 
ATOM      6  C   UNL     1       7.248   4.246  11.599  0.00  0.00    +0.000 A 
ATOM      7  C   UNL     1       8.076   5.184  12.205  0.00  0.00    +0.000 A 
ATOM      8  C   UNL     1       7.859   5.554  13.533  0.00  0.00    +0.000 A 
ATOM      9  C   UNL     1       6.809   5.009  14.274  0.00  0.00    +0.000 A 
ATOM     10  C   UNL     1       5.990   4.048  13.666  0.00  0.00    +0.000 A 
BRANCH   5  12
ATOM     11  C   UNL     1       3.923   3.080  11.252  0.00  0.00    +0.000 C 
ATOM     12  C   UNL     1       5.302   2.654  11.699  0.00  0.00    +0.000 C 
ATOM     13  O   UNL     1       5.691   1.497  11.551  0.00  0.00    +0.000 OA
ENDBRANCH   5  12
ENDBRANCH   1   9
BRANCH   2  14
ATOM     14  C   UNL     1       6.704   5.441  18.065  0.00  0.00    +0.000 C 
BRANCH  14  15
ATOM     15  S   UNL     1       5.004   6.063  17.874  0.00  0.00    +0.000 S 
BRANCH  15  16
ATOM     16  C   UNL     1       4.189   4.940  18.908  0.00  0.00    +0.000 A 
ATOM     17  N   UNL     1       2.965   5.134  19.292  0.00  0.00    +0.000 NA
ATOM     18  C   UNL     1       2.462   4.157  20.100  0.00  0.00    +0.000 A 
ATOM     19  C   UNL     1       3.111   3.067  20.506  0.00  0.00    +0.000 A 
ATOM     20  C   UNL     1       4.491   2.868  20.067  0.00  0.00    +0.000 A 
ATOM     21  O   UNL     1       5.157   1.901  20.405  0.00  0.00    +0.000 OA
ATOM     22  N   UNL     1       4.956   3.864  19.253  0.00  0.00    +0.000 N 
ATOM     23  C   UNL     1       2.317   2.199  21.401  0.00  0.00    +0.000 C 
ATOM     24  C   UNL     1       0.918   2.823  21.294  0.00  0.00    +0.000 C 
ATOM     25  C   UNL     1       1.086   4.214  20.668  0.00  0.00    +0.000 C 
ATOM     26  H   UNL     1       5.907   3.808  18.927  0.00  0.00    +0.000 HD
ENDBRANCH  15  16
ENDBRANCH  14  15
ENDBRANCH   2  14
TORSDOF 5
ENDMDL
MODEL 4
REMARK VINA RESULT:      -8.2      1.971      2.411
REMARK  Name = 
REMARK  6 active torsions:
REMARK  status: ('A' for Active; 'I' for Inactive)
REMARK    1  A    between atoms: C_1  and  C_2
REMARK    2  A    between atoms: C_2  and  C_4
REMARK    3  A    between atoms: C_8  and  N_9
REMARK    4  A    between atoms: C_10  and  C_12
REMARK    5  A    between atoms: C_12  and  S_13
REMARK    6  A    between atoms: S_13  and  C_14
REMARK                            x       y       z     vdW  Elec       q    Type
REMARK                         _______ _______ _______ _____ _____    ______ ____
ROOT
ATOM      1  N   UNL     1       6.410   4.957  16.005  0.00  0.00    +0.000 N 
ATOM      2  C   UNL     1       7.259   4.613  17.052  0.00  0.00    +0.000 C 
ATOM      3  O   UNL     1       8.395   4.157  16.928  0.00  0.00    +0.000 OA
ATOM      4  H   UNL     1       5.603   5.525  16.238  0.00  0.00    +0.000 HD
ENDROOT
BRANCH   1   9
ATOM      5  C   UNL     1       6.153   3.675  12.515  0.00  0.00    +0.000 A 
ATOM      6  C   UNL     1       7.158   4.407  11.875  0.00  0.00    +0.000 A 
ATOM      7  C   UNL     1       7.930   5.305  12.602  0.00  0.00    +0.000 A 
ATOM      8  C   UNL     1       7.699   5.483  13.966  0.00  0.00    +0.000 A 
ATOM      9  C   UNL     1       6.687   4.783  14.626  0.00  0.00    +0.000 A 
ATOM     10  C   UNL     1       5.924   3.863  13.894  0.00  0.00    +0.000 A 
BRANCH   5  12
ATOM     11  C   UNL     1       5.865   1.325  11.471  0.00  0.00    +0.000 C 
ATOM     12  C   UNL     1       5.311   2.701  11.758  0.00  0.00    +0.000 C 
ATOM     13  O   UNL     1       4.186   3.027  11.384  0.00  0.00    +0.000 OA
ENDBRANCH   5  12
ENDBRANCH   1   9
BRANCH   2  14
ATOM     14  C   UNL     1       6.688   4.866  18.442  0.00  0.00    +0.000 C 
BRANCH  14  15
ATOM     15  S   UNL     1       5.463   6.212  18.386  0.00  0.00    +0.000 S 
BRANCH  15  16
ATOM     16  C   UNL     1       4.043   5.299  18.767  0.00  0.00    +0.000 A 
ATOM     17  N   UNL     1       3.787   4.167  18.188  0.00  0.00    +0.000 NA
ATOM     18  C   UNL     1       2.634   3.566  18.600  0.00  0.00    +0.000 A 
ATOM     19  C   UNL     1       1.788   4.041  19.513  0.00  0.00    +0.000 A 
ATOM     20  C   UNL     1       2.090   5.320  20.151  0.00  0.00    +0.000 A 
ATOM     21  O   UNL     1       1.360   5.828  20.988  0.00  0.00    +0.000 OA
ATOM     22  N   UNL     1       3.257   5.887  19.718  0.00  0.00    +0.000 N 
ATOM     23  C   UNL     1       0.605   3.182  19.733  0.00  0.00    +0.000 C 
ATOM     24  C   UNL     1       0.980   1.914  18.953  0.00  0.00    +0.000 C 
ATOM     25  C   UNL     1       2.154   2.275  18.032  0.00  0.00    +0.000 C 
ATOM     26  H   UNL     1       3.522   6.781  20.096  0.00  0.00    +0.000 HD
ENDBRANCH  15  16
ENDBRANCH  14  15
ENDBRANCH   2  14
TORSDOF 5
ENDMDL
MODEL 5
REMARK VINA RESULT:      -8.1      1.475      1.879
REMARK  Name = 
REMARK  6 active torsions:
REMARK  status: ('A' for Active; 'I' for Inactive)
REMARK    1  A    between atoms: C_1  and  C_2
REMARK    2  A    between atoms: C_2  and  C_4
REMARK    3  A    between atoms: C_8  and  N_9
REMARK    4  A    between atoms: C_10  and  C_12
REMARK    5  A    between atoms: C_12  and  S_13
REMARK    6  A    between atoms: S_13  and  C_14
REMARK                            x       y       z     vdW  Elec       q    Type
REMARK                         _______ _______ _______ _____ _____    ______ ____
ROOT
ATOM      1  N   UNL     1       7.098   5.290  15.543  0.00  0.00    +0.000 N 
ATOM      2  C   UNL     1       6.218   6.180  16.148  0.00  0.00    +0.000 C 
ATOM      3  O   UNL     1       5.326   6.804  15.574  0.00  0.00    +0.000 OA
ATOM      4  H   UNL     1       7.628   4.681  16.156  0.00  0.00    +0.000 HD
ENDROOT
BRANCH   1   9
ATOM      5  C   UNL     1       6.317   3.715  12.257  0.00  0.00    +0.000 A 
ATOM      6  C   UNL     1       7.195   4.395  11.407  0.00  0.00    +0.000 A 
ATOM      7  C   UNL     1       8.055   5.355  11.924  0.00  0.00    +0.000 A 
ATOM      8  C   UNL     1       8.039   5.647  13.289  0.00  0.00    +0.000 A 
ATOM      9  C   UNL     1       7.156   5.000  14.157  0.00  0.00    +0.000 A 
ATOM     10  C   UNL     1       6.305   4.018  13.634  0.00  0.00    +0.000 A 
BRANCH   5  12
ATOM     11  C   UNL     1       4.001   3.094  11.283  0.00  0.00    +0.000 C 
ATOM     12  C   UNL     1       5.384   2.676  11.726  0.00  0.00    +0.000 C 
ATOM     13  O   UNL     1       5.751   1.505  11.652  0.00  0.00    +0.000 OA
ENDBRANCH   5  12
ENDBRANCH   1   9
BRANCH   2  14
ATOM     14  C   UNL     1       6.407   6.336  17.652  0.00  0.00    +0.000 C 
BRANCH  14  15
ATOM     15  S   UNL     1       6.543   4.702  18.445  0.00  0.00    +0.000 S 
BRANCH  15  16
ATOM     16  C   UNL     1       4.936   4.575  19.076  0.00  0.00    +0.000 A 
ATOM     17  N   UNL     1       4.442   3.436  19.454  0.00  0.00    +0.000 NA
ATOM     18  C   UNL     1       3.167   3.502  19.933  0.00  0.00    +0.000 A 
ATOM     19  C   UNL     1       2.425   4.604  20.034  0.00  0.00    +0.000 A 
ATOM     20  C   UNL     1       2.997   5.876  19.599  0.00  0.00    +0.000 A 
ATOM     21  O   UNL     1       2.378   6.928  19.648  0.00  0.00    +0.000 OA
ATOM     22  N   UNL     1       4.279   5.771  19.133  0.00  0.00    +0.000 N 
ATOM     23  C   UNL     1       1.067   4.362  20.565  0.00  0.00    +0.000 C 
ATOM     24  C   UNL     1       1.161   2.902  21.030  0.00  0.00    +0.000 C 
ATOM     25  C   UNL     1       2.417   2.297  20.387  0.00  0.00    +0.000 C 
ATOM     26  H   UNL     1       4.733   6.603  18.794  0.00  0.00    +0.000 HD
ENDBRANCH  15  16
ENDBRANCH  14  15
ENDBRANCH   2  14
TORSDOF 5
ENDMDL
MODEL 6
REMARK VINA RESULT:      -8.1      3.664      7.783
REMARK  Name = 
REMARK  6 active torsions:
REMARK  status: ('A' for Active; 'I' for Inactive)
REMARK    1  A    between atoms: C_1  and  C_2
REMARK    2  A    between atoms: C_2  and  C_4
REMARK    3  A    between atoms: C_8  and  N_9
REMARK    4  A    between atoms: C_10  and  C_12
REMARK    5  A    between atoms: C_12  and  S_13
REMARK    6  A    between atoms: S_13  and  C_14
REMARK                            x       y       z     vdW  Elec       q    Type
REMARK                         _______ _______ _______ _____ _____    ______ ____
ROOT
ATOM      1  N   UNL     1       2.752   5.840  20.180  0.00  0.00    +0.000 N 
ATOM      2  C   UNL     1       2.170   4.593  19.980  0.00  0.00    +0.000 C 
ATOM      3  O   UNL     1       1.189   4.369  19.271  0.00  0.00    +0.000 OA
ATOM      4  H   UNL     1       3.676   5.853  20.598  0.00  0.00    +0.000 HD
ENDROOT
BRANCH   1   9
ATOM      5  C   UNL     1       0.986   9.116  19.980  0.00  0.00    +0.000 A 
ATOM      6  C   UNL     1       1.323   9.535  18.688  0.00  0.00    +0.000 A 
ATOM      7  C   UNL     1       2.113   8.725  17.882  0.00  0.00    +0.000 A 
ATOM      8  C   UNL     1       2.578   7.499  18.362  0.00  0.00    +0.000 A 
ATOM      9  C   UNL     1       2.277   7.067  19.655  0.00  0.00    +0.000 A 
ATOM     10  C   UNL     1       1.462   7.878  20.457  0.00  0.00    +0.000 A 
BRANCH   5  12
ATOM     11  C   UNL     1       0.225   9.780  22.362  0.00  0.00    +0.000 C 
ATOM     12  C   UNL     1       0.136   9.966  20.865  0.00  0.00    +0.000 C 
ATOM     13  O   UNL     1      -0.617  10.802  20.370  0.00  0.00    +0.000 OA
ENDBRANCH   5  12
ENDBRANCH   1   9
BRANCH   2  14
ATOM     14  C   UNL     1       2.863   3.445  20.704  0.00  0.00    +0.000 C 
BRANCH  14  15
ATOM     15  S   UNL     1       3.389   2.172  19.513  0.00  0.00    +0.000 S 
BRANCH  15  16
ATOM     16  C   UNL     1       4.438   3.138  18.532  0.00  0.00    +0.000 A 
ATOM     17  N   UNL     1       4.258   3.252  17.253  0.00  0.00    +0.000 NA
ATOM     18  C   UNL     1       5.165   4.052  16.622  0.00  0.00    +0.000 A 
ATOM     19  C   UNL     1       6.178   4.694  17.201  0.00  0.00    +0.000 A 
ATOM     20  C   UNL     1       6.368   4.549  18.643  0.00  0.00    +0.000 A 
ATOM     21  O   UNL     1       7.280   5.094  19.246  0.00  0.00    +0.000 OA
ATOM     22  N   UNL     1       5.435   3.746  19.241  0.00  0.00    +0.000 N 
ATOM     23  C   UNL     1       7.013   5.466  16.256  0.00  0.00    +0.000 C 
ATOM     24  C   UNL     1       6.182   5.400  14.967  0.00  0.00    +0.000 C 
ATOM     25  C   UNL     1       5.143   4.285  15.150  0.00  0.00    +0.000 C 
ATOM     26  H   UNL     1       5.513   3.580  20.230  0.00  0.00    +0.000 HD
ENDBRANCH  15  16
ENDBRANCH  14  15
ENDBRANCH   2  14
TORSDOF 5
ENDMDL
MODEL 7
REMARK VINA RESULT:      -8.0      1.127      1.226
REMARK  Name = 
REMARK  6 active torsions:
REMARK  status: ('A' for Active; 'I' for Inactive)
REMARK    1  A    between atoms: C_1  and  C_2
REMARK    2  A    between atoms: C_2  and  C_4
REMARK    3  A    between atoms: C_8  and  N_9
REMARK    4  A    between atoms: C_10  and  C_12
REMARK    5  A    between atoms: C_12  and  S_13
REMARK    6  A    between atoms: S_13  and  C_14
REMARK                            x       y       z     vdW  Elec       q    Type
REMARK                         _______ _______ _______ _____ _____    ______ ____
ROOT
ATOM      1  N   UNL     1       6.883   5.179  15.589  0.00  0.00    +0.000 N 
ATOM      2  C   UNL     1       6.003   6.094  16.156  0.00  0.00    +0.000 C 
ATOM      3  O   UNL     1       5.182   6.772  15.537  0.00  0.00    +0.000 OA
ATOM      4  H   UNL     1       7.342   4.532  16.222  0.00  0.00    +0.000 HD
ENDROOT
BRANCH   1   9
ATOM      5  C   UNL     1       6.350   3.629  12.242  0.00  0.00    +0.000 A 
ATOM      6  C   UNL     1       7.234   4.369  11.449  0.00  0.00    +0.000 A 
ATOM      7  C   UNL     1       8.017   5.361  12.026  0.00  0.00    +0.000 A 
ATOM      8  C   UNL     1       7.917   5.626  13.393  0.00  0.00    +0.000 A 
ATOM      9  C   UNL     1       7.026   4.919  14.203  0.00  0.00    +0.000 A 
ATOM     10  C   UNL     1       6.254   3.905  13.621  0.00  0.00    +0.000 A 
BRANCH   5  12
ATOM     11  C   UNL     1       6.129   1.219  11.326  0.00  0.00    +0.000 C 
ATOM     12  C   UNL     1       5.500   2.555  11.647  0.00  0.00    +0.000 C 
ATOM     13  O   UNL     1       4.309   2.767  11.432  0.00  0.00    +0.000 OA
ENDBRANCH   5  12
ENDBRANCH   1   9
BRANCH   2  14
ATOM     14  C   UNL     1       6.092   6.206  17.673  0.00  0.00    +0.000 C 
BRANCH  14  15
ATOM     15  S   UNL     1       6.473   4.583  18.405  0.00  0.00    +0.000 S 
BRANCH  15  16
ATOM     16  C   UNL     1       4.859   4.055  18.740  0.00  0.00    +0.000 A 
ATOM     17  N   UNL     1       4.415   3.953  19.954  0.00  0.00    +0.000 NA
ATOM     18  C   UNL     1       3.122   3.529  20.052  0.00  0.00    +0.000 A 
ATOM     19  C   UNL     1       2.320   3.224  19.034  0.00  0.00    +0.000 A 
ATOM     20  C   UNL     1       2.839   3.340  17.673  0.00  0.00    +0.000 A 
ATOM     21  O   UNL     1       2.171   3.068  16.687  0.00  0.00    +0.000 OA
ATOM     22  N   UNL     1       4.135   3.775  17.616  0.00  0.00    +0.000 N 
ATOM     23  C   UNL     1       0.977   2.766  19.450  0.00  0.00    +0.000 C 
ATOM     24  C   UNL     1       0.984   3.077  20.953  0.00  0.00    +0.000 C 
ATOM     25  C   UNL     1       2.443   3.322  21.362  0.00  0.00    +0.000 C 
ATOM     26  H   UNL     1       4.570   3.859  16.712  0.00  0.00    +0.000 HD
ENDBRANCH  15  16
ENDBRANCH  14  15
ENDBRANCH   2  14
TORSDOF 5
ENDMDL
MODEL 8
REMARK VINA RESULT:      -8.0      1.451      1.530
REMARK  Name = 
REMARK  6 active torsions:
REMARK  status: ('A' for Active; 'I' for Inactive)
REMARK    1  A    between atoms: C_1  and  C_2
REMARK    2  A    between atoms: C_2  and  C_4
REMARK    3  A    between atoms: C_8  and  N_9
REMARK    4  A    between atoms: C_10  and  C_12
REMARK    5  A    between atoms: C_12  and  S_13
REMARK    6  A    between atoms: S_13  and  C_14
REMARK                            x       y       z     vdW  Elec       q    Type
REMARK                         _______ _______ _______ _____ _____    ______ ____
ROOT
ATOM      1  N   UNL     1       5.953   5.237  15.620  0.00  0.00    +0.000 N 
ATOM      2  C   UNL     1       6.659   5.985  16.555  0.00  0.00    +0.000 C 
ATOM      3  O   UNL     1       7.766   6.491  16.374  0.00  0.00    +0.000 OA
ATOM      4  H   UNL     1       4.970   5.072  15.813  0.00  0.00    +0.000 HD
ENDROOT
BRANCH   1   9
ATOM      5  C   UNL     1       6.143   3.516  12.320  0.00  0.00    +0.000 A 
ATOM      6  C   UNL     1       7.254   4.141  11.744  0.00  0.00    +0.000 A 
ATOM      7  C   UNL     1       7.948   5.112  12.455  0.00  0.00    +0.000 A 
ATOM      8  C   UNL     1       7.533   5.470  13.739  0.00  0.00    +0.000 A 
ATOM      9  C   UNL     1       6.414   4.879  14.329  0.00  0.00    +0.000 A 
ATOM     10  C   UNL     1       5.730   3.885  13.616  0.00  0.00    +0.000 A 
BRANCH   5  12
ATOM     11  C   UNL     1       6.049   1.139  11.301  0.00  0.00    +0.000 C 
ATOM     12  C   UNL     1       5.382   2.467  11.578  0.00  0.00    +0.000 C 
ATOM     13  O   UNL     1       4.232   2.692  11.209  0.00  0.00    +0.000 OA
ENDBRANCH   5  12
ENDBRANCH   1   9
BRANCH   2  14
ATOM     14  C   UNL     1       5.942   6.180  17.885  0.00  0.00    +0.000 C 
BRANCH  14  15
ATOM     15  S   UNL     1       4.223   6.712  17.605  0.00  0.00    +0.000 S 
BRANCH  15  16
ATOM     16  C   UNL     1       3.406   5.385  18.359  0.00  0.00    +0.000 A 
ATOM     17  N   UNL     1       3.192   5.356  19.637  0.00  0.00    +0.000 NA
ATOM     18  C   UNL     1       2.531   4.247  20.078  0.00  0.00    +0.000 A 
ATOM     19  C   UNL     1       2.111   3.235  19.320  0.00  0.00    +0.000 A 
ATOM     20  C   UNL     1       2.365   3.283  17.882  0.00  0.00    +0.000 A 
ATOM     21  O   UNL     1       2.022   2.390  17.122  0.00  0.00    +0.000 OA
ATOM     22  N   UNL     1       3.022   4.413  17.478  0.00  0.00    +0.000 N 
ATOM     23  C   UNL     1       1.448   2.156  20.082  0.00  0.00    +0.000 C 
ATOM     24  C   UNL     1       1.297   2.790  21.472  0.00  0.00    +0.000 C 
ATOM     25  C   UNL     1       2.219   4.016  21.517  0.00  0.00    +0.000 C 
ATOM     26  H   UNL     1       3.252   4.508  16.504  0.00  0.00    +0.000 HD
ENDBRANCH  15  16
ENDBRANCH  14  15
ENDBRANCH   2  14
TORSDOF 5
ENDMDL
MODEL 9
REMARK VINA RESULT:      -7.9      3.706      7.477
REMARK  Name = 
REMARK  6 active torsions:
REMARK  status: ('A' for Active; 'I' for Inactive)
REMARK    1  A    between atoms: C_1  and  C_2
REMARK    2  A    between atoms: C_2  and  C_4
REMARK    3  A    between atoms: C_8  and  N_9
REMARK    4  A    between atoms: C_10  and  C_12
REMARK    5  A    between atoms: C_12  and  S_13
REMARK    6  A    between atoms: S_13  and  C_14
REMARK                            x       y       z     vdW  Elec       q    Type
REMARK                         _______ _______ _______ _____ _____    ______ ____
ROOT
ATOM      1  N   UNL     1       2.592   5.823  20.726  0.00  0.00    +0.000 N 
ATOM      2  C   UNL     1       1.830   4.669  20.871  0.00  0.00    +0.000 C 
ATOM      3  O   UNL     1       0.791   4.419  20.260  0.00  0.00    +0.000 OA
ATOM      4  H   UNL     1       3.530   5.804  21.113  0.00  0.00    +0.000 HD
ENDROOT
BRANCH   1   9
ATOM      5  C   UNL     1       1.283   9.153  19.685  0.00  0.00    +0.000 A 
ATOM      6  C   UNL     1       1.623   9.174  18.328  0.00  0.00    +0.000 A 
ATOM      7  C   UNL     1       2.263   8.080  17.758  0.00  0.00    +0.000 A 
ATOM      8  C   UNL     1       2.575   6.966  18.539  0.00  0.00    +0.000 A 
ATOM      9  C   UNL     1       2.269   6.928  19.900  0.00  0.00    +0.000 A 
ATOM     10  C   UNL     1       1.604   8.024  20.466  0.00  0.00    +0.000 A 
BRANCH   5  12
ATOM     11  C   UNL     1      -0.626  10.900  19.643  0.00  0.00    +0.000 C 
ATOM     12  C   UNL     1       0.591  10.314  20.321  0.00  0.00    +0.000 C 
ATOM     13  O   UNL     1       1.014  10.771  21.380  0.00  0.00    +0.000 OA
ENDBRANCH   5  12
ENDBRANCH   1   9
BRANCH   2  14
ATOM     14  C   UNL     1       2.391   3.658  21.864  0.00  0.00    +0.000 C 
BRANCH  14  15
ATOM     15  S   UNL     1       2.991   2.178  20.988  0.00  0.00    +0.000 S 
BRANCH  15  16
ATOM     16  C   UNL     1       3.620   2.943  19.568  0.00  0.00    +0.000 A 
ATOM     17  N   UNL     1       4.792   3.498  19.558  0.00  0.00    +0.000 NA
ATOM     18  C   UNL     1       5.147   4.052  18.363  0.00  0.00    +0.000 A 
ATOM     19  C   UNL     1       4.406   4.064  17.256  0.00  0.00    +0.000 A 
ATOM     20  C   UNL     1       3.086   3.438  17.289  0.00  0.00    +0.000 A 
ATOM     21  O   UNL     1       2.342   3.418  16.320  0.00  0.00    +0.000 OA
ATOM     22  N   UNL     1       2.770   2.887  18.500  0.00  0.00    +0.000 N 
ATOM     23  C   UNL     1       5.042   4.765  16.121  0.00  0.00    +0.000 C 
ATOM     24  C   UNL     1       6.468   4.991  16.642  0.00  0.00    +0.000 C 
ATOM     25  C   UNL     1       6.441   4.762  18.160  0.00  0.00    +0.000 C 
ATOM     26  H   UNL     1       1.867   2.456  18.607  0.00  0.00    +0.000 HD
ENDBRANCH  15  16
ENDBRANCH  14  15
ENDBRANCH   2  14
TORSDOF 5
ENDMDL
