MODEL 1
REMARK VINA RESULT:      -7.7      0.000      0.000
REMARK  Name = 
REMARK  10 active torsions:
REMARK  status: ('A' for Active; 'I' for Inactive)
REMARK    1  A    between atoms: C_1  and  C_2
REMARK    2  A    between atoms: C_2  and  C_3
REMARK    3  A    between atoms: C_3  and  S_4
REMARK    4  A    between atoms: S_4  and  N_7
REMARK    5  A    between atoms: N_7  and  C_8
REMARK    6  A    between atoms: C_12  and  C_14
REMARK    7  A    between atoms: C_14  and  C_15
REMARK    8  A    between atoms: C_16  and  C_17
REMARK    9  A    between atoms: N_19  and  C_20
REMARK   10  A    between atoms: C_28  and  C_29
REMARK                            x       y       z     vdW  Elec       q    Type
REMARK                         _______ _______ _______ _____ _____    ______ ____
ROOT
ATOM      1  C   UNL     1       0.999  11.058  19.704  0.00  0.00    +0.000 C 
ENDROOT
BRANCH   1   6
ATOM      2  C   UNL     1      -2.451  13.089  22.216  0.00  0.00    +0.000 C 
ATOM      3  C   UNL     1      -1.012  13.054  22.731  0.00  0.00    +0.000 C 
ATOM      4  C   UNL     1      -0.181  13.219  21.477  0.00  0.00    +0.000 C 
ATOM      5  N   UNL     1      -0.916  12.453  20.498  0.00  0.00    +0.000 N 
ATOM      6  C   UNL     1      -0.442  11.545  19.577  0.00  0.00    +0.000 C 
ATOM      7  O   UNL     1      -1.196  11.055  18.730  0.00  0.00    +0.000 OA
ATOM      8  C   UNL     1      -2.339  12.562  20.763  0.00  0.00    +0.000 C 
BRANCH   2   9
ATOM      9  N   UNL     1      -3.336  12.191  23.009  0.00  0.00    +0.000 NA
ATOM     10  H   UNL     1      -3.778  11.488  22.416  0.00  0.00    +0.000 HD
BRANCH   9  11
ATOM     11  S   UNL     1      -4.493  12.937  24.006  0.00  0.00    +0.000 S 
ATOM     12  O   UNL     1      -3.800  13.991  24.713  0.00  0.00    +0.000 OA
ATOM     13  O   UNL     1      -5.215  11.894  24.702  0.00  0.00    +0.000 OA
BRANCH  11  14
ATOM     14  C   UNL     1      -5.534  13.664  22.752  0.00  0.00    +0.000 C 
BRANCH  14  16
ATOM     15  C   UNL     1      -7.500  12.309  22.014  0.00  0.00    +0.000 C 
ATOM     16  C   UNL     1      -6.044  12.655  21.733  0.00  0.00    +0.000 C 
ENDBRANCH  14  16
ENDBRANCH  11  14
ENDBRANCH   9  11
ENDBRANCH   2   9
ENDBRANCH   1   6
BRANCH   1  17
ATOM     17  C   UNL     1       1.157   9.610  20.035  0.00  0.00    +0.000 A 
ATOM     18  C   UNL     1       0.885   8.975  21.276  0.00  0.00    +0.000 A 
ATOM     19  C   UNL     1       0.440   9.558  22.568  0.00  0.00    +0.000 C 
ATOM     20  N   UNL     1       1.079   7.658  21.205  0.00  0.00    +0.000 NA
ATOM     21  N   UNL     1       1.677   7.447  20.012  0.00  0.00    +0.000 N 
ATOM     22  C   UNL     1       1.671   8.592  19.231  0.00  0.00    +0.000 A 
ATOM     23  C   UNL     1       2.057   8.630  17.793  0.00  0.00    +0.000 C 
BRANCH  21  24
ATOM     24  C   UNL     1       2.239   6.168  19.766  0.00  0.00    +0.000 A 
ATOM     25  C   UNL     1       2.778   5.907  18.500  0.00  0.00    +0.000 A 
ATOM     26  C   UNL     1       3.267   4.636  18.193  0.00  0.00    +0.000 A 
ATOM     27  C   UNL     1       3.187   3.609  19.137  0.00  0.00    +0.000 A 
ATOM     28 CL   UNL     1       3.751   2.045  18.669  0.00  0.00    +0.000 Cl
ATOM     29  C   UNL     1       2.640   3.865  20.401  0.00  0.00    +0.000 A 
ATOM     30 CL   UNL     1       2.485   2.633  21.605  0.00  0.00    +0.000 Cl
ATOM     31  C   UNL     1       2.170   5.146  20.720  0.00  0.00    +0.000 A 
ENDBRANCH  21  24
ENDBRANCH   1  17
TORSDOF 7
ENDMDL
MODEL 2
REMARK VINA RESULT:      -7.6      0.842      1.315
REMARK  Name = 
REMARK  10 active torsions:
REMARK  status: ('A' for Active; 'I' for Inactive)
REMARK    1  A    between atoms: C_1  and  C_2
REMARK    2  A    between atoms: C_2  and  C_3
REMARK    3  A    between atoms: C_3  and  S_4
REMARK    4  A    between atoms: S_4  and  N_7
REMARK    5  A    between atoms: N_7  and  C_8
REMARK    6  A    between atoms: C_12  and  C_14
REMARK    7  A    between atoms: C_14  and  C_15
REMARK    8  A    between atoms: C_16  and  C_17
REMARK    9  A    between atoms: N_19  and  C_20
REMARK   10  A    between atoms: C_28  and  C_29
REMARK                            x       y       z     vdW  Elec       q    Type
REMARK                         _______ _______ _______ _____ _____    ______ ____
ROOT
ATOM      1  C   UNL     1       0.920  10.928  19.571  0.00  0.00    +0.000 C 
ENDROOT
BRANCH   1   6
ATOM      2  C   UNL     1      -2.386  13.029  22.215  0.00  0.00    +0.000 C 
ATOM      3  C   UNL     1      -0.913  13.054  22.622  0.00  0.00    +0.000 C 
ATOM      4  C   UNL     1      -0.180  13.163  21.303  0.00  0.00    +0.000 C 
ATOM      5  N   UNL     1      -0.966  12.326  20.426  0.00  0.00    +0.000 N 
ATOM      6  C   UNL     1      -0.538  11.376  19.525  0.00  0.00    +0.000 C 
ATOM      7  O   UNL     1      -1.340  10.822  18.766  0.00  0.00    +0.000 OA
ATOM      8  C   UNL     1      -2.368  12.421  20.790  0.00  0.00    +0.000 C 
BRANCH   2   9
ATOM      9  N   UNL     1      -3.188  12.160  23.122  0.00  0.00    +0.000 NA
ATOM     10  H   UNL     1      -3.549  11.343  22.628  0.00  0.00    +0.000 HD
BRANCH   9  11
ATOM     11  S   UNL     1      -4.428  12.912  24.008  0.00  0.00    +0.000 S 
ATOM     12  O   UNL     1      -3.825  14.053  24.661  0.00  0.00    +0.000 OA
ATOM     13  O   UNL     1      -5.125  11.884  24.751  0.00  0.00    +0.000 OA
BRANCH  11  14
ATOM     14  C   UNL     1      -5.447  13.484  22.660  0.00  0.00    +0.000 C 
BRANCH  14  16
ATOM     15  C   UNL     1      -7.915  13.776  22.395  0.00  0.00    +0.000 C 
ATOM     16  C   UNL     1      -6.787  12.768  22.572  0.00  0.00    +0.000 C 
ENDBRANCH  14  16
ENDBRANCH  11  14
ENDBRANCH   9  11
ENDBRANCH   2   9
ENDBRANCH   1   6
BRANCH   1  17
ATOM     17  C   UNL     1       1.139   9.510  19.988  0.00  0.00    +0.000 A 
ATOM     18  C   UNL     1       0.905   8.943  21.269  0.00  0.00    +0.000 A 
ATOM     19  C   UNL     1       0.450   9.586  22.529  0.00  0.00    +0.000 C 
ATOM     20  N   UNL     1       1.151   7.633  21.277  0.00  0.00    +0.000 NA
ATOM     21  N   UNL     1       1.746   7.373  20.092  0.00  0.00    +0.000 N 
ATOM     22  C   UNL     1       1.686   8.466  19.242  0.00  0.00    +0.000 A 
ATOM     23  C   UNL     1       2.056   8.430  17.800  0.00  0.00    +0.000 C 
BRANCH  21  24
ATOM     24  C   UNL     1       2.356   6.104  19.918  0.00  0.00    +0.000 A 
ATOM     25  C   UNL     1       1.703   4.973  20.427  0.00  0.00    +0.000 A 
ATOM     26  C   UNL     1       2.308   3.718  20.346  0.00  0.00    +0.000 A 
ATOM     27  C   UNL     1       3.583   3.590  19.790  0.00  0.00    +0.000 A 
ATOM     28 CL   UNL     1       4.299   2.018  19.782  0.00  0.00    +0.000 Cl
ATOM     29  C   UNL     1       4.241   4.720  19.289  0.00  0.00    +0.000 A 
ATOM     30 CL   UNL     1       5.832   4.637  18.615  0.00  0.00    +0.000 Cl
ATOM     31  C   UNL     1       3.628   5.978  19.347  0.00  0.00    +0.000 A 
ENDBRANCH  21  24
ENDBRANCH   1  17
TORSDOF 7
ENDMDL
MODEL 3
REMARK VINA RESULT:      -7.6      1.407      1.806
REMARK  Name = 
REMARK  10 active torsions:
REMARK  status: ('A' for Active; 'I' for Inactive)
REMARK    1  A    between atoms: C_1  and  C_2
REMARK    2  A    between atoms: C_2  and  C_3
REMARK    3  A    between atoms: C_3  and  S_4
REMARK    4  A    between atoms: S_4  and  N_7
REMARK    5  A    between atoms: N_7  and  C_8
REMARK    6  A    between atoms: C_12  and  C_14
REMARK    7  A    between atoms: C_14  and  C_15
REMARK    8  A    between atoms: C_16  and  C_17
REMARK    9  A    between atoms: N_19  and  C_20
REMARK   10  A    between atoms: C_28  and  C_29
REMARK                            x       y       z     vdW  Elec       q    Type
REMARK                         _______ _______ _______ _____ _____    ______ ____
ROOT
ATOM      1  C   UNL     1       0.859  11.017  19.188  0.00  0.00    +0.000 C 
ENDROOT
BRANCH   1   6
ATOM      2  C   UNL     1      -2.941  13.152  21.013  0.00  0.00    +0.000 C 
ATOM      3  C   UNL     1      -1.562  13.306  21.655  0.00  0.00    +0.000 C 
ATOM      4  C   UNL     1      -0.620  13.335  20.471  0.00  0.00    +0.000 C 
ATOM      5  N   UNL     1      -1.205  12.372  19.568  0.00  0.00    +0.000 N 
ATOM      6  C   UNL     1      -0.587  11.369  18.853  0.00  0.00    +0.000 C 
ATOM      7  O   UNL     1      -1.222  10.697  18.034  0.00  0.00    +0.000 OA
ATOM      8  C   UNL     1      -2.652  12.414  19.682  0.00  0.00    +0.000 C 
BRANCH   2   9
ATOM      9  N   UNL     1      -3.847  12.326  21.860  0.00  0.00    +0.000 NA
ATOM     10  H   UNL     1      -3.886  11.361  21.527  0.00  0.00    +0.000 HD
BRANCH   9  11
ATOM     11  S   UNL     1      -5.414  12.926  22.121  0.00  0.00    +0.000 S 
ATOM     12  O   UNL     1      -6.324  11.911  21.637  0.00  0.00    +0.000 OA
ATOM     13  O   UNL     1      -5.454  14.287  21.632  0.00  0.00    +0.000 OA
BRANCH  11  14
ATOM     14  C   UNL     1      -5.436  12.921  23.906  0.00  0.00    +0.000 C 
BRANCH  14  16
ATOM     15  C   UNL     1      -3.548  14.360  24.689  0.00  0.00    +0.000 C 
ATOM     16  C   UNL     1      -4.045  12.930  24.524  0.00  0.00    +0.000 C 
ENDBRANCH  14  16
ENDBRANCH  11  14
ENDBRANCH   9  11
ENDBRANCH   2   9
ENDBRANCH   1   6
BRANCH   1  17
ATOM     17  C   UNL     1       1.072   9.647  19.744  0.00  0.00    +0.000 A 
ATOM     18  C   UNL     1       0.770   9.195  21.056  0.00  0.00    +0.000 A 
ATOM     19  C   UNL     1       0.234   9.941  22.223  0.00  0.00    +0.000 C 
ATOM     20  N   UNL     1       1.032   7.895  21.197  0.00  0.00    +0.000 NA
ATOM     21  N   UNL     1       1.698   7.539  20.077  0.00  0.00    +0.000 N 
ATOM     22  C   UNL     1       1.674   8.550  19.128  0.00  0.00    +0.000 A 
ATOM     23  C   UNL     1       2.127   8.390  17.719  0.00  0.00    +0.000 C 
BRANCH  21  24
ATOM     24  C   UNL     1       2.332   6.270  20.055  0.00  0.00    +0.000 A 
ATOM     25  C   UNL     1       3.555   6.146  19.381  0.00  0.00    +0.000 A 
ATOM     26  C   UNL     1       4.171   4.899  19.268  0.00  0.00    +0.000 A 
ATOM     27  C   UNL     1       3.552   3.763  19.796  0.00  0.00    +0.000 A 
ATOM     28 CL   UNL     1       4.338   2.242  19.563  0.00  0.00    +0.000 Cl
ATOM     29  C   UNL     1       2.326   3.883  20.462  0.00  0.00    +0.000 A 
ATOM     30 CL   UNL     1       1.493   2.514  21.112  0.00  0.00    +0.000 Cl
ATOM     31  C   UNL     1       1.716   5.137  20.598  0.00  0.00    +0.000 A 
ENDBRANCH  21  24
ENDBRANCH   1  17
TORSDOF 7
ENDMDL
MODEL 4
REMARK VINA RESULT:      -7.4      1.570      1.723
REMARK  Name = 
REMARK  10 active torsions:
REMARK  status: ('A' for Active; 'I' for Inactive)
REMARK    1  A    between atoms: C_1  and  C_2
REMARK    2  A    between atoms: C_2  and  C_3
REMARK    3  A    between atoms: C_3  and  S_4
REMARK    4  A    between atoms: S_4  and  N_7
REMARK    5  A    between atoms: N_7  and  C_8
REMARK    6  A    between atoms: C_12  and  C_14
REMARK    7  A    between atoms: C_14  and  C_15
REMARK    8  A    between atoms: C_16  and  C_17
REMARK    9  A    between atoms: N_19  and  C_20
REMARK   10  A    between atoms: C_28  and  C_29
REMARK                            x       y       z     vdW  Elec       q    Type
REMARK                         _______ _______ _______ _____ _____    ______ ____
ROOT
ATOM      1  C   UNL     1       0.199  11.603  20.399  0.00  0.00    +0.000 C 
ENDROOT
BRANCH   1   6
ATOM      2  C   UNL     1      -4.025  13.304  21.665  0.00  0.00    +0.000 C 
ATOM      3  C   UNL     1      -2.789  13.522  22.538  0.00  0.00    +0.000 C 
ATOM      4  C   UNL     1      -1.672  13.705  21.535  0.00  0.00    +0.000 C 
ATOM      5  N   UNL     1      -2.012  12.762  20.495  0.00  0.00    +0.000 N 
ATOM      6  C   UNL     1      -1.198  11.862  19.844  0.00  0.00    +0.000 C 
ATOM      7  O   UNL     1      -1.627  11.199  18.893  0.00  0.00    +0.000 OA
ATOM      8  C   UNL     1      -3.456  12.682  20.364  0.00  0.00    +0.000 C 
BRANCH   2   9
ATOM      9  N   UNL     1      -4.980  12.354  22.299  0.00  0.00    +0.000 NA
ATOM     10  H   UNL     1      -4.844  11.404  21.950  0.00  0.00    +0.000 HD
BRANCH   9  11
ATOM     11  S   UNL     1      -6.626  12.772  22.252  0.00  0.00    +0.000 S 
ATOM     12  O   UNL     1      -6.692  14.192  22.515  0.00  0.00    +0.000 OA
ATOM     13  O   UNL     1      -7.350  11.810  23.055  0.00  0.00    +0.000 OA
BRANCH  11  14
ATOM     14  C   UNL     1      -6.952  12.485  20.521  0.00  0.00    +0.000 C 
BRANCH  14  16
ATOM     15  C   UNL     1      -6.932  10.853  18.628  0.00  0.00    +0.000 C 
ATOM     16  C   UNL     1      -6.942  11.011  20.143  0.00  0.00    +0.000 C 
ENDBRANCH  14  16
ENDBRANCH  11  14
ENDBRANCH   9  11
ENDBRANCH   2   9
ENDBRANCH   1   6
BRANCH   1  17
ATOM     17  C   UNL     1       0.584  10.165  20.518  0.00  0.00    +0.000 A 
ATOM     18  C   UNL     1       0.451   9.329  21.658  0.00  0.00    +0.000 A 
ATOM     19  C   UNL     1      -0.033   9.649  23.025  0.00  0.00    +0.000 C 
ATOM     20  N   UNL     1       0.838   8.080  21.397  0.00  0.00    +0.000 NA
ATOM     21  N   UNL     1       1.422   8.132  20.179  0.00  0.00    +0.000 N 
ATOM     22  C   UNL     1       1.218   9.361  19.570  0.00  0.00    +0.000 A 
ATOM     23  C   UNL     1       1.546   9.658  18.148  0.00  0.00    +0.000 C 
BRANCH  21  24
ATOM     24  C   UNL     1       2.161   7.001  19.746  0.00  0.00    +0.000 A 
ATOM     25  C   UNL     1       2.888   7.095  18.552  0.00  0.00    +0.000 A 
ATOM     26  C   UNL     1       3.562   5.981  18.051  0.00  0.00    +0.000 A 
ATOM     27  C   UNL     1       3.485   4.757  18.721  0.00  0.00    +0.000 A 
ATOM     28 CL   UNL     1       4.289   3.403  18.011  0.00  0.00    +0.000 Cl
ATOM     29  C   UNL     1       2.750   4.658  19.909  0.00  0.00    +0.000 A 
ATOM     30 CL   UNL     1       2.589   3.167  20.771  0.00  0.00    +0.000 Cl
ATOM     31  C   UNL     1       2.092   5.780  20.427  0.00  0.00    +0.000 A 
ENDBRANCH  21  24
ENDBRANCH   1  17
TORSDOF 7
ENDMDL
MODEL 5
REMARK VINA RESULT:      -7.3      1.563      2.171
REMARK  Name = 
REMARK  10 active torsions:
REMARK  status: ('A' for Active; 'I' for Inactive)
REMARK    1  A    between atoms: C_1  and  C_2
REMARK    2  A    between atoms: C_2  and  C_3
REMARK    3  A    between atoms: C_3  and  S_4
REMARK    4  A    between atoms: S_4  and  N_7
REMARK    5  A    between atoms: N_7  and  C_8
REMARK    6  A    between atoms: C_12  and  C_14
REMARK    7  A    between atoms: C_14  and  C_15
REMARK    8  A    between atoms: C_16  and  C_17
REMARK    9  A    between atoms: N_19  and  C_20
REMARK   10  A    between atoms: C_28  and  C_29
REMARK                            x       y       z     vdW  Elec       q    Type
REMARK                         _______ _______ _______ _____ _____    ______ ____
ROOT
ATOM      1  C   UNL     1       0.724  10.963  19.639  0.00  0.00    +0.000 C 
ENDROOT
BRANCH   1   6
ATOM      2  C   UNL     1      -3.304  13.062  20.945  0.00  0.00    +0.000 C 
ATOM      3  C   UNL     1      -2.001  13.307  21.706  0.00  0.00    +0.000 C 
ATOM      4  C   UNL     1      -0.947  13.298  20.620  0.00  0.00    +0.000 C 
ATOM      5  N   UNL     1      -1.409  12.261  19.728  0.00  0.00    +0.000 N 
ATOM      6  C   UNL     1      -0.692  11.240  19.144  0.00  0.00    +0.000 C 
ATOM      7  O   UNL     1      -1.221  10.496  18.311  0.00  0.00    +0.000 OA
ATOM      8  C   UNL     1      -2.861  12.255  19.698  0.00  0.00    +0.000 C 
BRANCH   2   9
ATOM      9  N   UNL     1      -4.263  12.256  21.750  0.00  0.00    +0.000 NA
ATOM     10  H   UNL     1      -4.234  11.271  21.484  0.00  0.00    +0.000 HD
BRANCH   9  11
ATOM     11  S   UNL     1      -5.869  12.806  21.810  0.00  0.00    +0.000 S 
ATOM     12  O   UNL     1      -6.703  11.649  21.573  0.00  0.00    +0.000 OA
ATOM     13  O   UNL     1      -5.960  13.996  20.992  0.00  0.00    +0.000 OA
BRANCH  11  14
ATOM     14  C   UNL     1      -5.964  13.247  23.537  0.00  0.00    +0.000 C 
BRANCH  14  16
ATOM     15  C   UNL     1      -4.410  15.147  24.006  0.00  0.00    +0.000 C 
ATOM     16  C   UNL     1      -5.862  14.747  23.781  0.00  0.00    +0.000 C 
ENDBRANCH  14  16
ENDBRANCH  11  14
ENDBRANCH   9  11
ENDBRANCH   2   9
ENDBRANCH   1   6
BRANCH   1  17
ATOM     17  C   UNL     1       0.999   9.549  20.033  0.00  0.00    +0.000 A 
ATOM     18  C   UNL     1       0.789   8.953  21.305  0.00  0.00    +0.000 A 
ATOM     19  C   UNL     1       0.311   9.558  22.575  0.00  0.00    +0.000 C 
ATOM     20  N   UNL     1       1.086   7.653  21.291  0.00  0.00    +0.000 NA
ATOM     21  N   UNL     1       1.688   7.435  20.101  0.00  0.00    +0.000 N 
ATOM     22  C   UNL     1       1.584   8.539  19.269  0.00  0.00    +0.000 A 
ATOM     23  C   UNL     1       1.953   8.541  17.826  0.00  0.00    +0.000 C 
BRANCH  21  24
ATOM     24  C   UNL     1       2.346   6.194  19.907  0.00  0.00    +0.000 A 
ATOM     25  C   UNL     1       1.743   5.032  20.406  0.00  0.00    +0.000 A 
ATOM     26  C   UNL     1       2.396   3.803  20.305  0.00  0.00    +0.000 A 
ATOM     27  C   UNL     1       3.671   3.733  19.737  0.00  0.00    +0.000 A 
ATOM     28 CL   UNL     1       4.449   2.191  19.704  0.00  0.00    +0.000 Cl
ATOM     29  C   UNL     1       4.280   4.894  19.246  0.00  0.00    +0.000 A 
ATOM     30 CL   UNL     1       5.867   4.883  18.558  0.00  0.00    +0.000 Cl
ATOM     31  C   UNL     1       3.617   6.126  19.324  0.00  0.00    +0.000 A 
ENDBRANCH  21  24
ENDBRANCH   1  17
TORSDOF 7
ENDMDL
MODEL 6
REMARK VINA RESULT:      -7.3      5.510     10.047
REMARK  Name = 
REMARK  10 active torsions:
REMARK  status: ('A' for Active; 'I' for Inactive)
REMARK    1  A    between atoms: C_1  and  C_2
REMARK    2  A    between atoms: C_2  and  C_3
REMARK    3  A    between atoms: C_3  and  S_4
REMARK    4  A    between atoms: S_4  and  N_7
REMARK    5  A    between atoms: N_7  and  C_8
REMARK    6  A    between atoms: C_12  and  C_14
REMARK    7  A    between atoms: C_14  and  C_15
REMARK    8  A    between atoms: C_16  and  C_17
REMARK    9  A    between atoms: N_19  and  C_20
REMARK   10  A    between atoms: C_28  and  C_29
REMARK                            x       y       z     vdW  Elec       q    Type
REMARK                         _______ _______ _______ _____ _____    ______ ____
ROOT
ATOM      1  C   UNL     1       0.364   9.137  18.408  0.00  0.00    +0.000 C 
ENDROOT
BRANCH   1   6
ATOM      2  C   UNL     1       4.026   6.165  18.093  0.00  0.00    +0.000 C 
ATOM      3  C   UNL     1       2.646   5.677  18.534  0.00  0.00    +0.000 C 
ATOM      4  C   UNL     1       1.692   6.502  17.697  0.00  0.00    +0.000 C 
ATOM      5  N   UNL     1       2.334   7.795  17.656  0.00  0.00    +0.000 N 
ATOM      6  C   UNL     1       1.780   9.043  17.845  0.00  0.00    +0.000 C 
ATOM      7  O   UNL     1       2.451  10.064  17.665  0.00  0.00    +0.000 OA
ATOM      8  C   UNL     1       3.775   7.623  17.632  0.00  0.00    +0.000 C 
BRANCH   2   9
ATOM      9  N   UNL     1       4.995   6.154  19.224  0.00  0.00    +0.000 NA
ATOM     10  H   UNL     1       5.220   7.103  19.527  0.00  0.00    +0.000 HD
BRANCH   9  11
ATOM     11  S   UNL     1       6.415   5.247  19.011  0.00  0.00    +0.000 S 
ATOM     12  O   UNL     1       6.006   3.978  18.452  0.00  0.00    +0.000 OA
ATOM     13  O   UNL     1       7.182   5.333  20.235  0.00  0.00    +0.000 OA
BRANCH  11  14
ATOM     14  C   UNL     1       7.196   6.220  17.736  0.00  0.00    +0.000 C 
BRANCH  14  16
ATOM     15  C   UNL     1       7.788   8.646  17.620  0.00  0.00    +0.000 C 
ATOM     16  C   UNL     1       8.105   7.312  18.283  0.00  0.00    +0.000 C 
ENDBRANCH  14  16
ENDBRANCH  11  14
ENDBRANCH   9  11
ENDBRANCH   2   9
ENDBRANCH   1   6
BRANCH   1  17
ATOM     17  C   UNL     1       0.237   9.881  19.696  0.00  0.00    +0.000 A 
ATOM     18  C   UNL     1       0.762   9.508  20.962  0.00  0.00    +0.000 A 
ATOM     19  C   UNL     1       1.507   8.287  21.363  0.00  0.00    +0.000 C 
ATOM     20  N   UNL     1       0.512  10.434  21.888  0.00  0.00    +0.000 NA
ATOM     21  N   UNL     1      -0.347  11.300  21.307  0.00  0.00    +0.000 N 
ATOM     22  C   UNL     1      -0.480  11.051  19.949  0.00  0.00    +0.000 A 
ATOM     23  C   UNL     1      -1.180  11.954  18.995  0.00  0.00    +0.000 C 
BRANCH  21  24
ATOM     24  C   UNL     1      -0.993  12.253  22.135  0.00  0.00    +0.000 A 
ATOM     25  C   UNL     1      -0.368  13.491  22.342  0.00  0.00    +0.000 A 
ATOM     26  C   UNL     1      -0.931  14.425  23.213  0.00  0.00    +0.000 A 
ATOM     27  C   UNL     1      -2.101  14.114  23.910  0.00  0.00    +0.000 A 
ATOM     28 CL   UNL     1      -2.707  15.290  25.021  0.00  0.00    +0.000 Cl
ATOM     29  C   UNL     1      -2.722  12.875  23.713  0.00  0.00    +0.000 A 
ATOM     30 CL   UNL     1      -4.155  12.416  24.565  0.00  0.00    +0.000 Cl
ATOM     31  C   UNL     1      -2.173  11.944  22.821  0.00  0.00    +0.000 A 
ENDBRANCH  21  24
ENDBRANCH   1  17
TORSDOF 7
ENDMDL
MODEL 7
REMARK VINA RESULT:      -7.2      6.132     10.890
REMARK  Name = 
REMARK  10 active torsions:
REMARK  status: ('A' for Active; 'I' for Inactive)
REMARK    1  A    between atoms: C_1  and  C_2
REMARK    2  A    between atoms: C_2  and  C_3
REMARK    3  A    between atoms: C_3  and  S_4
REMARK    4  A    between atoms: S_4  and  N_7
REMARK    5  A    between atoms: N_7  and  C_8
REMARK    6  A    between atoms: C_12  and  C_14
REMARK    7  A    between atoms: C_14  and  C_15
REMARK    8  A    between atoms: C_16  and  C_17
REMARK    9  A    between atoms: N_19  and  C_20
REMARK   10  A    between atoms: C_28  and  C_29
REMARK                            x       y       z     vdW  Elec       q    Type
REMARK                         _______ _______ _______ _____ _____    ______ ____
ROOT
ATOM      1  C   UNL     1       0.973   9.087  19.233  0.00  0.00    +0.000 C 
ENDROOT
BRANCH   1   6
ATOM      2  C   UNL     1       4.377   6.128  17.823  0.00  0.00    +0.000 C 
ATOM      3  C   UNL     1       3.386   5.731  18.918  0.00  0.00    +0.000 C 
ATOM      4  C   UNL     1       2.089   6.370  18.472  0.00  0.00    +0.000 C 
ATOM      5  N   UNL     1       2.523   7.632  17.920  0.00  0.00    +0.000 N 
ATOM      6  C   UNL     1       1.996   8.890  18.118  0.00  0.00    +0.000 C 
ATOM      7  O   UNL     1       2.420   9.858  17.479  0.00  0.00    +0.000 OA
ATOM      8  C   UNL     1       3.815   7.465  17.279  0.00  0.00    +0.000 C 
BRANCH   2   9
ATOM      9  N   UNL     1       5.743   6.346  18.378  0.00  0.00    +0.000 NA
ATOM     10  H   UNL     1       5.907   7.333  18.577  0.00  0.00    +0.000 HD
BRANCH   9  11
ATOM     11  S   UNL     1       7.042   5.695  17.498  0.00  0.00    +0.000 S 
ATOM     12  O   UNL     1       7.808   4.900  18.433  0.00  0.00    +0.000 OA
ATOM     13  O   UNL     1       7.642   6.768  16.735  0.00  0.00    +0.000 OA
BRANCH  11  14
ATOM     14  C   UNL     1       6.142   4.604  16.409  0.00  0.00    +0.000 C 
BRANCH  14  16
ATOM     15  C   UNL     1       5.606   4.149  14.011  0.00  0.00    +0.000 C 
ATOM     16  C   UNL     1       6.688   4.588  14.988  0.00  0.00    +0.000 C 
ENDBRANCH  14  16
ENDBRANCH  11  14
ENDBRANCH   9  11
ENDBRANCH   2   9
ENDBRANCH   1   6
BRANCH   1  17
ATOM     17  C   UNL     1       0.168  10.342  19.146  0.00  0.00    +0.000 A 
ATOM     18  C   UNL     1      -0.944  10.596  18.301  0.00  0.00    +0.000 A 
ATOM     19  C   UNL     1      -1.564   9.740  17.257  0.00  0.00    +0.000 C 
ATOM     20  N   UNL     1      -1.465  11.803  18.526  0.00  0.00    +0.000 NA
ATOM     21  N   UNL     1      -0.588  12.425  19.344  0.00  0.00    +0.000 N 
ATOM     22  C   UNL     1       0.378  11.549  19.815  0.00  0.00    +0.000 A 
ATOM     23  C   UNL     1       1.350  11.873  20.895  0.00  0.00    +0.000 C 
BRANCH  21  24
ATOM     24  C   UNL     1      -0.746  13.819  19.552  0.00  0.00    +0.000 A 
ATOM     25  C   UNL     1      -1.680  14.252  20.503  0.00  0.00    +0.000 A 
ATOM     26  C   UNL     1      -1.922  15.615  20.680  0.00  0.00    +0.000 A 
ATOM     27  C   UNL     1      -1.260  16.552  19.883  0.00  0.00    +0.000 A 
ATOM     28 CL   UNL     1      -1.655  18.218  20.110  0.00  0.00    +0.000 Cl
ATOM     29  C   UNL     1      -0.333  16.122  18.926  0.00  0.00    +0.000 A 
ATOM     30 CL   UNL     1       0.499  17.227  17.887  0.00  0.00    +0.000 Cl
ATOM     31  C   UNL     1      -0.070  14.756  18.761  0.00  0.00    +0.000 A 
ENDBRANCH  21  24
ENDBRANCH   1  17
TORSDOF 7
ENDMDL
MODEL 8
REMARK VINA RESULT:      -7.2      1.534      1.918
REMARK  Name = 
REMARK  10 active torsions:
REMARK  status: ('A' for Active; 'I' for Inactive)
REMARK    1  A    between atoms: C_1  and  C_2
REMARK    2  A    between atoms: C_2  and  C_3
REMARK    3  A    between atoms: C_3  and  S_4
REMARK    4  A    between atoms: S_4  and  N_7
REMARK    5  A    between atoms: N_7  and  C_8
REMARK    6  A    between atoms: C_12  and  C_14
REMARK    7  A    between atoms: C_14  and  C_15
REMARK    8  A    between atoms: C_16  and  C_17
REMARK    9  A    between atoms: N_19  and  C_20
REMARK   10  A    between atoms: C_28  and  C_29
REMARK                            x       y       z     vdW  Elec       q    Type
REMARK                         _______ _______ _______ _____ _____    ______ ____
ROOT
ATOM      1  C   UNL     1       0.092  11.730  20.259  0.00  0.00    +0.000 C 
ENDROOT
BRANCH   1   6
ATOM      2  C   UNL     1      -4.165  13.253  21.637  0.00  0.00    +0.000 C 
ATOM      3  C   UNL     1      -2.928  13.462  22.511  0.00  0.00    +0.000 C 
ATOM      4  C   UNL     1      -1.824  13.723  21.510  0.00  0.00    +0.000 C 
ATOM      5  N   UNL     1      -2.148  12.823  20.428  0.00  0.00    +0.000 N 
ATOM      6  C   UNL     1      -1.317  11.977  19.727  0.00  0.00    +0.000 C 
ATOM      7  O   UNL     1      -1.735  11.350  18.749  0.00  0.00    +0.000 OA
ATOM      8  C   UNL     1      -3.590  12.711  20.303  0.00  0.00    +0.000 C 
BRANCH   2   9
ATOM      9  N   UNL     1      -5.089  12.248  22.231  0.00  0.00    +0.000 NA
ATOM     10  H   UNL     1      -5.004  11.345  21.763  0.00  0.00    +0.000 HD
BRANCH   9  11
ATOM     11  S   UNL     1      -6.723  12.692  22.367  0.00  0.00    +0.000 S 
ATOM     12  O   UNL     1      -7.146  12.284  23.688  0.00  0.00    +0.000 OA
ATOM     13  O   UNL     1      -7.405  12.244  21.172  0.00  0.00    +0.000 OA
BRANCH  11  14
ATOM     14  C   UNL     1      -6.548  14.468  22.337  0.00  0.00    +0.000 C 
BRANCH  14  16
ATOM     15  C   UNL     1      -5.438  15.860  24.090  0.00  0.00    +0.000 C 
ATOM     16  C   UNL     1      -6.707  15.112  23.707  0.00  0.00    +0.000 C 
ENDBRANCH  14  16
ENDBRANCH  11  14
ENDBRANCH   9  11
ENDBRANCH   2   9
ENDBRANCH   1   6
BRANCH   1  17
ATOM     17  C   UNL     1       0.456  10.295  20.459  0.00  0.00    +0.000 A 
ATOM     18  C   UNL     1       0.282   9.517  21.634  0.00  0.00    +0.000 A 
ATOM     19  C   UNL     1      -0.238   9.910  22.969  0.00  0.00    +0.000 C 
ATOM     20  N   UNL     1       0.662   8.253  21.446  0.00  0.00    +0.000 NA
ATOM     21  N   UNL     1       1.281   8.240  20.244  0.00  0.00    +0.000 N 
ATOM     22  C   UNL     1       1.108   9.439  19.570  0.00  0.00    +0.000 A 
ATOM     23  C   UNL     1       1.481   9.663  18.146  0.00  0.00    +0.000 C 
BRANCH  21  24
ATOM     24  C   UNL     1       2.019   7.082  19.889  0.00  0.00    +0.000 A 
ATOM     25  C   UNL     1       2.769   7.105  18.706  0.00  0.00    +0.000 A 
ATOM     26  C   UNL     1       3.444   5.960  18.280  0.00  0.00    +0.000 A 
ATOM     27  C   UNL     1       3.344   4.775  19.015  0.00  0.00    +0.000 A 
ATOM     28 CL   UNL     1       4.152   3.379  18.396  0.00  0.00    +0.000 Cl
ATOM     29  C   UNL     1       2.587   4.747  20.192  0.00  0.00    +0.000 A 
ATOM     30 CL   UNL     1       2.398   3.308  21.132  0.00  0.00    +0.000 Cl
ATOM     31  C   UNL     1       1.928   5.901  20.635  0.00  0.00    +0.000 A 
ENDBRANCH  21  24
ENDBRANCH   1  17
TORSDOF 7
ENDMDL
MODEL 9
REMARK VINA RESULT:      -7.2      1.386      2.049
REMARK  Name = 
REMARK  10 active torsions:
REMARK  status: ('A' for Active; 'I' for Inactive)
REMARK    1  A    between atoms: C_1  and  C_2
REMARK    2  A    between atoms: C_2  and  C_3
REMARK    3  A    between atoms: C_3  and  S_4
REMARK    4  A    between atoms: S_4  and  N_7
REMARK    5  A    between atoms: N_7  and  C_8
REMARK    6  A    between atoms: C_12  and  C_14
REMARK    7  A    between atoms: C_14  and  C_15
REMARK    8  A    between atoms: C_16  and  C_17
REMARK    9  A    between atoms: N_19  and  C_20
REMARK   10  A    between atoms: C_28  and  C_29
REMARK                            x       y       z     vdW  Elec       q    Type
REMARK                         _______ _______ _______ _____ _____    ______ ____
ROOT
ATOM      1  C   UNL     1       1.150  10.947  19.160  0.00  0.00    +0.000 C 
ENDROOT
BRANCH   1   6
ATOM      2  C   UNL     1      -2.343  13.156  21.453  0.00  0.00    +0.000 C 
ATOM      3  C   UNL     1      -0.908  13.187  21.977  0.00  0.00    +0.000 C 
ATOM      4  C   UNL     1      -0.070  13.247  20.719  0.00  0.00    +0.000 C 
ATOM      5  N   UNL     1      -0.788  12.384  19.810  0.00  0.00    +0.000 N 
ATOM      6  C   UNL     1      -0.296  11.401  18.980  0.00  0.00    +0.000 C 
ATOM      7  O   UNL     1      -1.038  10.825  18.178  0.00  0.00    +0.000 OA
ATOM      8  C   UNL     1      -2.214  12.498  20.055  0.00  0.00    +0.000 C 
BRANCH   2   9
ATOM      9  N   UNL     1      -3.222  12.323  22.320  0.00  0.00    +0.000 NA
ATOM     10  H   UNL     1      -3.318  11.377  21.950  0.00  0.00    +0.000 HD
BRANCH   9  11
ATOM     11  S   UNL     1      -4.747  12.964  22.711  0.00  0.00    +0.000 S 
ATOM     12  O   UNL     1      -5.072  12.465  24.028  0.00  0.00    +0.000 OA
ATOM     13  O   UNL     1      -5.619  12.753  21.575  0.00  0.00    +0.000 OA
BRANCH  11  14
ATOM     14  C   UNL     1      -4.316  14.691  22.833  0.00  0.00    +0.000 C 
BRANCH  14  16
ATOM     15  C   UNL     1      -3.302  15.514  24.964  0.00  0.00    +0.000 C 
ATOM     16  C   UNL     1      -4.602  15.287  24.205  0.00  0.00    +0.000 C 
ENDBRANCH  14  16
ENDBRANCH  11  14
ENDBRANCH   9  11
ENDBRANCH   2   9
ENDBRANCH   1   6
BRANCH   1  17
ATOM     17  C   UNL     1       1.324   9.549  19.654  0.00  0.00    +0.000 A 
ATOM     18  C   UNL     1       1.021   9.049  20.949  0.00  0.00    +0.000 A 
ATOM     19  C   UNL     1       0.522   9.760  22.154  0.00  0.00    +0.000 C 
ATOM     20  N   UNL     1       1.243   7.737  21.031  0.00  0.00    +0.000 NA
ATOM     21  N   UNL     1       1.885   7.409  19.888  0.00  0.00    +0.000 N 
ATOM     22  C   UNL     1       1.884   8.461  18.984  0.00  0.00    +0.000 A 
ATOM     23  C   UNL     1       2.317   8.348  17.564  0.00  0.00    +0.000 C 
BRANCH  21  24
ATOM     24  C   UNL     1       2.478   6.123  19.804  0.00  0.00    +0.000 A 
ATOM     25  C   UNL     1       1.830   5.046  20.422  0.00  0.00    +0.000 A 
ATOM     26  C   UNL     1       2.420   3.781  20.430  0.00  0.00    +0.000 A 
ATOM     27  C   UNL     1       3.678   3.594  19.852  0.00  0.00    +0.000 A 
ATOM     28 CL   UNL     1       4.380   2.018  19.955  0.00  0.00    +0.000 Cl
ATOM     29  C   UNL     1       4.333   4.671  19.242  0.00  0.00    +0.000 A 
ATOM     30 CL   UNL     1       5.903   4.514  18.534  0.00  0.00    +0.000 Cl
ATOM     31  C   UNL     1       3.732   5.936  19.211  0.00  0.00    +0.000 A 
ENDBRANCH  21  24
ENDBRANCH   1  17
TORSDOF 7
ENDMDL
