MODEL 1
REMARK VINA RESULT:      -5.8      0.000      0.000
REMARK  Name = 
REMARK  2 active torsions:
REMARK  status: ('A' for Active; 'I' for Inactive)
REMARK    1  A    between atoms: C_1  and  C_2
REMARK    2  A    between atoms: C_7  and  C_8
REMARK                            x       y       z     vdW  Elec       q    Type
REMARK                         _______ _______ _______ _____ _____    ______ ____
ROOT
ATOM      1  C   UNL     1       7.839   5.154  12.893  0.00  0.00    +0.000 C 
ATOM      2  C   UNL     1       6.944   4.747  14.035  0.00  0.00    +0.000 C 
ATOM      3  O   UNL     1       6.029   3.955  13.857  0.00  0.00    +0.000 OA
ATOM      4  N   UNL     1       7.301   5.364  15.213  0.00  0.00    +0.000 N 
ATOM      5  C   UNL     1       6.646   5.122  16.387  0.00  0.00    +0.000 A 
ATOM      6  N   UNL     1       5.750   4.212  16.667  0.00  0.00    +0.000 NA
ATOM      7  C   UNL     1       5.358   4.335  17.984  0.00  0.00    +0.000 A 
ATOM      8  C   UNL     1       5.919   5.398  18.664  0.00  0.00    +0.000 A 
ATOM      9  S   UNL     1       7.073   6.179  17.657  0.00  0.00    +0.000 S 
ATOM     10  H   UNL     1       8.013   6.077  15.230  0.00  0.00    +0.000 HD
ENDROOT
BRANCH   7  11
ATOM     11  C   UNL     1       4.392   3.396  18.448  0.00  0.00    +0.000 C 
ATOM     12  C   UNL     1       3.052   3.445  18.410  0.00  0.00    +0.000 C 
ATOM     13 CL   UNL     1       2.131   4.759  17.773  0.00  0.00    +0.000 Cl
ATOM     14 CL   UNL     1       2.135   2.135  19.088  0.00  0.00    +0.000 Cl
ENDBRANCH   7  11
TORSDOF 1
ENDMDL
MODEL 2
REMARK VINA RESULT:      -5.8      3.301      3.701
REMARK  Name = 
REMARK  2 active torsions:
REMARK  status: ('A' for Active; 'I' for Inactive)
REMARK    1  A    between atoms: C_1  and  C_2
REMARK    2  A    between atoms: C_7  and  C_8
REMARK                            x       y       z     vdW  Elec       q    Type
REMARK                         _______ _______ _______ _____ _____    ______ ____
ROOT
ATOM      1  C   UNL     1       8.219   6.859  18.523  0.00  0.00    +0.000 C 
ATOM      2  C   UNL     1       7.146   5.884  18.932  0.00  0.00    +0.000 C 
ATOM      3  O   UNL     1       7.065   5.497  20.090  0.00  0.00    +0.000 OA
ATOM      4  N   UNL     1       6.340   5.532  17.873  0.00  0.00    +0.000 N 
ATOM      5  C   UNL     1       5.282   4.679  18.018  0.00  0.00    +0.000 A 
ATOM      6  N   UNL     1       4.741   4.202  19.109  0.00  0.00    +0.000 NA
ATOM      7  C   UNL     1       3.688   3.373  18.781  0.00  0.00    +0.000 A 
ATOM      8  C   UNL     1       3.496   3.178  17.428  0.00  0.00    +0.000 A 
ATOM      9  S   UNL     1       4.585   4.173  16.544  0.00  0.00    +0.000 S 
ATOM     10  H   UNL     1       6.554   5.833  16.936  0.00  0.00    +0.000 HD
ENDROOT
BRANCH   7  11
ATOM     11  C   UNL     1       2.981   2.788  19.871  0.00  0.00    +0.000 C 
ATOM     12  C   UNL     1       2.055   3.319  20.685  0.00  0.00    +0.000 C 
ATOM     13 CL   UNL     1       1.492   4.949  20.608  0.00  0.00    +0.000 Cl
ATOM     14 CL   UNL     1       1.384   2.345  21.957  0.00  0.00    +0.000 Cl
ENDBRANCH   7  11
TORSDOF 1
ENDMDL
MODEL 3
REMARK VINA RESULT:      -5.7      1.411      1.652
REMARK  Name = 
REMARK  2 active torsions:
REMARK  status: ('A' for Active; 'I' for Inactive)
REMARK    1  A    between atoms: C_1  and  C_2
REMARK    2  A    between atoms: C_7  and  C_8
REMARK                            x       y       z     vdW  Elec       q    Type
REMARK                         _______ _______ _______ _____ _____    ______ ____
ROOT
ATOM      1  C   UNL     1       7.122   3.872  12.131  0.00  0.00    +0.000 C 
ATOM      2  C   UNL     1       6.149   3.949  13.278  0.00  0.00    +0.000 C 
ATOM      3  O   UNL     1       4.946   3.840  13.084  0.00  0.00    +0.000 OA
ATOM      4  N   UNL     1       6.788   4.144  14.482  0.00  0.00    +0.000 N 
ATOM      5  C   UNL     1       6.106   4.217  15.664  0.00  0.00    +0.000 A 
ATOM      6  N   UNL     1       4.849   3.960  15.915  0.00  0.00    +0.000 NA
ATOM      7  C   UNL     1       4.591   4.168  17.254  0.00  0.00    +0.000 A 
ATOM      8  C   UNL     1       5.655   4.655  17.986  0.00  0.00    +0.000 A 
ATOM      9  S   UNL     1       7.054   4.725  16.989  0.00  0.00    +0.000 S 
ATOM     10  H   UNL     1       7.780   4.320  14.520  0.00  0.00    +0.000 HD
ENDROOT
BRANCH   7  11
ATOM     11  C   UNL     1       3.259   3.910  17.690  0.00  0.00    +0.000 C 
ATOM     12  C   UNL     1       2.719   2.794  18.204  0.00  0.00    +0.000 C 
ATOM     13 CL   UNL     1       3.567   1.310  18.447  0.00  0.00    +0.000 Cl
ATOM     14 CL   UNL     1       1.034   2.782  18.624  0.00  0.00    +0.000 Cl
ENDBRANCH   7  11
TORSDOF 1
ENDMDL
MODEL 4
REMARK VINA RESULT:      -5.6      4.166      5.791
REMARK  Name = 
REMARK  2 active torsions:
REMARK  status: ('A' for Active; 'I' for Inactive)
REMARK    1  A    between atoms: C_1  and  C_2
REMARK    2  A    between atoms: C_7  and  C_8
REMARK                            x       y       z     vdW  Elec       q    Type
REMARK                         _______ _______ _______ _____ _____    ______ ____
ROOT
ATOM      1  C   UNL     1       1.526   7.943  20.929  0.00  0.00    +0.000 C 
ATOM      2  C   UNL     1       2.185   7.161  19.824  0.00  0.00    +0.000 C 
ATOM      3  O   UNL     1       2.374   7.669  18.727  0.00  0.00    +0.000 OA
ATOM      4  N   UNL     1       2.513   5.884  20.223  0.00  0.00    +0.000 N 
ATOM      5  C   UNL     1       3.147   5.003  19.392  0.00  0.00    +0.000 A 
ATOM      6  N   UNL     1       3.692   5.209  18.222  0.00  0.00    +0.000 NA
ATOM      7  C   UNL     1       4.221   4.029  17.741  0.00  0.00    +0.000 A 
ATOM      8  C   UNL     1       3.997   2.922  18.535  0.00  0.00    +0.000 A 
ATOM      9  S   UNL     1       3.220   3.406  19.990  0.00  0.00    +0.000 S 
ATOM     10  H   UNL     1       2.225   5.531  21.121  0.00  0.00    +0.000 HD
ENDROOT
BRANCH   7  11
ATOM     11  C   UNL     1       4.869   4.096  16.474  0.00  0.00    +0.000 C 
ATOM     12  C   UNL     1       6.164   4.285  16.176  0.00  0.00    +0.000 C 
ATOM     13 CL   UNL     1       7.418   4.535  17.337  0.00  0.00    +0.000 Cl
ATOM     14 CL   UNL     1       6.652   4.342  14.510  0.00  0.00    +0.000 Cl
ENDBRANCH   7  11
TORSDOF 1
ENDMDL
MODEL 5
REMARK VINA RESULT:      -5.5      3.429      4.293
REMARK  Name = 
REMARK  2 active torsions:
REMARK  status: ('A' for Active; 'I' for Inactive)
REMARK    1  A    between atoms: C_1  and  C_2
REMARK    2  A    between atoms: C_7  and  C_8
REMARK                            x       y       z     vdW  Elec       q    Type
REMARK                         _______ _______ _______ _____ _____    ______ ____
ROOT
ATOM      1  C   UNL     1       5.845   2.985  12.002  0.00  0.00    +0.000 C 
ATOM      2  C   UNL     1       6.229   3.937  13.104  0.00  0.00    +0.000 C 
ATOM      3  O   UNL     1       7.185   4.690  12.973  0.00  0.00    +0.000 OA
ATOM      4  N   UNL     1       5.393   3.828  14.192  0.00  0.00    +0.000 N 
ATOM      5  C   UNL     1       5.535   4.616  15.300  0.00  0.00    +0.000 A 
ATOM      6  N   UNL     1       6.297   5.662  15.484  0.00  0.00    +0.000 NA
ATOM      7  C   UNL     1       6.119   6.148  16.763  0.00  0.00    +0.000 A 
ATOM      8  C   UNL     1       5.270   5.404  17.558  0.00  0.00    +0.000 A 
ATOM      9  S   UNL     1       4.571   4.139  16.626  0.00  0.00    +0.000 S 
ATOM     10  H   UNL     1       4.692   3.105  14.238  0.00  0.00    +0.000 HD
ENDROOT
BRANCH   7  11
ATOM     11  C   UNL     1       6.873   7.306  17.111  0.00  0.00    +0.000 C 
ATOM     12  C   UNL     1       7.788   7.483  18.076  0.00  0.00    +0.000 C 
ATOM     13 CL   UNL     1       8.275   6.274  19.208  0.00  0.00    +0.000 Cl
ATOM     14 CL   UNL     1       8.528   9.043  18.269  0.00  0.00    +0.000 Cl
ENDBRANCH   7  11
TORSDOF 1
ENDMDL
MODEL 6
REMARK VINA RESULT:      -5.5      3.614      5.295
REMARK  Name = 
REMARK  2 active torsions:
REMARK  status: ('A' for Active; 'I' for Inactive)
REMARK    1  A    between atoms: C_1  and  C_2
REMARK    2  A    between atoms: C_7  and  C_8
REMARK                            x       y       z     vdW  Elec       q    Type
REMARK                         _______ _______ _______ _____ _____    ______ ____
ROOT
ATOM      1  C   UNL     1       2.054   5.537  20.341  0.00  0.00    +0.000 C 
ATOM      2  C   UNL     1       2.783   5.011  19.133  0.00  0.00    +0.000 C 
ATOM      3  O   UNL     1       2.189   4.369  18.277  0.00  0.00    +0.000 OA
ATOM      4  N   UNL     1       4.118   5.345  19.152  0.00  0.00    +0.000 N 
ATOM      5  C   UNL     1       4.970   4.996  18.141  0.00  0.00    +0.000 A 
ATOM      6  N   UNL     1       4.702   4.483  16.969  0.00  0.00    +0.000 NA
ATOM      7  C   UNL     1       5.875   4.292  16.267  0.00  0.00    +0.000 A 
ATOM      8  C   UNL     1       7.028   4.598  16.961  0.00  0.00    +0.000 A 
ATOM      9  S   UNL     1       6.618   5.275  18.488  0.00  0.00    +0.000 S 
ATOM     10  H   UNL     1       4.529   5.794  19.955  0.00  0.00    +0.000 HD
ENDROOT
BRANCH   7  11
ATOM     11  C   UNL     1       5.746   3.753  14.955  0.00  0.00    +0.000 C 
ATOM     12  C   UNL     1       6.394   4.070  13.823  0.00  0.00    +0.000 C 
ATOM     13 CL   UNL     1       7.593   5.305  13.686  0.00  0.00    +0.000 Cl
ATOM     14 CL   UNL     1       5.992   3.238  12.352  0.00  0.00    +0.000 Cl
ENDBRANCH   7  11
TORSDOF 1
ENDMDL
MODEL 7
REMARK VINA RESULT:      -5.5      3.904      5.846
REMARK  Name = 
REMARK  2 active torsions:
REMARK  status: ('A' for Active; 'I' for Inactive)
REMARK    1  A    between atoms: C_1  and  C_2
REMARK    2  A    between atoms: C_7  and  C_8
REMARK                            x       y       z     vdW  Elec       q    Type
REMARK                         _______ _______ _______ _____ _____    ______ ____
ROOT
ATOM      1  C   UNL     1       1.538   2.707  21.564  0.00  0.00    +0.000 C 
ATOM      2  C   UNL     1       2.418   3.186  20.439  0.00  0.00    +0.000 C 
ATOM      3  O   UNL     1       3.221   2.430  19.909  0.00  0.00    +0.000 OA
ATOM      4  N   UNL     1       2.187   4.509  20.134  0.00  0.00    +0.000 N 
ATOM      5  C   UNL     1       2.853   5.149  19.126  0.00  0.00    +0.000 A 
ATOM      6  N   UNL     1       3.639   4.656  18.205  0.00  0.00    +0.000 NA
ATOM      7  C   UNL     1       4.094   5.673  17.390  0.00  0.00    +0.000 A 
ATOM      8  C   UNL     1       3.697   6.942  17.762  0.00  0.00    +0.000 A 
ATOM      9  S   UNL     1       2.611   6.838  19.091  0.00  0.00    +0.000 S 
ATOM     10  H   UNL     1       1.572   5.072  20.699  0.00  0.00    +0.000 HD
ENDROOT
BRANCH   7  11
ATOM     11  C   UNL     1       4.952   5.290  16.319  0.00  0.00    +0.000 C 
ATOM     12  C   UNL     1       6.234   4.895  16.339  0.00  0.00    +0.000 C 
ATOM     13 CL   UNL     1       7.209   4.780  17.760  0.00  0.00    +0.000 Cl
ATOM     14 CL   UNL     1       7.028   4.511  14.843  0.00  0.00    +0.000 Cl
ENDBRANCH   7  11
TORSDOF 1
ENDMDL
MODEL 8
REMARK VINA RESULT:      -5.5      2.528      2.975
REMARK  Name = 
REMARK  2 active torsions:
REMARK  status: ('A' for Active; 'I' for Inactive)
REMARK    1  A    between atoms: C_1  and  C_2
REMARK    2  A    between atoms: C_7  and  C_8
REMARK                            x       y       z     vdW  Elec       q    Type
REMARK                         _______ _______ _______ _____ _____    ______ ____
ROOT
ATOM      1  C   UNL     1       6.223   4.943  14.816  0.00  0.00    +0.000 C 
ATOM      2  C   UNL     1       5.337   4.734  16.016  0.00  0.00    +0.000 C 
ATOM      3  O   UNL     1       5.141   3.610  16.459  0.00  0.00    +0.000 OA
ATOM      4  N   UNL     1       4.826   5.922  16.490  0.00  0.00    +0.000 N 
ATOM      5  C   UNL     1       4.017   5.976  17.591  0.00  0.00    +0.000 A 
ATOM      6  N   UNL     1       3.727   5.041  18.456  0.00  0.00    +0.000 NA
ATOM      7  C   UNL     1       2.866   5.542  19.411  0.00  0.00    +0.000 A 
ATOM      8  C   UNL     1       2.458   6.845  19.204  0.00  0.00    +0.000 A 
ATOM      9  S   UNL     1       3.288   7.498  17.847  0.00  0.00    +0.000 S 
ATOM     10  H   UNL     1       4.971   6.785  15.992  0.00  0.00    +0.000 HD
ENDROOT
BRANCH   7  11
ATOM     11  C   UNL     1       2.469   4.641  20.441  0.00  0.00    +0.000 C 
ATOM     12  C   UNL     1       1.725   3.527  20.374  0.00  0.00    +0.000 C 
ATOM     13 CL   UNL     1       1.008   2.904  18.932  0.00  0.00    +0.000 Cl
ATOM     14 CL   UNL     1       1.389   2.641  21.830  0.00  0.00    +0.000 Cl
ENDBRANCH   7  11
TORSDOF 1
ENDMDL
MODEL 9
REMARK VINA RESULT:      -5.5      1.071      1.271
REMARK  Name = 
REMARK  2 active torsions:
REMARK  status: ('A' for Active; 'I' for Inactive)
REMARK    1  A    between atoms: C_1  and  C_2
REMARK    2  A    between atoms: C_7  and  C_8
REMARK                            x       y       z     vdW  Elec       q    Type
REMARK                         _______ _______ _______ _____ _____    ______ ____
ROOT
ATOM      1  C   UNL     1       7.530   4.782  13.351  0.00  0.00    +0.000 C 
ATOM      2  C   UNL     1       6.530   4.730  14.476  0.00  0.00    +0.000 C 
ATOM      3  O   UNL     1       5.338   4.573  14.245  0.00  0.00    +0.000 OA
ATOM      4  N   UNL     1       7.132   4.877  15.706  0.00  0.00    +0.000 N 
ATOM      5  C   UNL     1       6.421   4.834  16.872  0.00  0.00    +0.000 A 
ATOM      6  N   UNL     1       5.174   4.496  17.074  0.00  0.00    +0.000 NA
ATOM      7  C   UNL     1       4.877   4.599  18.418  0.00  0.00    +0.000 A 
ATOM      8  C   UNL     1       5.898   5.090  19.207  0.00  0.00    +0.000 A 
ATOM      9  S   UNL     1       7.313   5.299  18.252  0.00  0.00    +0.000 S 
ATOM     10  H   UNL     1       8.111   5.100  15.781  0.00  0.00    +0.000 HD
ENDROOT
BRANCH   7  11
ATOM     11  C   UNL     1       3.551   4.244  18.802  0.00  0.00    +0.000 C 
ATOM     12  C   UNL     1       2.928   3.057  18.756  0.00  0.00    +0.000 C 
ATOM     13 CL   UNL     1       3.629   1.596  18.157  0.00  0.00    +0.000 Cl
ATOM     14 CL   UNL     1       1.276   2.944  19.281  0.00  0.00    +0.000 Cl
ENDBRANCH   7  11
TORSDOF 1
ENDMDL
