MODEL 1
REMARK VINA RESULT:      -7.2      0.000      0.000
REMARK  Name = 
REMARK  10 active torsions:
REMARK  status: ('A' for Active; 'I' for Inactive)
REMARK    1  A    between atoms: C_1  and  C_2
REMARK    2  A    between atoms: C_2  and  C_3
REMARK    3  A    between atoms: C_2  and  C_4
REMARK    4  A    between atoms: C_2  and  N_5
REMARK    5  A    between atoms: C_6  and  C_8
REMARK    6  A    between atoms: C_8  and  C_9
REMARK    7  A    between atoms: C_8  and  N_18
REMARK    8  A    between atoms: C_12  and  N_13
REMARK    9  A    between atoms: N_18  and  C_23
REMARK   10  A    between atoms: C_19  and  C_21
REMARK                            x       y       z     vdW  Elec       q    Type
REMARK                         _______ _______ _______ _____ _____    ______ ____
ROOT
ATOM      1  C   UNL     1       4.491   5.313  17.380  0.00  0.00    +0.000 C 
ENDROOT
BRANCH   1   2
ATOM      2  C   UNL     1       3.640   6.506  17.869  0.00  0.00    +0.000 A 
ATOM      3  C   UNL     1       3.343   7.622  17.078  0.00  0.00    +0.000 A 
ATOM      4  C   UNL     1       2.537   8.668  17.536  0.00  0.00    +0.000 A 
ATOM      5  C   UNL     1       2.013   8.624  18.824  0.00  0.00    +0.000 A 
ATOM      6  C   UNL     1       2.316   7.546  19.662  0.00  0.00    +0.000 A 
ATOM      7  C   UNL     1       3.127   6.504  19.185  0.00  0.00    +0.000 A 
BRANCH   5   8
ATOM      8  N   UNL     1       1.138   9.708  19.283  0.00  0.00    +0.000 N 
ATOM      9  O   UNL     1       0.515   9.537  20.343  0.00  0.00    +0.000 OA
ATOM     10  O   UNL     1       1.083  10.734  18.596  0.00  0.00    +0.000 OA
ENDBRANCH   5   8
ENDBRANCH   1   2
BRANCH   1  12
ATOM     11  N   UNL     1       3.183   3.460  18.532  0.00  0.00    +0.000 N 
ATOM     12  C   UNL     1       4.405   4.074  18.333  0.00  0.00    +0.000 C 
ATOM     13  O   UNL     1       5.445   3.598  18.795  0.00  0.00    +0.000 OA
ATOM     14  H   UNL     1       2.390   4.078  18.570  0.00  0.00    +0.000 HD
BRANCH  11  16
ATOM     15  C   UNL     1       1.529   1.822  19.376  0.00  0.00    +0.000 C 
ATOM     16  C   UNL     1       3.012   2.215  19.324  0.00  0.00    +0.000 C 
ATOM     17  C   UNL     1       3.586   2.344  20.750  0.00  0.00    +0.000 C 
ATOM     18  C   UNL     1       3.789   1.076  18.630  0.00  0.00    +0.000 C 
ENDBRANCH  11  16
ENDBRANCH   1  12
BRANCH   1  19
ATOM     19  N   UNL     1       5.755   5.686  16.639  0.00  0.00    +0.000 N 
ATOM     20  C   UNL     1       6.356   5.108  15.515  0.00  0.00    +0.000 C 
ATOM     21  O   UNL     1       7.430   5.538  15.064  0.00  0.00    +0.000 OA
BRANCH  19  22
ATOM     22  C   UNL     1       6.572   6.665  17.337  0.00  0.00    +0.000 A 
ATOM     23  C   UNL     1       6.527   8.020  16.977  0.00  0.00    +0.000 A 
ATOM     24  C   UNL     1       7.402   8.939  17.570  0.00  0.00    +0.000 A 
ATOM     25  C   UNL     1       8.308   8.515  18.542  0.00  0.00    +0.000 A 
ATOM     26 CL   UNL     1       9.415   9.637  19.231  0.00  0.00    +0.000 Cl
ATOM     27  C   UNL     1       8.334   7.183  18.942  0.00  0.00    +0.000 A 
ATOM     28  C   UNL     1       7.470   6.264  18.339  0.00  0.00    +0.000 A 
ENDBRANCH  19  22
BRANCH  20  29
ATOM     29  C   UNL     1       5.676   4.021  14.710  0.00  0.00    +0.000 C 
ATOM     30 CL   UNL     1       6.447   3.884  13.109  0.00  0.00    +0.000 Cl
ENDBRANCH  20  29
ENDBRANCH   1  19
TORSDOF 7
ENDMDL
MODEL 2
REMARK VINA RESULT:      -6.9      5.631      9.231
REMARK  Name = 
REMARK  10 active torsions:
REMARK  status: ('A' for Active; 'I' for Inactive)
REMARK    1  A    between atoms: C_1  and  C_2
REMARK    2  A    between atoms: C_2  and  C_3
REMARK    3  A    between atoms: C_2  and  C_4
REMARK    4  A    between atoms: C_2  and  N_5
REMARK    5  A    between atoms: C_6  and  C_8
REMARK    6  A    between atoms: C_8  and  C_9
REMARK    7  A    between atoms: C_8  and  N_18
REMARK    8  A    between atoms: C_12  and  N_13
REMARK    9  A    between atoms: N_18  and  C_23
REMARK   10  A    between atoms: C_19  and  C_21
REMARK                            x       y       z     vdW  Elec       q    Type
REMARK                         _______ _______ _______ _____ _____    ______ ____
ROOT
ATOM      1  C   UNL     1       0.523  11.939  19.963  0.00  0.00    +0.000 C 
ENDROOT
BRANCH   1   2
ATOM      2  C   UNL     1      -0.528  12.208  21.062  0.00  0.00    +0.000 A 
ATOM      3  C   UNL     1      -1.426  13.282  21.032  0.00  0.00    +0.000 A 
ATOM      4  C   UNL     1      -2.392  13.476  22.021  0.00  0.00    +0.000 A 
ATOM      5  C   UNL     1      -2.474  12.590  23.091  0.00  0.00    +0.000 A 
ATOM      6  C   UNL     1      -1.573  11.525  23.183  0.00  0.00    +0.000 A 
ATOM      7  C   UNL     1      -0.608  11.345  22.178  0.00  0.00    +0.000 A 
BRANCH   5   8
ATOM      8  N   UNL     1      -3.515  12.780  24.106  0.00  0.00    +0.000 N 
ATOM      9  O   UNL     1      -3.545  13.867  24.706  0.00  0.00    +0.000 OA
ATOM     10  O   UNL     1      -4.311  11.853  24.297  0.00  0.00    +0.000 OA
ENDBRANCH   5   8
ENDBRANCH   1   2
BRANCH   1  12
ATOM     11  N   UNL     1       2.409  13.626  20.231  0.00  0.00    +0.000 N 
ATOM     12  C   UNL     1       1.288  13.234  19.525  0.00  0.00    +0.000 C 
ATOM     13  O   UNL     1       0.945  13.813  18.491  0.00  0.00    +0.000 OA
ATOM     14  H   UNL     1       2.369  13.476  21.225  0.00  0.00    +0.000 HD
BRANCH  11  16
ATOM     15  C   UNL     1       2.459  16.075  19.860  0.00  0.00    +0.000 C 
ATOM     16  C   UNL     1       3.269  14.770  19.831  0.00  0.00    +0.000 C 
ATOM     17  C   UNL     1       3.911  14.564  18.444  0.00  0.00    +0.000 C 
ATOM     18  C   UNL     1       4.426  14.898  20.846  0.00  0.00    +0.000 C 
ENDBRANCH  11  16
ENDBRANCH   1  12
BRANCH   1  19
ATOM     19  N   UNL     1       0.173  10.832  18.996  0.00  0.00    +0.000 N 
ATOM     20  C   UNL     1      -0.907  10.700  18.116  0.00  0.00    +0.000 C 
ATOM     21  O   UNL     1      -1.048   9.686  17.414  0.00  0.00    +0.000 OA
BRANCH  19  22
ATOM     22  C   UNL     1       0.975   9.632  19.168  0.00  0.00    +0.000 A 
ATOM     23  C   UNL     1       1.767   9.145  18.118  0.00  0.00    +0.000 A 
ATOM     24  C   UNL     1       2.443   7.925  18.250  0.00  0.00    +0.000 A 
ATOM     25  C   UNL     1       2.351   7.199  19.437  0.00  0.00    +0.000 A 
ATOM     26 CL   UNL     1       3.142   5.677  19.576  0.00  0.00    +0.000 Cl
ATOM     27  C   UNL     1       1.606   7.691  20.504  0.00  0.00    +0.000 A 
ATOM     28  C   UNL     1       0.920   8.902  20.366  0.00  0.00    +0.000 A 
ENDBRANCH  19  22
BRANCH  20  29
ATOM     29  C   UNL     1      -1.886  11.828  17.870  0.00  0.00    +0.000 C 
ATOM     30 CL   UNL     1      -3.463  11.427  18.597  0.00  0.00    +0.000 Cl
ENDBRANCH  20  29
ENDBRANCH   1  19
TORSDOF 7
ENDMDL
MODEL 3
REMARK VINA RESULT:      -6.8      5.584      9.183
REMARK  Name = 
REMARK  10 active torsions:
REMARK  status: ('A' for Active; 'I' for Inactive)
REMARK    1  A    between atoms: C_1  and  C_2
REMARK    2  A    between atoms: C_2  and  C_3
REMARK    3  A    between atoms: C_2  and  C_4
REMARK    4  A    between atoms: C_2  and  N_5
REMARK    5  A    between atoms: C_6  and  C_8
REMARK    6  A    between atoms: C_8  and  C_9
REMARK    7  A    between atoms: C_8  and  N_18
REMARK    8  A    between atoms: C_12  and  N_13
REMARK    9  A    between atoms: N_18  and  C_23
REMARK   10  A    between atoms: C_19  and  C_21
REMARK                            x       y       z     vdW  Elec       q    Type
REMARK                         _______ _______ _______ _____ _____    ______ ____
ROOT
ATOM      1  C   UNL     1       0.462  11.849  19.903  0.00  0.00    +0.000 C 
ENDROOT
BRANCH   1   2
ATOM      2  C   UNL     1      -0.559  12.138  21.026  0.00  0.00    +0.000 A 
ATOM      3  C   UNL     1      -1.363  13.283  21.067  0.00  0.00    +0.000 A 
ATOM      4  C   UNL     1      -2.306  13.498  22.075  0.00  0.00    +0.000 A 
ATOM      5  C   UNL     1      -2.457  12.560  23.091  0.00  0.00    +0.000 A 
ATOM      6  C   UNL     1      -1.648  11.420  23.112  0.00  0.00    +0.000 A 
ATOM      7  C   UNL     1      -0.706  11.220  22.090  0.00  0.00    +0.000 A 
BRANCH   5   8
ATOM      8  N   UNL     1      -3.475  12.776  24.125  0.00  0.00    +0.000 N 
ATOM      9  O   UNL     1      -4.288  11.862  24.335  0.00  0.00    +0.000 OA
ATOM     10  O   UNL     1      -3.454  13.850  24.738  0.00  0.00    +0.000 OA
ENDBRANCH   5   8
ENDBRANCH   1   2
BRANCH   1  12
ATOM     11  N   UNL     1       2.421  13.447  20.189  0.00  0.00    +0.000 N 
ATOM     12  C   UNL     1       1.280  13.116  19.483  0.00  0.00    +0.000 C 
ATOM     13  O   UNL     1       0.957  13.729  18.462  0.00  0.00    +0.000 OA
ATOM     14  H   UNL     1       2.380  13.280  21.182  0.00  0.00    +0.000 HD
BRANCH  11  16
ATOM     15  C   UNL     1       3.890  14.320  18.397  0.00  0.00    +0.000 C 
ATOM     16  C   UNL     1       3.327  14.560  19.806  0.00  0.00    +0.000 C 
ATOM     17  C   UNL     1       4.473  14.758  20.818  0.00  0.00    +0.000 C 
ATOM     18  C   UNL     1       2.516  15.873  19.783  0.00  0.00    +0.000 C 
ENDBRANCH  11  16
ENDBRANCH   1  12
BRANCH   1  19
ATOM     19  N   UNL     1       0.045  10.783  18.915  0.00  0.00    +0.000 N 
ATOM     20  C   UNL     1      -1.070  10.709  18.073  0.00  0.00    +0.000 C 
ATOM     21  O   UNL     1      -1.265   9.722  17.346  0.00  0.00    +0.000 OA
BRANCH  19  22
ATOM     22  C   UNL     1       0.819   9.557  19.019  0.00  0.00    +0.000 A 
ATOM     23  C   UNL     1       0.846   8.828  20.216  0.00  0.00    +0.000 A 
ATOM     24  C   UNL     1       1.686   7.715  20.348  0.00  0.00    +0.000 A 
ATOM     25  C   UNL     1       2.484   7.310  19.278  0.00  0.00    +0.000 A 
ATOM     26 CL   UNL     1       3.552   5.974  19.461  0.00  0.00    +0.000 Cl
ATOM     27  C   UNL     1       2.436   7.997  18.069  0.00  0.00    +0.000 A 
ATOM     28  C   UNL     1       1.607   9.116  17.943  0.00  0.00    +0.000 A 
ENDBRANCH  19  22
BRANCH  20  29
ATOM     29  C   UNL     1      -2.026  11.870  17.901  0.00  0.00    +0.000 C 
ATOM     30 CL   UNL     1      -3.681  11.355  18.317  0.00  0.00    +0.000 Cl
ENDBRANCH  20  29
ENDBRANCH   1  19
TORSDOF 7
ENDMDL
MODEL 4
REMARK VINA RESULT:      -6.8      5.707      9.308
REMARK  Name = 
REMARK  10 active torsions:
REMARK  status: ('A' for Active; 'I' for Inactive)
REMARK    1  A    between atoms: C_1  and  C_2
REMARK    2  A    between atoms: C_2  and  C_3
REMARK    3  A    between atoms: C_2  and  C_4
REMARK    4  A    between atoms: C_2  and  N_5
REMARK    5  A    between atoms: C_6  and  C_8
REMARK    6  A    between atoms: C_8  and  C_9
REMARK    7  A    between atoms: C_8  and  N_18
REMARK    8  A    between atoms: C_12  and  N_13
REMARK    9  A    between atoms: N_18  and  C_23
REMARK   10  A    between atoms: C_19  and  C_21
REMARK                            x       y       z     vdW  Elec       q    Type
REMARK                         _______ _______ _______ _____ _____    ______ ____
ROOT
ATOM      1  C   UNL     1       0.697  11.831  20.449  0.00  0.00    +0.000 C 
ENDROOT
BRANCH   1   2
ATOM      2  C   UNL     1      -0.415  12.141  21.476  0.00  0.00    +0.000 A 
ATOM      3  C   UNL     1      -0.996  13.405  21.632  0.00  0.00    +0.000 A 
ATOM      4  C   UNL     1      -2.027  13.646  22.543  0.00  0.00    +0.000 A 
ATOM      5  C   UNL     1      -2.500  12.609  23.342  0.00  0.00    +0.000 A 
ATOM      6  C   UNL     1      -1.922  11.339  23.248  0.00  0.00    +0.000 A 
ATOM      7  C   UNL     1      -0.886  11.116  22.326  0.00  0.00    +0.000 A 
BRANCH   5   8
ATOM      8  N   UNL     1      -3.607  12.862  24.270  0.00  0.00    +0.000 N 
ATOM      9  O   UNL     1      -4.420  11.944  24.462  0.00  0.00    +0.000 OA
ATOM     10  O   UNL     1      -3.660  13.970  24.816  0.00  0.00    +0.000 OA
ENDBRANCH   5   8
ENDBRANCH   1   2
BRANCH   1  12
ATOM     11  N   UNL     1       1.377  13.999  19.305  0.00  0.00    +0.000 N 
ATOM     12  C   UNL     1       1.683  13.029  20.241  0.00  0.00    +0.000 C 
ATOM     13  O   UNL     1       2.653  13.147  20.993  0.00  0.00    +0.000 OA
ATOM     14  H   UNL     1       0.934  13.665  18.464  0.00  0.00    +0.000 HD
BRANCH  11  16
ATOM     15  C   UNL     1       3.405  14.926  18.227  0.00  0.00    +0.000 C 
ATOM     16  C   UNL     1       2.185  15.231  19.108  0.00  0.00    +0.000 C 
ATOM     17  C   UNL     1       2.627  15.860  20.444  0.00  0.00    +0.000 C 
ATOM     18  C   UNL     1       1.316  16.281  18.384  0.00  0.00    +0.000 C 
ENDBRANCH  11  16
ENDBRANCH   1  12
BRANCH   1  19
ATOM     19  N   UNL     1       0.294  10.901  19.328  0.00  0.00    +0.000 N 
ATOM     20  C   UNL     1      -0.843  10.900  18.512  0.00  0.00    +0.000 C 
ATOM     21  O   UNL     1      -1.020  10.020  17.654  0.00  0.00    +0.000 OA
BRANCH  19  22
ATOM     22  C   UNL     1       1.120   9.709  19.233  0.00  0.00    +0.000 A 
ATOM     23  C   UNL     1       1.842   9.431  18.064  0.00  0.00    +0.000 A 
ATOM     24  C   UNL     1       2.540   8.223  17.934  0.00  0.00    +0.000 A 
ATOM     25  C   UNL     1       2.541   7.300  18.980  0.00  0.00    +0.000 A 
ATOM     26 CL   UNL     1       3.357   5.797  18.796  0.00  0.00    +0.000 Cl
ATOM     27  C   UNL     1       1.866   7.581  20.163  0.00  0.00    +0.000 A 
ATOM     28  C   UNL     1       1.158   8.781  20.286  0.00  0.00    +0.000 A 
ENDBRANCH  19  22
BRANCH  20  29
ATOM     29  C   UNL     1      -1.850  12.029  18.533  0.00  0.00    +0.000 C 
ATOM     30 CL   UNL     1      -3.292  11.571  17.591  0.00  0.00    +0.000 Cl
ENDBRANCH  20  29
ENDBRANCH   1  19
TORSDOF 7
ENDMDL
MODEL 5
REMARK VINA RESULT:      -6.8      5.799      9.504
REMARK  Name = 
REMARK  10 active torsions:
REMARK  status: ('A' for Active; 'I' for Inactive)
REMARK    1  A    between atoms: C_1  and  C_2
REMARK    2  A    between atoms: C_2  and  C_3
REMARK    3  A    between atoms: C_2  and  C_4
REMARK    4  A    between atoms: C_2  and  N_5
REMARK    5  A    between atoms: C_6  and  C_8
REMARK    6  A    between atoms: C_8  and  C_9
REMARK    7  A    between atoms: C_8  and  N_18
REMARK    8  A    between atoms: C_12  and  N_13
REMARK    9  A    between atoms: N_18  and  C_23
REMARK   10  A    between atoms: C_19  and  C_21
REMARK                            x       y       z     vdW  Elec       q    Type
REMARK                         _______ _______ _______ _____ _____    ______ ____
ROOT
ATOM      1  C   UNL     1      -0.080  12.059  19.762  0.00  0.00    +0.000 C 
ENDROOT
BRANCH   1   2
ATOM      2  C   UNL     1      -1.118  12.215  20.895  0.00  0.00    +0.000 A 
ATOM      3  C   UNL     1      -1.065  11.502  22.099  0.00  0.00    +0.000 A 
ATOM      4  C   UNL     1      -1.997  11.694  23.122  0.00  0.00    +0.000 A 
ATOM      5  C   UNL     1      -3.029  12.612  22.953  0.00  0.00    +0.000 A 
ATOM      6  C   UNL     1      -3.144  13.317  21.752  0.00  0.00    +0.000 A 
ATOM      7  C   UNL     1      -2.198  13.112  20.734  0.00  0.00    +0.000 A 
BRANCH   5   8
ATOM      8  N   UNL     1      -3.982  12.833  24.047  0.00  0.00    +0.000 N 
ATOM      9  O   UNL     1      -4.259  14.006  24.341  0.00  0.00    +0.000 OA
ATOM     10  O   UNL     1      -4.463  11.839  24.601  0.00  0.00    +0.000 OA
ENDBRANCH   5   8
ENDBRANCH   1   2
BRANCH   1  12
ATOM     11  N   UNL     1       1.558  13.998  19.937  0.00  0.00    +0.000 N 
ATOM     12  C   UNL     1       0.491  13.430  19.267  0.00  0.00    +0.000 C 
ATOM     13  O   UNL     1       0.054  13.921  18.223  0.00  0.00    +0.000 OA
ATOM     14  H   UNL     1       1.555  13.877  20.937  0.00  0.00    +0.000 HD
BRANCH  11  16
ATOM     15  C   UNL     1       1.267  16.419  19.509  0.00  0.00    +0.000 C 
ATOM     16  C   UNL     1       2.244  15.235  19.484  0.00  0.00    +0.000 C 
ATOM     17  C   UNL     1       2.869  15.080  18.083  0.00  0.00    +0.000 C 
ATOM     18  C   UNL     1       3.401  15.544  20.459  0.00  0.00    +0.000 C 
ENDBRANCH  11  16
ENDBRANCH   1  12
BRANCH   1  19
ATOM     19  N   UNL     1      -0.315  10.890  18.832  0.00  0.00    +0.000 N 
ATOM     20  C   UNL     1      -1.390  10.605  17.983  0.00  0.00    +0.000 C 
ATOM     21  O   UNL     1      -1.423   9.561  17.311  0.00  0.00    +0.000 OA
BRANCH  19  22
ATOM     22  C   UNL     1       0.630   9.801  19.015  0.00  0.00    +0.000 A 
ATOM     23  C   UNL     1       1.445   9.377  17.955  0.00  0.00    +0.000 A 
ATOM     24  C   UNL     1       2.267   8.252  18.102  0.00  0.00    +0.000 A 
ATOM     25  C   UNL     1       2.296   7.560  19.312  0.00  0.00    +0.000 A 
ATOM     26 CL   UNL     1       3.267   6.148  19.471  0.00  0.00    +0.000 Cl
ATOM     27  C   UNL     1       1.526   7.994  20.386  0.00  0.00    +0.000 A 
ATOM     28  C   UNL     1       0.696   9.110  20.235  0.00  0.00    +0.000 A 
ENDBRANCH  19  22
BRANCH  20  29
ATOM     29  C   UNL     1      -2.504  11.599  17.734  0.00  0.00    +0.000 C 
ATOM     30 CL   UNL     1      -3.361  11.180  16.229  0.00  0.00    +0.000 Cl
ENDBRANCH  20  29
ENDBRANCH   1  19
TORSDOF 7
ENDMDL
MODEL 6
REMARK VINA RESULT:      -6.8      5.727      9.413
REMARK  Name = 
REMARK  10 active torsions:
REMARK  status: ('A' for Active; 'I' for Inactive)
REMARK    1  A    between atoms: C_1  and  C_2
REMARK    2  A    between atoms: C_2  and  C_3
REMARK    3  A    between atoms: C_2  and  C_4
REMARK    4  A    between atoms: C_2  and  N_5
REMARK    5  A    between atoms: C_6  and  C_8
REMARK    6  A    between atoms: C_8  and  C_9
REMARK    7  A    between atoms: C_8  and  N_18
REMARK    8  A    between atoms: C_12  and  N_13
REMARK    9  A    between atoms: N_18  and  C_23
REMARK   10  A    between atoms: C_19  and  C_21
REMARK                            x       y       z     vdW  Elec       q    Type
REMARK                         _______ _______ _______ _____ _____    ______ ____
ROOT
ATOM      1  C   UNL     1       0.080  12.023  19.784  0.00  0.00    +0.000 C 
ENDROOT
BRANCH   1   2
ATOM      2  C   UNL     1      -0.922  12.181  20.950  0.00  0.00    +0.000 A 
ATOM      3  C   UNL     1      -0.952  11.337  22.066  0.00  0.00    +0.000 A 
ATOM      4  C   UNL     1      -1.843  11.528  23.124  0.00  0.00    +0.000 A 
ATOM      5  C   UNL     1      -2.751  12.583  23.080  0.00  0.00    +0.000 A 
ATOM      6  C   UNL     1      -2.783  13.428  21.967  0.00  0.00    +0.000 A 
ATOM      7  C   UNL     1      -1.879  13.220  20.913  0.00  0.00    +0.000 A 
BRANCH   5   8
ATOM      8  N   UNL     1      -3.659  12.798  24.212  0.00  0.00    +0.000 N 
ATOM      9  O   UNL     1      -4.458  11.891  24.492  0.00  0.00    +0.000 OA
ATOM     10  O   UNL     1      -3.568  13.866  24.829  0.00  0.00    +0.000 OA
ENDBRANCH   5   8
ENDBRANCH   1   2
BRANCH   1  12
ATOM     11  N   UNL     1       1.763  13.927  19.912  0.00  0.00    +0.000 N 
ATOM     12  C   UNL     1       0.653  13.393  19.286  0.00  0.00    +0.000 C 
ATOM     13  O   UNL     1       0.175  13.912  18.274  0.00  0.00    +0.000 OA
ATOM     14  H   UNL     1       1.808  13.787  20.908  0.00  0.00    +0.000 HD
BRANCH  11  16
ATOM     15  C   UNL     1       2.998  14.954  18.026  0.00  0.00    +0.000 C 
ATOM     16  C   UNL     1       2.452  15.159  19.447  0.00  0.00    +0.000 C 
ATOM     17  C   UNL     1       3.581  15.594  20.402  0.00  0.00    +0.000 C 
ATOM     18  C   UNL     1       1.427  16.313  19.409  0.00  0.00    +0.000 C 
ENDBRANCH  11  16
ENDBRANCH   1  12
BRANCH   1  19
ATOM     19  N   UNL     1      -0.199  10.868  18.850  0.00  0.00    +0.000 N 
ATOM     20  C   UNL     1      -1.306  10.602  18.036  0.00  0.00    +0.000 C 
ATOM     21  O   UNL     1      -1.372   9.566  17.355  0.00  0.00    +0.000 OA
BRANCH  19  22
ATOM     22  C   UNL     1       0.741   9.768  18.987  0.00  0.00    +0.000 A 
ATOM     23  C   UNL     1       1.528   9.361  17.900  0.00  0.00    +0.000 A 
ATOM     24  C   UNL     1       2.343   8.226  18.004  0.00  0.00    +0.000 A 
ATOM     25  C   UNL     1       2.396   7.509  19.199  0.00  0.00    +0.000 A 
ATOM     26 CL   UNL     1       3.360   6.087  19.305  0.00  0.00    +0.000 Cl
ATOM     27  C   UNL     1       1.656   7.927  20.300  0.00  0.00    +0.000 A 
ATOM     28  C   UNL     1       0.832   9.051  20.191  0.00  0.00    +0.000 A 
ENDBRANCH  19  22
BRANCH  20  29
ATOM     29  C   UNL     1      -2.418  11.609  17.837  0.00  0.00    +0.000 C 
ATOM     30 CL   UNL     1      -3.380  11.170  16.402  0.00  0.00    +0.000 Cl
ENDBRANCH  20  29
ENDBRANCH   1  19
TORSDOF 7
ENDMDL
MODEL 7
REMARK VINA RESULT:      -6.8      5.662      9.271
REMARK  Name = 
REMARK  10 active torsions:
REMARK  status: ('A' for Active; 'I' for Inactive)
REMARK    1  A    between atoms: C_1  and  C_2
REMARK    2  A    between atoms: C_2  and  C_3
REMARK    3  A    between atoms: C_2  and  C_4
REMARK    4  A    between atoms: C_2  and  N_5
REMARK    5  A    between atoms: C_6  and  C_8
REMARK    6  A    between atoms: C_8  and  C_9
REMARK    7  A    between atoms: C_8  and  N_18
REMARK    8  A    between atoms: C_12  and  N_13
REMARK    9  A    between atoms: N_18  and  C_23
REMARK   10  A    between atoms: C_19  and  C_21
REMARK                            x       y       z     vdW  Elec       q    Type
REMARK                         _______ _______ _______ _____ _____    ______ ____
ROOT
ATOM      1  C   UNL     1       0.682  11.723  20.435  0.00  0.00    +0.000 C 
ENDROOT
BRANCH   1   2
ATOM      2  C   UNL     1      -0.433  12.059  21.451  0.00  0.00    +0.000 A 
ATOM      3  C   UNL     1      -1.054  13.311  21.535  0.00  0.00    +0.000 A 
ATOM      4  C   UNL     1      -2.086  13.574  22.438  0.00  0.00    +0.000 A 
ATOM      5  C   UNL     1      -2.520  12.573  23.302  0.00  0.00    +0.000 A 
ATOM      6  C   UNL     1      -1.902  11.319  23.280  0.00  0.00    +0.000 A 
ATOM      7  C   UNL     1      -0.865  11.073  22.365  0.00  0.00    +0.000 A 
BRANCH   5   8
ATOM      8  N   UNL     1      -3.629  12.846  24.222  0.00  0.00    +0.000 N 
ATOM      9  O   UNL     1      -3.685  13.973  24.740  0.00  0.00    +0.000 OA
ATOM     10  O   UNL     1      -4.450  11.943  24.418  0.00  0.00    +0.000 OA
ENDBRANCH   5   8
ENDBRANCH   1   2
BRANCH   1  12
ATOM     11  N   UNL     1       1.439  13.852  19.265  0.00  0.00    +0.000 N 
ATOM     12  C   UNL     1       1.695  12.899  20.233  0.00  0.00    +0.000 C 
ATOM     13  O   UNL     1       2.641  13.017  21.016  0.00  0.00    +0.000 OA
ATOM     14  H   UNL     1       1.019  13.506  18.418  0.00  0.00    +0.000 HD
BRANCH  11  16
ATOM     15  C   UNL     1       3.466  14.742  18.155  0.00  0.00    +0.000 C 
ATOM     16  C   UNL     1       2.275  15.064  19.069  0.00  0.00    +0.000 C 
ATOM     17  C   UNL     1       2.765  15.660  20.404  0.00  0.00    +0.000 C 
ATOM     18  C   UNL     1       1.418  16.149  18.381  0.00  0.00    +0.000 C 
ENDBRANCH  11  16
ENDBRANCH   1  12
BRANCH   1  19
ATOM     19  N   UNL     1       0.269  10.799  19.311  0.00  0.00    +0.000 N 
ATOM     20  C   UNL     1      -0.816  10.868  18.429  0.00  0.00    +0.000 C 
ATOM     21  O   UNL     1      -1.014   9.983  17.581  0.00  0.00    +0.000 OA
BRANCH  19  22
ATOM     22  C   UNL     1       0.999   9.543  19.291  0.00  0.00    +0.000 A 
ATOM     23  C   UNL     1       1.022   8.713  20.421  0.00  0.00    +0.000 A 
ATOM     24  C   UNL     1       1.824   7.563  20.437  0.00  0.00    +0.000 A 
ATOM     25  C   UNL     1       2.584   7.225  19.317  0.00  0.00    +0.000 A 
ATOM     26 CL   UNL     1       3.605   5.841  19.360  0.00  0.00    +0.000 Cl
ATOM     27  C   UNL     1       2.536   8.014  18.173  0.00  0.00    +0.000 A 
ATOM     28  C   UNL     1       1.747   9.169  18.164  0.00  0.00    +0.000 A 
ENDBRANCH  19  22
BRANCH  20  29
ATOM     29  C   UNL     1      -1.727  12.075  18.367  0.00  0.00    +0.000 C 
ATOM     30 CL   UNL     1      -3.262  11.632  17.578  0.00  0.00    +0.000 Cl
ENDBRANCH  20  29
ENDBRANCH   1  19
TORSDOF 7
ENDMDL
MODEL 8
REMARK VINA RESULT:      -6.8      5.125      8.653
REMARK  Name = 
REMARK  10 active torsions:
REMARK  status: ('A' for Active; 'I' for Inactive)
REMARK    1  A    between atoms: C_1  and  C_2
REMARK    2  A    between atoms: C_2  and  C_3
REMARK    3  A    between atoms: C_2  and  C_4
REMARK    4  A    between atoms: C_2  and  N_5
REMARK    5  A    between atoms: C_6  and  C_8
REMARK    6  A    between atoms: C_8  and  C_9
REMARK    7  A    between atoms: C_8  and  N_18
REMARK    8  A    between atoms: C_12  and  N_13
REMARK    9  A    between atoms: N_18  and  C_23
REMARK   10  A    between atoms: C_19  and  C_21
REMARK                            x       y       z     vdW  Elec       q    Type
REMARK                         _______ _______ _______ _____ _____    ______ ____
ROOT
ATOM      1  C   UNL     1       0.018  11.270  18.797  0.00  0.00    +0.000 C 
ENDROOT
BRANCH   1   2
ATOM      2  C   UNL     1       0.565  12.712  18.715  0.00  0.00    +0.000 A 
ATOM      3  C   UNL     1      -0.239  13.854  18.823  0.00  0.00    +0.000 A 
ATOM      4  C   UNL     1       0.290  15.146  18.784  0.00  0.00    +0.000 A 
ATOM      5  C   UNL     1       1.660  15.327  18.622  0.00  0.00    +0.000 A 
ATOM      6  C   UNL     1       2.496  14.217  18.471  0.00  0.00    +0.000 A 
ATOM      7  C   UNL     1       1.947  12.925  18.513  0.00  0.00    +0.000 A 
BRANCH   5   8
ATOM      8  N   UNL     1       2.212  16.686  18.619  0.00  0.00    +0.000 N 
ATOM      9  O   UNL     1       1.482  17.605  18.213  0.00  0.00    +0.000 OA
ATOM     10  O   UNL     1       3.367  16.840  19.033  0.00  0.00    +0.000 OA
ENDBRANCH   5   8
ENDBRANCH   1   2
BRANCH   1  12
ATOM     11  N   UNL     1      -1.741  10.624  17.076  0.00  0.00    +0.000 N 
ATOM     12  C   UNL     1      -1.470  11.156  18.322  0.00  0.00    +0.000 C 
ATOM     13  O   UNL     1      -2.376  11.435  19.111  0.00  0.00    +0.000 OA
ATOM     14  H   UNL     1      -1.083  10.861  16.351  0.00  0.00    +0.000 HD
BRANCH  11  16
ATOM     15  C   UNL     1      -3.064   9.828  15.140  0.00  0.00    +0.000 C 
ATOM     16  C   UNL     1      -3.117  10.369  16.576  0.00  0.00    +0.000 C 
ATOM     17  C   UNL     1      -4.008  11.625  16.648  0.00  0.00    +0.000 C 
ATOM     18  C   UNL     1      -3.777   9.298  17.471  0.00  0.00    +0.000 C 
ENDBRANCH  11  16
ENDBRANCH   1  12
BRANCH   1  19
ATOM     19  N   UNL     1       0.581  10.432  19.922  0.00  0.00    +0.000 N 
ATOM     20  C   UNL     1       0.626  10.672  21.301  0.00  0.00    +0.000 C 
ATOM     21  O   UNL     1       1.171   9.871  22.077  0.00  0.00    +0.000 OA
BRANCH  19  22
ATOM     22  C   UNL     1       1.381   9.308  19.468  0.00  0.00    +0.000 A 
ATOM     23  C   UNL     1       1.955   9.310  18.188  0.00  0.00    +0.000 A 
ATOM     24  C   UNL     1       2.624   8.175  17.711  0.00  0.00    +0.000 A 
ATOM     25  C   UNL     1       2.745   7.043  18.518  0.00  0.00    +0.000 A 
ATOM     26 CL   UNL     1       3.522   5.634  17.910  0.00  0.00    +0.000 Cl
ATOM     27  C   UNL     1       2.219   7.042  19.806  0.00  0.00    +0.000 A 
ATOM     28  C   UNL     1       1.540   8.170  20.276  0.00  0.00    +0.000 A 
ENDBRANCH  19  22
BRANCH  20  29
ATOM     29  C   UNL     1      -0.092  11.843  21.937  0.00  0.00    +0.000 C 
ATOM     30 CL   UNL     1      -1.334  11.247  23.067  0.00  0.00    +0.000 Cl
ENDBRANCH  20  29
ENDBRANCH   1  19
TORSDOF 7
ENDMDL
MODEL 9
REMARK VINA RESULT:      -6.7      5.682      9.313
REMARK  Name = 
REMARK  10 active torsions:
REMARK  status: ('A' for Active; 'I' for Inactive)
REMARK    1  A    between atoms: C_1  and  C_2
REMARK    2  A    between atoms: C_2  and  C_3
REMARK    3  A    between atoms: C_2  and  C_4
REMARK    4  A    between atoms: C_2  and  N_5
REMARK    5  A    between atoms: C_6  and  C_8
REMARK    6  A    between atoms: C_8  and  C_9
REMARK    7  A    between atoms: C_8  and  N_18
REMARK    8  A    between atoms: C_12  and  N_13
REMARK    9  A    between atoms: N_18  and  C_23
REMARK   10  A    between atoms: C_19  and  C_21
REMARK                            x       y       z     vdW  Elec       q    Type
REMARK                         _______ _______ _______ _____ _____    ______ ____
ROOT
ATOM      1  C   UNL     1       0.319  11.795  20.047  0.00  0.00    +0.000 C 
ENDROOT
BRANCH   1   2
ATOM      2  C   UNL     1      -0.747  11.994  21.147  0.00  0.00    +0.000 A 
ATOM      3  C   UNL     1      -0.848  11.186  22.285  0.00  0.00    +0.000 A 
ATOM      4  C   UNL     1      -1.799  11.415  23.283  0.00  0.00    +0.000 A 
ATOM      5  C   UNL     1      -2.694  12.473  23.154  0.00  0.00    +0.000 A 
ATOM      6  C   UNL     1      -2.655  13.283  22.015  0.00  0.00    +0.000 A 
ATOM      7  C   UNL     1      -1.692  13.037  21.022  0.00  0.00    +0.000 A 
BRANCH   5   8
ATOM      8  N   UNL     1      -3.665  12.729  24.223  0.00  0.00    +0.000 N 
ATOM      9  O   UNL     1      -3.579  13.805  24.835  0.00  0.00    +0.000 OA
ATOM     10  O   UNL     1      -4.521  11.864  24.443  0.00  0.00    +0.000 OA
ENDBRANCH   5   8
ENDBRANCH   1   2
BRANCH   1  12
ATOM     11  N   UNL     1       1.858  13.706  20.721  0.00  0.00    +0.000 N 
ATOM     12  C   UNL     1       1.112  13.106  19.724  0.00  0.00    +0.000 C 
ATOM     13  O   UNL     1       1.150  13.514  18.561  0.00  0.00    +0.000 OA
ATOM     14  H   UNL     1       1.455  13.672  21.643  0.00  0.00    +0.000 HD
BRANCH  11  16
ATOM     15  C   UNL     1       1.890  16.089  20.049  0.00  0.00    +0.000 C 
ATOM     16  C   UNL     1       2.733  14.884  20.491  0.00  0.00    +0.000 C 
ATOM     17  C   UNL     1       3.846  14.597  19.463  0.00  0.00    +0.000 C 
ATOM     18  C   UNL     1       3.433  15.247  21.819  0.00  0.00    +0.000 C 
ENDBRANCH  11  16
ENDBRANCH   1  12
BRANCH   1  19
ATOM     19  N   UNL     1      -0.031  10.772  18.991  0.00  0.00    +0.000 N 
ATOM     20  C   UNL     1      -1.111  10.717  18.101  0.00  0.00    +0.000 C 
ATOM     21  O   UNL     1      -1.252   9.764  17.317  0.00  0.00    +0.000 OA
BRANCH  19  22
ATOM     22  C   UNL     1       0.768   9.561  19.063  0.00  0.00    +0.000 A 
ATOM     23  C   UNL     1       0.848   8.829  20.257  0.00  0.00    +0.000 A 
ATOM     24  C   UNL     1       1.712   7.730  20.356  0.00  0.00    +0.000 A 
ATOM     25  C   UNL     1       2.480   7.344  19.258  0.00  0.00    +0.000 A 
ATOM     26 CL   UNL     1       3.578   6.026  19.400  0.00  0.00    +0.000 Cl
ATOM     27  C   UNL     1       2.379   8.033  18.054  0.00  0.00    +0.000 A 
ATOM     28  C   UNL     1       1.526   9.137  17.960  0.00  0.00    +0.000 A 
ENDBRANCH  19  22
BRANCH  20  29
ATOM     29  C   UNL     1      -2.087  11.863  17.949  0.00  0.00    +0.000 C 
ATOM     30 CL   UNL     1      -3.522  11.318  17.043  0.00  0.00    +0.000 Cl
ENDBRANCH  20  29
ENDBRANCH   1  19
TORSDOF 7
ENDMDL
