MODEL 1
REMARK VINA RESULT:      -6.5      0.000      0.000
REMARK  Name = 
REMARK  6 active torsions:
REMARK  status: ('A' for Active; 'I' for Inactive)
REMARK    1  A    between atoms: N_1  and  C_2
REMARK    2  A    between atoms: C_2  and  C_3
REMARK    3  A    between atoms: C_7  and  O_8
REMARK    4  A    between atoms: O_8  and  C_9
REMARK    5  A    between atoms: C_9  and  C_10
REMARK    6  A    between atoms: C_10  and  N_11
REMARK                            x       y       z     vdW  Elec       q    Type
REMARK                         _______ _______ _______ _____ _____    ______ ____
ROOT
ATOM      1  C   UNL     1       1.641   3.053  19.926  0.00  0.00    +0.000 A 
ATOM      2  C   UNL     1       1.919   1.994  19.052  0.00  0.00    +0.000 A 
ATOM      3  C   UNL     1       2.341   2.254  17.748  0.00  0.00    +0.000 A 
ATOM      4  C   UNL     1       2.501   3.569  17.311  0.00  0.00    +0.000 A 
ATOM      5  C   UNL     1       2.202   4.632  18.161  0.00  0.00    +0.000 A 
ATOM      6  C   UNL     1       1.765   4.370  19.456  0.00  0.00    +0.000 A 
ENDROOT
BRANCH   1   7
ATOM      7  C   UNL     1       1.256   2.806  21.362  0.00  0.00    +0.000 C 
BRANCH   7   8
ATOM      8  N   UNL     1       2.428   2.727  22.225  0.00  0.00    +0.000 NA
ATOM      9  H   UNL     1       2.180   3.052  23.158  0.00  0.00    +0.000 HD
ATOM     10  H   UNL     1       3.140   3.363  21.873  0.00  0.00    +0.000 HD
ENDBRANCH   7   8
ENDBRANCH   1   7
BRANCH   5  11
ATOM     11  O   UNL     1       2.422   5.880  17.641  0.00  0.00    +0.000 OA
BRANCH  11  12
ATOM     12  C   UNL     1       3.482   6.638  18.234  0.00  0.00    +0.000 C 
BRANCH  12  13
ATOM     13  C   UNL     1       4.808   5.858  18.213  0.00  0.00    +0.000 C 
BRANCH  13  14
ATOM     14  N   UNL     1       5.824   6.446  17.318  0.00  0.00    +0.000 NA
ATOM     15  C   UNL     1       5.918   5.742  16.020  0.00  0.00    +0.000 C 
ATOM     16  C   UNL     1       6.510   4.329  16.135  0.00  0.00    +0.000 C 
ATOM     17  O   UNL     1       7.805   4.355  16.751  0.00  0.00    +0.000 OA
ATOM     18  C   UNL     1       7.757   4.990  18.036  0.00  0.00    +0.000 C 
ATOM     19  C   UNL     1       7.166   6.407  17.943  0.00  0.00    +0.000 C 
ENDBRANCH  13  14
ENDBRANCH  12  13
ENDBRANCH  11  12
ENDBRANCH   5  11
TORSDOF 6
ENDMDL
MODEL 2
REMARK VINA RESULT:      -6.4      1.633      2.548
REMARK  Name = 
REMARK  6 active torsions:
REMARK  status: ('A' for Active; 'I' for Inactive)
REMARK    1  A    between atoms: N_1  and  C_2
REMARK    2  A    between atoms: C_2  and  C_3
REMARK    3  A    between atoms: C_7  and  O_8
REMARK    4  A    between atoms: O_8  and  C_9
REMARK    5  A    between atoms: C_9  and  C_10
REMARK    6  A    between atoms: C_10  and  N_11
REMARK                            x       y       z     vdW  Elec       q    Type
REMARK                         _______ _______ _______ _____ _____    ______ ____
ROOT
ATOM      1  C   UNL     1       1.333   3.790  19.178  0.00  0.00    +0.000 A 
ATOM      2  C   UNL     1       1.290   4.263  20.497  0.00  0.00    +0.000 A 
ATOM      3  C   UNL     1       1.760   5.541  20.799  0.00  0.00    +0.000 A 
ATOM      4  C   UNL     1       2.261   6.361  19.788  0.00  0.00    +0.000 A 
ATOM      5  C   UNL     1       2.334   5.895  18.477  0.00  0.00    +0.000 A 
ATOM      6  C   UNL     1       1.881   4.613  18.182  0.00  0.00    +0.000 A 
ENDROOT
BRANCH   1   7
ATOM      7  C   UNL     1       0.766   2.444  18.807  0.00  0.00    +0.000 C 
BRANCH   7   8
ATOM      8  N   UNL     1       1.663   1.710  17.924  0.00  0.00    +0.000 NA
ATOM      9  H   UNL     1       2.536   2.226  17.827  0.00  0.00    +0.000 HD
ATOM     10  H   UNL     1       1.247   1.663  16.996  0.00  0.00    +0.000 HD
ENDBRANCH   7   8
ENDBRANCH   1   7
BRANCH   5  11
ATOM     11  O   UNL     1       2.815   6.791  17.561  0.00  0.00    +0.000 OA
BRANCH  11  12
ATOM     12  C   UNL     1       4.215   7.084  17.632  0.00  0.00    +0.000 C 
BRANCH  12  13
ATOM     13  C   UNL     1       4.987   6.417  16.481  0.00  0.00    +0.000 C 
BRANCH  13  14
ATOM     14  N   UNL     1       5.077   4.948  16.606  0.00  0.00    +0.000 NA
ATOM     15  C   UNL     1       5.798   4.522  17.826  0.00  0.00    +0.000 C 
ATOM     16  C   UNL     1       7.301   4.838  17.787  0.00  0.00    +0.000 C 
ATOM     17  O   UNL     1       7.928   4.248  16.640  0.00  0.00    +0.000 OA
ATOM     18  C   UNL     1       7.291   4.669  15.425  0.00  0.00    +0.000 C 
ATOM     19  C   UNL     1       5.783   4.362  15.444  0.00  0.00    +0.000 C 
ENDBRANCH  13  14
ENDBRANCH  12  13
ENDBRANCH  11  12
ENDBRANCH   5  11
TORSDOF 6
ENDMDL
MODEL 3
REMARK VINA RESULT:      -6.1      2.027      5.938
REMARK  Name = 
REMARK  6 active torsions:
REMARK  status: ('A' for Active; 'I' for Inactive)
REMARK    1  A    between atoms: N_1  and  C_2
REMARK    2  A    between atoms: C_2  and  C_3
REMARK    3  A    between atoms: C_7  and  O_8
REMARK    4  A    between atoms: O_8  and  C_9
REMARK    5  A    between atoms: C_9  and  C_10
REMARK    6  A    between atoms: C_10  and  N_11
REMARK                            x       y       z     vdW  Elec       q    Type
REMARK                         _______ _______ _______ _____ _____    ______ ____
ROOT
ATOM      1  C   UNL     1       6.523   4.927  15.503  0.00  0.00    +0.000 A 
ATOM      2  C   UNL     1       7.458   4.589  16.490  0.00  0.00    +0.000 A 
ATOM      3  C   UNL     1       7.122   4.693  17.840  0.00  0.00    +0.000 A 
ATOM      4  C   UNL     1       5.848   5.120  18.213  0.00  0.00    +0.000 A 
ATOM      5  C   UNL     1       4.916   5.485  17.243  0.00  0.00    +0.000 A 
ATOM      6  C   UNL     1       5.260   5.396  15.899  0.00  0.00    +0.000 A 
ENDROOT
BRANCH   1   7
ATOM      7  C   UNL     1       6.830   4.754  14.037  0.00  0.00    +0.000 C 
BRANCH   7   8
ATOM      8  N   UNL     1       6.263   3.518  13.513  0.00  0.00    +0.000 NA
ATOM      9  H   UNL     1       6.825   2.731  13.831  0.00  0.00    +0.000 HD
ATOM     10  H   UNL     1       6.327   3.531  12.496  0.00  0.00    +0.000 HD
ENDBRANCH   7   8
ENDBRANCH   1   7
BRANCH   5  11
ATOM     11  O   UNL     1       3.689   5.861  17.720  0.00  0.00    +0.000 OA
BRANCH  11  12
ATOM     12  C   UNL     1       3.556   5.940  19.144  0.00  0.00    +0.000 C 
BRANCH  12  13
ATOM     13  C   UNL     1       2.233   5.315  19.618  0.00  0.00    +0.000 C 
BRANCH  13  14
ATOM     14  N   UNL     1       2.417   4.193  20.561  0.00  0.00    +0.000 NA
ATOM     15  C   UNL     1       3.437   3.223  20.104  0.00  0.00    +0.000 C 
ATOM     16  C   UNL     1       2.999   2.415  18.872  0.00  0.00    +0.000 C 
ATOM     17  O   UNL     1       1.767   1.722  19.115  0.00  0.00    +0.000 OA
ATOM     18  C   UNL     1       0.732   2.629  19.519  0.00  0.00    +0.000 C 
ATOM     19  C   UNL     1       1.150   3.450  20.751  0.00  0.00    +0.000 C 
ENDBRANCH  13  14
ENDBRANCH  12  13
ENDBRANCH  11  12
ENDBRANCH   5  11
TORSDOF 6
ENDMDL
MODEL 4
REMARK VINA RESULT:      -6.1      2.052      6.003
REMARK  Name = 
REMARK  6 active torsions:
REMARK  status: ('A' for Active; 'I' for Inactive)
REMARK    1  A    between atoms: N_1  and  C_2
REMARK    2  A    between atoms: C_2  and  C_3
REMARK    3  A    between atoms: C_7  and  O_8
REMARK    4  A    between atoms: O_8  and  C_9
REMARK    5  A    between atoms: C_9  and  C_10
REMARK    6  A    between atoms: C_10  and  N_11
REMARK                            x       y       z     vdW  Elec       q    Type
REMARK                         _______ _______ _______ _____ _____    ______ ____
ROOT
ATOM      1  C   UNL     1       6.614   5.135  15.670  0.00  0.00    +0.000 A 
ATOM      2  C   UNL     1       7.397   4.674  16.737  0.00  0.00    +0.000 A 
ATOM      3  C   UNL     1       7.048   4.990  18.050  0.00  0.00    +0.000 A 
ATOM      4  C   UNL     1       5.911   5.754  18.309  0.00  0.00    +0.000 A 
ATOM      5  C   UNL     1       5.138   6.242  17.257  0.00  0.00    +0.000 A 
ATOM      6  C   UNL     1       5.498   5.940  15.948  0.00  0.00    +0.000 A 
ENDROOT
BRANCH   1   7
ATOM      7  C   UNL     1       6.921   4.750  14.246  0.00  0.00    +0.000 C 
BRANCH   7   8
ATOM      8  N   UNL     1       7.986   5.571  13.686  0.00  0.00    +0.000 NA
ATOM      9  H   UNL     1       8.028   5.426  12.679  0.00  0.00    +0.000 HD
ATOM     10  H   UNL     1       8.878   5.257  14.063  0.00  0.00    +0.000 HD
ENDBRANCH   7   8
ENDBRANCH   1   7
BRANCH   5  11
ATOM     11  O   UNL     1       4.029   6.956  17.626  0.00  0.00    +0.000 OA
BRANCH  11  12
ATOM     12  C   UNL     1       3.169   6.342  18.592  0.00  0.00    +0.000 C 
BRANCH  12  13
ATOM     13  C   UNL     1       2.512   5.070  18.029  0.00  0.00    +0.000 C 
BRANCH  13  14
ATOM     14  N   UNL     1       3.012   3.826  18.647  0.00  0.00    +0.000 NA
ATOM     15  C   UNL     1       2.216   2.638  18.266  0.00  0.00    +0.000 C 
ATOM     16  C   UNL     1       0.800   2.635  18.864  0.00  0.00    +0.000 C 
ATOM     17  O   UNL     1       0.839   2.736  20.294  0.00  0.00    +0.000 OA
ATOM     18  C   UNL     1       1.564   3.900  20.714  0.00  0.00    +0.000 C 
ATOM     19  C   UNL     1       2.985   3.923  20.125  0.00  0.00    +0.000 C 
ENDBRANCH  13  14
ENDBRANCH  12  13
ENDBRANCH  11  12
ENDBRANCH   5  11
TORSDOF 6
ENDMDL
MODEL 5
REMARK VINA RESULT:      -6.0      1.460      1.847
REMARK  Name = 
REMARK  6 active torsions:
REMARK  status: ('A' for Active; 'I' for Inactive)
REMARK    1  A    between atoms: N_1  and  C_2
REMARK    2  A    between atoms: C_2  and  C_3
REMARK    3  A    between atoms: C_7  and  O_8
REMARK    4  A    between atoms: O_8  and  C_9
REMARK    5  A    between atoms: C_9  and  C_10
REMARK    6  A    between atoms: C_10  and  N_11
REMARK                            x       y       z     vdW  Elec       q    Type
REMARK                         _______ _______ _______ _____ _____    ______ ____
ROOT
ATOM      1  C   UNL     1       1.513   3.462  20.262  0.00  0.00    +0.000 A 
ATOM      2  C   UNL     1       0.837   3.142  19.077  0.00  0.00    +0.000 A 
ATOM      3  C   UNL     1       1.160   3.793  17.887  0.00  0.00    +0.000 A 
ATOM      4  C   UNL     1       2.167   4.758  17.867  0.00  0.00    +0.000 A 
ATOM      5  C   UNL     1       2.830   5.106  19.043  0.00  0.00    +0.000 A 
ATOM      6  C   UNL     1       2.493   4.467  20.231  0.00  0.00    +0.000 A 
ENDROOT
BRANCH   1   7
ATOM      7  C   UNL     1       1.239   2.725  21.548  0.00  0.00    +0.000 C 
BRANCH   7   8
ATOM      8  N   UNL     1       2.475   2.355  22.226  0.00  0.00    +0.000 NA
ATOM      9  H   UNL     1       2.868   1.528  21.780  0.00  0.00    +0.000 HD
ATOM     10  H   UNL     1       2.258   2.094  23.187  0.00  0.00    +0.000 HD
ENDBRANCH   7   8
ENDBRANCH   1   7
BRANCH   5  11
ATOM     11  O   UNL     1       3.819   6.042  18.904  0.00  0.00    +0.000 OA
BRANCH  11  12
ATOM     12  C   UNL     1       5.132   5.646  19.317  0.00  0.00    +0.000 C 
BRANCH  12  13
ATOM     13  C   UNL     1       5.778   4.694  18.295  0.00  0.00    +0.000 C 
BRANCH  13  14
ATOM     14  N   UNL     1       6.853   5.324  17.502  0.00  0.00    +0.000 NA
ATOM     15  C   UNL     1       6.443   6.616  16.908  0.00  0.00    +0.000 C 
ATOM     16  C   UNL     1       5.395   6.468  15.793  0.00  0.00    +0.000 C 
ATOM     17  O   UNL     1       5.861   5.598  14.752  0.00  0.00    +0.000 OA
ATOM     18  C   UNL     1       6.230   4.314  15.274  0.00  0.00    +0.000 C 
ATOM     19  C   UNL     1       7.278   4.440  16.393  0.00  0.00    +0.000 C 
ENDBRANCH  13  14
ENDBRANCH  12  13
ENDBRANCH  11  12
ENDBRANCH   5  11
TORSDOF 6
ENDMDL
MODEL 6
REMARK VINA RESULT:      -6.0      2.083      5.631
REMARK  Name = 
REMARK  6 active torsions:
REMARK  status: ('A' for Active; 'I' for Inactive)
REMARK    1  A    between atoms: N_1  and  C_2
REMARK    2  A    between atoms: C_2  and  C_3
REMARK    3  A    between atoms: C_7  and  O_8
REMARK    4  A    between atoms: O_8  and  C_9
REMARK    5  A    between atoms: C_9  and  C_10
REMARK    6  A    between atoms: C_10  and  N_11
REMARK                            x       y       z     vdW  Elec       q    Type
REMARK                         _______ _______ _______ _____ _____    ______ ____
ROOT
ATOM      1  C   UNL     1       6.954   5.440  17.828  0.00  0.00    +0.000 A 
ATOM      2  C   UNL     1       7.472   4.854  16.666  0.00  0.00    +0.000 A 
ATOM      3  C   UNL     1       6.615   4.282  15.726  0.00  0.00    +0.000 A 
ATOM      4  C   UNL     1       5.235   4.304  15.931  0.00  0.00    +0.000 A 
ATOM      5  C   UNL     1       4.707   4.860  17.095  0.00  0.00    +0.000 A 
ATOM      6  C   UNL     1       5.566   5.414  18.038  0.00  0.00    +0.000 A 
ENDROOT
BRANCH   1   7
ATOM      7  C   UNL     1       7.847   6.131  18.826  0.00  0.00    +0.000 C 
BRANCH   7   8
ATOM      8  N   UNL     1       7.794   5.485  20.131  0.00  0.00    +0.000 NA
ATOM      9  H   UNL     1       7.333   4.581  20.039  0.00  0.00    +0.000 HD
ATOM     10  H   UNL     1       7.215   6.046  20.753  0.00  0.00    +0.000 HD
ENDBRANCH   7   8
ENDBRANCH   1   7
BRANCH   5  11
ATOM     11  O   UNL     1       3.340   4.854  17.180  0.00  0.00    +0.000 OA
BRANCH  11  12
ATOM     12  C   UNL     1       2.700   3.580  17.047  0.00  0.00    +0.000 C 
BRANCH  12  13
ATOM     13  C   UNL     1       2.205   3.056  18.406  0.00  0.00    +0.000 C 
BRANCH  13  14
ATOM     14  N   UNL     1       2.308   4.051  19.492  0.00  0.00    +0.000 NA
ATOM     15  C   UNL     1       3.457   3.800  20.391  0.00  0.00    +0.000 C 
ATOM     16  C   UNL     1       3.291   2.538  21.253  0.00  0.00    +0.000 C 
ATOM     17  O   UNL     1       2.088   2.594  22.032  0.00  0.00    +0.000 OA
ATOM     18  C   UNL     1       0.938   2.792  21.199  0.00  0.00    +0.000 C 
ATOM     19  C   UNL     1       1.083   4.050  20.326  0.00  0.00    +0.000 C 
ENDBRANCH  13  14
ENDBRANCH  12  13
ENDBRANCH  11  12
ENDBRANCH   5  11
TORSDOF 6
ENDMDL
MODEL 7
REMARK VINA RESULT:      -5.9      3.305      6.706
REMARK  Name = 
REMARK  6 active torsions:
REMARK  status: ('A' for Active; 'I' for Inactive)
REMARK    1  A    between atoms: N_1  and  C_2
REMARK    2  A    between atoms: C_2  and  C_3
REMARK    3  A    between atoms: C_7  and  O_8
REMARK    4  A    between atoms: O_8  and  C_9
REMARK    5  A    between atoms: C_9  and  C_10
REMARK    6  A    between atoms: C_10  and  N_11
REMARK                            x       y       z     vdW  Elec       q    Type
REMARK                         _______ _______ _______ _____ _____    ______ ____
ROOT
ATOM      1  C   UNL     1       6.021   3.504  12.490  0.00  0.00    +0.000 A 
ATOM      2  C   UNL     1       7.104   4.249  12.004  0.00  0.00    +0.000 A 
ATOM      3  C   UNL     1       7.795   5.114  12.852  0.00  0.00    +0.000 A 
ATOM      4  C   UNL     1       7.421   5.232  14.191  0.00  0.00    +0.000 A 
ATOM      5  C   UNL     1       6.330   4.517  14.681  0.00  0.00    +0.000 A 
ATOM      6  C   UNL     1       5.632   3.668  13.829  0.00  0.00    +0.000 A 
ENDROOT
BRANCH   1   7
ATOM      7  C   UNL     1       5.301   2.505  11.620  0.00  0.00    +0.000 C 
BRANCH   7   8
ATOM      8  N   UNL     1       6.117   1.324  11.371  0.00  0.00    +0.000 NA
ATOM      9  H   UNL     1       6.247   1.211  10.368  0.00  0.00    +0.000 HD
ATOM     10  H   UNL     1       5.613   0.500  11.695  0.00  0.00    +0.000 HD
ENDBRANCH   7   8
ENDBRANCH   1   7
BRANCH   5  11
ATOM     11  O   UNL     1       6.069   4.686  16.014  0.00  0.00    +0.000 OA
BRANCH  11  12
ATOM     12  C   UNL     1       4.941   5.504  16.343  0.00  0.00    +0.000 C 
BRANCH  12  13
ATOM     13  C   UNL     1       4.170   4.937  17.548  0.00  0.00    +0.000 C 
BRANCH  13  14
ATOM     14  N   UNL     1       3.257   3.832  17.194  0.00  0.00    +0.000 NA
ATOM     15  C   UNL     1       1.874   4.059  17.667  0.00  0.00    +0.000 C 
ATOM     16  C   UNL     1       1.734   3.988  19.196  0.00  0.00    +0.000 C 
ATOM     17  O   UNL     1       2.204   2.733  19.705  0.00  0.00    +0.000 OA
ATOM     18  C   UNL     1       3.561   2.487  19.309  0.00  0.00    +0.000 C 
ATOM     19  C   UNL     1       3.723   2.554  17.781  0.00  0.00    +0.000 C 
ENDBRANCH  13  14
ENDBRANCH  12  13
ENDBRANCH  11  12
ENDBRANCH   5  11
TORSDOF 6
ENDMDL
MODEL 8
REMARK VINA RESULT:      -5.9      1.809      2.372
REMARK  Name = 
REMARK  6 active torsions:
REMARK  status: ('A' for Active; 'I' for Inactive)
REMARK    1  A    between atoms: N_1  and  C_2
REMARK    2  A    between atoms: C_2  and  C_3
REMARK    3  A    between atoms: C_7  and  O_8
REMARK    4  A    between atoms: O_8  and  C_9
REMARK    5  A    between atoms: C_9  and  C_10
REMARK    6  A    between atoms: C_10  and  N_11
REMARK                            x       y       z     vdW  Elec       q    Type
REMARK                         _______ _______ _______ _____ _____    ______ ____
ROOT
ATOM      1  C   UNL     1       1.692   4.603  19.776  0.00  0.00    +0.000 A 
ATOM      2  C   UNL     1       1.139   3.320  19.884  0.00  0.00    +0.000 A 
ATOM      3  C   UNL     1       1.428   2.349  18.925  0.00  0.00    +0.000 A 
ATOM      4  C   UNL     1       2.278   2.647  17.860  0.00  0.00    +0.000 A 
ATOM      5  C   UNL     1       2.814   3.926  17.725  0.00  0.00    +0.000 A 
ATOM      6  C   UNL     1       2.511   4.897  18.674  0.00  0.00    +0.000 A 
ENDROOT
BRANCH   1   7
ATOM      7  C   UNL     1       1.460   5.651  20.834  0.00  0.00    +0.000 C 
BRANCH   7   8
ATOM      8  N   UNL     1       2.204   6.872  20.551  0.00  0.00    +0.000 NA
ATOM      9  H   UNL     1       1.589   7.540  20.089  0.00  0.00    +0.000 HD
ATOM     10  H   UNL     1       2.951   6.659  19.893  0.00  0.00    +0.000 HD
ENDBRANCH   7   8
ENDBRANCH   1   7
BRANCH   5  11
ATOM     11  O   UNL     1       3.658   4.100  16.661  0.00  0.00    +0.000 OA
BRANCH  11  12
ATOM     12  C   UNL     1       4.953   3.497  16.771  0.00  0.00    +0.000 C 
BRANCH  12  13
ATOM     13  C   UNL     1       6.052   4.558  16.948  0.00  0.00    +0.000 C 
BRANCH  13  14
ATOM     14  N   UNL     1       5.674   5.649  17.869  0.00  0.00    +0.000 NA
ATOM     15  C   UNL     1       6.053   6.985  17.359  0.00  0.00    +0.000 C 
ATOM     16  C   UNL     1       7.572   7.221  17.339  0.00  0.00    +0.000 C 
ATOM     17  O   UNL     1       8.145   7.035  18.641  0.00  0.00    +0.000 OA
ATOM     18  C   UNL     1       7.842   5.733  19.160  0.00  0.00    +0.000 C 
ATOM     19  C   UNL     1       6.326   5.475  19.188  0.00  0.00    +0.000 C 
ENDBRANCH  13  14
ENDBRANCH  12  13
ENDBRANCH  11  12
ENDBRANCH   5  11
TORSDOF 6
ENDMDL
MODEL 9
REMARK VINA RESULT:      -5.9      2.010      5.396
REMARK  Name = 
REMARK  6 active torsions:
REMARK  status: ('A' for Active; 'I' for Inactive)
REMARK    1  A    between atoms: N_1  and  C_2
REMARK    2  A    between atoms: C_2  and  C_3
REMARK    3  A    between atoms: C_7  and  O_8
REMARK    4  A    between atoms: O_8  and  C_9
REMARK    5  A    between atoms: C_9  and  C_10
REMARK    6  A    between atoms: C_10  and  N_11
REMARK                            x       y       z     vdW  Elec       q    Type
REMARK                         _______ _______ _______ _____ _____    ______ ____
ROOT
ATOM      1  C   UNL     1       7.104   5.722  17.978  0.00  0.00    +0.000 A 
ATOM      2  C   UNL     1       7.365   4.993  16.810  0.00  0.00    +0.000 A 
ATOM      3  C   UNL     1       6.396   4.899  15.811  0.00  0.00    +0.000 A 
ATOM      4  C   UNL     1       5.168   5.543  15.963  0.00  0.00    +0.000 A 
ATOM      5  C   UNL     1       4.885   6.249  17.130  0.00  0.00    +0.000 A 
ATOM      6  C   UNL     1       5.846   6.326  18.132  0.00  0.00    +0.000 A 
ENDROOT
BRANCH   1   7
ATOM      7  C   UNL     1       8.155   5.904  19.043  0.00  0.00    +0.000 C 
BRANCH   7   8
ATOM      8  N   UNL     1       7.715   5.372  20.327  0.00  0.00    +0.000 NA
ATOM      9  H   UNL     1       7.593   6.141  20.984  0.00  0.00    +0.000 HD
ATOM     10  H   UNL     1       8.449   4.777  20.706  0.00  0.00    +0.000 HD
ENDBRANCH   7   8
ENDBRANCH   1   7
BRANCH   5  11
ATOM     11  O   UNL     1       3.662   6.865  17.161  0.00  0.00    +0.000 OA
BRANCH  11  12
ATOM     12  C   UNL     1       2.796   6.506  18.244  0.00  0.00    +0.000 C 
BRANCH  12  13
ATOM     13  C   UNL     1       2.124   5.144  17.995  0.00  0.00    +0.000 C 
BRANCH  13  14
ATOM     14  N   UNL     1       2.845   4.011  18.609  0.00  0.00    +0.000 NA
ATOM     15  C   UNL     1       2.156   2.718  18.404  0.00  0.00    +0.000 C 
ATOM     16  C   UNL     1       0.839   2.598  19.186  0.00  0.00    +0.000 C 
ATOM     17  O   UNL     1       1.046   2.803  20.590  0.00  0.00    +0.000 OA
ATOM     18  C   UNL     1       1.673   4.069  20.844  0.00  0.00    +0.000 C 
ATOM     19  C   UNL     1       2.994   4.209  20.069  0.00  0.00    +0.000 C 
ENDBRANCH  13  14
ENDBRANCH  12  13
ENDBRANCH  11  12
ENDBRANCH   5  11
TORSDOF 6
ENDMDL
