MODEL 1
REMARK VINA RESULT:      -7.8      0.000      0.000
REMARK  Name = 
REMARK  16 active torsions:
REMARK  status: ('A' for Active; 'I' for Inactive)
REMARK    1  A    between atoms: C_1  and  C_2
REMARK    2  A    between atoms: C_2  and  O_3
REMARK    3  A    between atoms: O_3  and  C_4
REMARK    4  A    between atoms: C_4  and  C_5
REMARK    5  A    between atoms: C_6  and  C_7
REMARK    6  A    between atoms: C_10  and  C_11
REMARK    7  A    between atoms: C_13  and  C_14
REMARK    8  A    between atoms: C_17  and  N_18
REMARK    9  A    between atoms: N_18  and  C_19
REMARK   10  A    between atoms: C_19  and  C_20
REMARK   11  A    between atoms: C_19  and  C_21
REMARK   12  A    between atoms: C_24  and  C_25
REMARK   13  A    between atoms: C_28  and  N_29
REMARK   14  A    between atoms: N_29  and  C_30
REMARK   15  A    between atoms: C_30  and  C_31
REMARK   16  A    between atoms: C_30  and  C_32
REMARK                            x       y       z     vdW  Elec       q    Type
REMARK                         _______ _______ _______ _____ _____    ______ ____
ROOT
ATOM      1  C   UNL     1       1.047   9.280  19.178  0.00  0.00    +0.000 A 
ATOM      2  N   UNL     1       1.092  10.133  20.180  0.00  0.00    +0.000 NA
ATOM      3  C   UNL     1      -0.094  10.840  20.136  0.00  0.00    +0.000 A 
ATOM      4  C   UNL     1      -0.843  10.482  19.021  0.00  0.00    +0.000 A 
ATOM      5  N   UNL     1      -0.089   9.487  18.442  0.00  0.00    +0.000 N 
ATOM      6  H   UNL     1      -0.329   8.997  17.594  0.00  0.00    +0.000 HD
ENDROOT
BRANCH   1  10
ATOM      7  C   UNL     1       3.939   6.274  18.169  0.00  0.00    +0.000 A 
ATOM      8  C   UNL     1       3.163   6.152  19.332  0.00  0.00    +0.000 A 
ATOM      9  C   UNL     1       2.221   7.127  19.658  0.00  0.00    +0.000 A 
ATOM     10  C   UNL     1       2.035   8.252  18.843  0.00  0.00    +0.000 A 
ATOM     11  C   UNL     1       2.831   8.387  17.699  0.00  0.00    +0.000 A 
ATOM     12  C   UNL     1       3.774   7.407  17.365  0.00  0.00    +0.000 A 
BRANCH   7  14
ATOM     13  C   UNL     1       5.431   5.093  16.590  0.00  0.00    +0.000 C 
ATOM     14  C   UNL     1       4.965   5.281  17.834  0.00  0.00    +0.000 C 
BRANCH  13  15
ATOM     15  C   UNL     1       6.417   4.040  16.224  0.00  0.00    +0.000 C 
BRANCH  15  16
ATOM     16  O   UNL     1       7.386   4.632  15.369  0.00  0.00    +0.000 OA
BRANCH  16  18
ATOM     17  C   UNL     1       6.337   3.784  13.387  0.00  0.00    +0.000 C 
ATOM     18  C   UNL     1       6.798   5.022  14.130  0.00  0.00    +0.000 C 
ENDBRANCH  16  18
ENDBRANCH  15  16
ENDBRANCH  13  15
ENDBRANCH   7  14
ENDBRANCH   1  10
BRANCH   3  19
ATOM     19  C   UNL     1      -0.455  11.798  21.173  0.00  0.00    +0.000 A 
ATOM     20  C   UNL     1       0.013  13.111  21.113  0.00  0.00    +0.000 A 
ATOM     21  C   UNL     1      -0.293  14.021  22.134  0.00  0.00    +0.000 A 
ATOM     22  C   UNL     1      -1.096  13.660  23.228  0.00  0.00    +0.000 A 
ATOM     23  C   UNL     1      -1.577  12.351  23.268  0.00  0.00    +0.000 A 
ATOM     24  C   UNL     1      -1.238  11.426  22.273  0.00  0.00    +0.000 A 
BRANCH  22  25
ATOM     25  N   UNL     1      -1.273  14.566  24.270  0.00  0.00    +0.000 N 
ATOM     26  H   UNL     1      -0.402  14.836  24.716  0.00  0.00    +0.000 HD
BRANCH  25  27
ATOM     27  C   UNL     1      -2.243  15.659  24.199  0.00  0.00    +0.000 C 
ATOM     28  C   UNL     1      -3.621  15.109  24.569  0.00  0.00    +0.000 C 
ATOM     29  C   UNL     1      -1.835  16.761  25.174  0.00  0.00    +0.000 C 
ENDBRANCH  25  27
ENDBRANCH  22  25
ENDBRANCH   3  19
BRANCH   4  30
ATOM     30  C   UNL     1      -2.116  10.929  18.457  0.00  0.00    +0.000 A 
ATOM     31  C   UNL     1      -2.879  11.908  19.099  0.00  0.00    +0.000 A 
ATOM     32  C   UNL     1      -4.153  12.242  18.633  0.00  0.00    +0.000 A 
ATOM     33  C   UNL     1      -4.674  11.675  17.467  0.00  0.00    +0.000 A 
ATOM     34  C   UNL     1      -3.884  10.737  16.794  0.00  0.00    +0.000 A 
ATOM     35  C   UNL     1      -2.627  10.361  17.284  0.00  0.00    +0.000 A 
BRANCH  33  36
ATOM     36  N   UNL     1      -5.988  11.969  17.103  0.00  0.00    +0.000 N 
ATOM     37  H   UNL     1      -6.194  11.705  16.142  0.00  0.00    +0.000 HD
BRANCH  36  38
ATOM     38  C   UNL     1      -7.099  11.690  18.011  0.00  0.00    +0.000 C 
ATOM     39  C   UNL     1      -6.757  10.431  18.804  0.00  0.00    +0.000 C 
ATOM     40  C   UNL     1      -7.303  12.872  18.957  0.00  0.00    +0.000 C 
ENDBRANCH  36  38
ENDBRANCH  33  36
ENDBRANCH   4  30
TORSDOF 11
ENDMDL
MODEL 2
REMARK VINA RESULT:      -7.7      2.998      4.587
REMARK  Name = 
REMARK  16 active torsions:
REMARK  status: ('A' for Active; 'I' for Inactive)
REMARK    1  A    between atoms: C_1  and  C_2
REMARK    2  A    between atoms: C_2  and  O_3
REMARK    3  A    between atoms: O_3  and  C_4
REMARK    4  A    between atoms: C_4  and  C_5
REMARK    5  A    between atoms: C_6  and  C_7
REMARK    6  A    between atoms: C_10  and  C_11
REMARK    7  A    between atoms: C_13  and  C_14
REMARK    8  A    between atoms: C_17  and  N_18
REMARK    9  A    between atoms: N_18  and  C_19
REMARK   10  A    between atoms: C_19  and  C_20
REMARK   11  A    between atoms: C_19  and  C_21
REMARK   12  A    between atoms: C_24  and  C_25
REMARK   13  A    between atoms: C_28  and  N_29
REMARK   14  A    between atoms: N_29  and  C_30
REMARK   15  A    between atoms: C_30  and  C_31
REMARK   16  A    between atoms: C_30  and  C_32
REMARK                            x       y       z     vdW  Elec       q    Type
REMARK                         _______ _______ _______ _____ _____    ______ ____
ROOT
ATOM      1  C   UNL     1       0.739  10.402  19.770  0.00  0.00    +0.000 A 
ATOM      2  N   UNL     1       1.041  11.584  19.276  0.00  0.00    +0.000 NA
ATOM      3  C   UNL     1       0.220  12.490  19.918  0.00  0.00    +0.000 A 
ATOM      4  C   UNL     1      -0.677  11.839  20.756  0.00  0.00    +0.000 A 
ATOM      5  N   UNL     1      -0.314  10.517  20.638  0.00  0.00    +0.000 N 
ATOM      6  H   UNL     1      -0.766   9.747  21.108  0.00  0.00    +0.000 HD
ENDROOT
BRANCH   1  10
ATOM      7  C   UNL     1       2.623   6.656  18.858  0.00  0.00    +0.000 A 
ATOM      8  C   UNL     1       2.141   6.913  20.151  0.00  0.00    +0.000 A 
ATOM      9  C   UNL     1       1.526   8.129  20.446  0.00  0.00    +0.000 A 
ATOM     10  C   UNL     1       1.385   9.122  19.468  0.00  0.00    +0.000 A 
ATOM     11  C   UNL     1       1.892   8.875  18.187  0.00  0.00    +0.000 A 
ATOM     12  C   UNL     1       2.506   7.653  17.885  0.00  0.00    +0.000 A 
BRANCH   7  14
ATOM     13  C   UNL     1       3.915   5.166  17.367  0.00  0.00    +0.000 C 
ATOM     14  C   UNL     1       3.311   5.400  18.541  0.00  0.00    +0.000 C 
BRANCH  13  15
ATOM     15  C   UNL     1       4.553   3.870  17.005  0.00  0.00    +0.000 C 
BRANCH  15  16
ATOM     16  O   UNL     1       5.538   4.134  16.015  0.00  0.00    +0.000 OA
BRANCH  16  18
ATOM     17  C   UNL     1       7.488   4.542  17.349  0.00  0.00    +0.000 C 
ATOM     18  C   UNL     1       6.434   5.155  16.451  0.00  0.00    +0.000 C 
ENDBRANCH  16  18
ENDBRANCH  15  16
ENDBRANCH  13  15
ENDBRANCH   7  14
ENDBRANCH   1  10
BRANCH   3  19
ATOM     19  C   UNL     1       0.356  13.927  19.715  0.00  0.00    +0.000 A 
ATOM     20  C   UNL     1      -0.621  14.634  19.012  0.00  0.00    +0.000 A 
ATOM     21  C   UNL     1      -0.469  16.007  18.773  0.00  0.00    +0.000 A 
ATOM     22  C   UNL     1       0.642  16.721  19.251  0.00  0.00    +0.000 A 
ATOM     23  C   UNL     1       1.602  16.009  19.971  0.00  0.00    +0.000 A 
ATOM     24  C   UNL     1       1.477  14.629  20.174  0.00  0.00    +0.000 A 
BRANCH  22  25
ATOM     25  N   UNL     1       0.801  18.055  18.888  0.00  0.00    +0.000 N 
ATOM     26  H   UNL     1       1.219  18.622  19.619  0.00  0.00    +0.000 HD
BRANCH  25  27
ATOM     27  C   UNL     1       1.224  18.453  17.544  0.00  0.00    +0.000 C 
ATOM     28  C   UNL     1       2.259  17.445  17.044  0.00  0.00    +0.000 C 
ATOM     29  C   UNL     1       0.012  18.470  16.616  0.00  0.00    +0.000 C 
ENDBRANCH  25  27
ENDBRANCH  22  25
ENDBRANCH   3  19
BRANCH   4  30
ATOM     30  C   UNL     1      -1.779  12.275  21.614  0.00  0.00    +0.000 A 
ATOM     31  C   UNL     1      -3.017  12.623  21.068  0.00  0.00    +0.000 A 
ATOM     32  C   UNL     1      -4.026  13.164  21.868  0.00  0.00    +0.000 A 
ATOM     33  C   UNL     1      -3.866  13.296  23.250  0.00  0.00    +0.000 A 
ATOM     34  C   UNL     1      -2.646  12.894  23.802  0.00  0.00    +0.000 A 
ATOM     35  C   UNL     1      -1.612  12.398  22.998  0.00  0.00    +0.000 A 
BRANCH  33  36
ATOM     36  N   UNL     1      -4.865  13.933  23.986  0.00  0.00    +0.000 N 
ATOM     37  H   UNL     1      -4.532  14.776  24.448  0.00  0.00    +0.000 HD
BRANCH  36  38
ATOM     38  C   UNL     1      -6.215  14.087  23.445  0.00  0.00    +0.000 C 
ATOM     39  C   UNL     1      -7.103  13.019  24.078  0.00  0.00    +0.000 C 
ATOM     40  C   UNL     1      -6.747  15.481  23.773  0.00  0.00    +0.000 C 
ENDBRANCH  36  38
ENDBRANCH  33  36
ENDBRANCH   4  30
TORSDOF 11
ENDMDL
MODEL 3
REMARK VINA RESULT:      -7.6      0.633      1.576
REMARK  Name = 
REMARK  16 active torsions:
REMARK  status: ('A' for Active; 'I' for Inactive)
REMARK    1  A    between atoms: C_1  and  C_2
REMARK    2  A    between atoms: C_2  and  O_3
REMARK    3  A    between atoms: O_3  and  C_4
REMARK    4  A    between atoms: C_4  and  C_5
REMARK    5  A    between atoms: C_6  and  C_7
REMARK    6  A    between atoms: C_10  and  C_11
REMARK    7  A    between atoms: C_13  and  C_14
REMARK    8  A    between atoms: C_17  and  N_18
REMARK    9  A    between atoms: N_18  and  C_19
REMARK   10  A    between atoms: C_19  and  C_20
REMARK   11  A    between atoms: C_19  and  C_21
REMARK   12  A    between atoms: C_24  and  C_25
REMARK   13  A    between atoms: C_28  and  N_29
REMARK   14  A    between atoms: N_29  and  C_30
REMARK   15  A    between atoms: C_30  and  C_31
REMARK   16  A    between atoms: C_30  and  C_32
REMARK                            x       y       z     vdW  Elec       q    Type
REMARK                         _______ _______ _______ _____ _____    ______ ____
ROOT
ATOM      1  C   UNL     1       1.173   9.204  19.126  0.00  0.00    +0.000 A 
ATOM      2  N   UNL     1       1.250  10.072  20.112  0.00  0.00    +0.000 NA
ATOM      3  C   UNL     1       0.037  10.731  20.140  0.00  0.00    +0.000 A 
ATOM      4  C   UNL     1      -0.771  10.328  19.083  0.00  0.00    +0.000 A 
ATOM      5  N   UNL     1      -0.017   9.355  18.466  0.00  0.00    +0.000 N 
ATOM      6  H   UNL     1      -0.293   8.844  17.642  0.00  0.00    +0.000 HD
ENDROOT
BRANCH   1  10
ATOM      7  C   UNL     1       4.118   6.287  18.014  0.00  0.00    +0.000 A 
ATOM      8  C   UNL     1       3.941   7.447  17.245  0.00  0.00    +0.000 A 
ATOM      9  C   UNL     1       2.986   8.397  17.608  0.00  0.00    +0.000 A 
ATOM     10  C   UNL     1       2.177   8.211  18.737  0.00  0.00    +0.000 A 
ATOM     11  C   UNL     1       2.335   7.039  19.486  0.00  0.00    +0.000 A 
ATOM     12  C   UNL     1       3.296   6.085  19.128  0.00  0.00    +0.000 A 
BRANCH   7  14
ATOM     13  C   UNL     1       5.423   5.007  16.349  0.00  0.00    +0.000 C 
ATOM     14  C   UNL     1       5.086   5.258  17.623  0.00  0.00    +0.000 C 
BRANCH  13  15
ATOM     15  C   UNL     1       6.348   3.917  15.934  0.00  0.00    +0.000 C 
BRANCH  15  16
ATOM     16  O   UNL     1       5.880   3.400  14.696  0.00  0.00    +0.000 OA
BRANCH  16  18
ATOM     17  C   UNL     1       6.084   3.416  12.308  0.00  0.00    +0.000 C 
ATOM     18  C   UNL     1       6.444   4.118  13.601  0.00  0.00    +0.000 C 
ENDBRANCH  16  18
ENDBRANCH  15  16
ENDBRANCH  13  15
ENDBRANCH   7  14
ENDBRANCH   1  10
BRANCH   3  19
ATOM     19  C   UNL     1      -0.293  11.689  21.188  0.00  0.00    +0.000 A 
ATOM     20  C   UNL     1      -1.102  11.309  22.260  0.00  0.00    +0.000 A 
ATOM     21  C   UNL     1      -1.461  12.242  23.243  0.00  0.00    +0.000 A 
ATOM     22  C   UNL     1      -1.002  13.568  23.205  0.00  0.00    +0.000 A 
ATOM     23  C   UNL     1      -0.177  13.932  22.140  0.00  0.00    +0.000 A 
ATOM     24  C   UNL     1       0.148  13.017  21.132  0.00  0.00    +0.000 A 
BRANCH  22  25
ATOM     25  N   UNL     1      -1.481  14.481  24.140  0.00  0.00    +0.000 N 
ATOM     26  H   UNL     1      -0.857  15.268  24.286  0.00  0.00    +0.000 HD
BRANCH  25  27
ATOM     27  C   UNL     1      -2.895  14.850  24.218  0.00  0.00    +0.000 C 
ATOM     28  C   UNL     1      -3.035  16.024  25.187  0.00  0.00    +0.000 C 
ATOM     29  C   UNL     1      -3.391  15.250  22.831  0.00  0.00    +0.000 C 
ENDBRANCH  25  27
ENDBRANCH  22  25
ENDBRANCH   3  19
BRANCH   4  30
ATOM     30  C   UNL     1      -2.095  10.716  18.600  0.00  0.00    +0.000 A 
ATOM     31  C   UNL     1      -2.728   9.992  17.586  0.00  0.00    +0.000 A 
ATOM     32  C   UNL     1      -3.932  10.436  17.034  0.00  0.00    +0.000 A 
ATOM     33  C   UNL     1      -4.586  11.567  17.529  0.00  0.00    +0.000 A 
ATOM     34  C   UNL     1      -3.979  12.258  18.583  0.00  0.00    +0.000 A 
ATOM     35  C   UNL     1      -2.747  11.846  19.107  0.00  0.00    +0.000 A 
BRANCH  33  36
ATOM     36  N   UNL     1      -5.732  12.023  16.877  0.00  0.00    +0.000 N 
ATOM     37  H   UNL     1      -5.848  11.606  15.956  0.00  0.00    +0.000 HD
BRANCH  36  38
ATOM     38  C   UNL     1      -7.000  12.160  17.593  0.00  0.00    +0.000 C 
ATOM     39  C   UNL     1      -7.020  11.130  18.720  0.00  0.00    +0.000 C 
ATOM     40  C   UNL     1      -7.121  13.572  18.164  0.00  0.00    +0.000 C 
ENDBRANCH  36  38
ENDBRANCH  33  36
ENDBRANCH   4  30
TORSDOF 11
ENDMDL
MODEL 4
REMARK VINA RESULT:      -7.6      0.810      1.294
REMARK  Name = 
REMARK  16 active torsions:
REMARK  status: ('A' for Active; 'I' for Inactive)
REMARK    1  A    between atoms: C_1  and  C_2
REMARK    2  A    between atoms: C_2  and  O_3
REMARK    3  A    between atoms: O_3  and  C_4
REMARK    4  A    between atoms: C_4  and  C_5
REMARK    5  A    between atoms: C_6  and  C_7
REMARK    6  A    between atoms: C_10  and  C_11
REMARK    7  A    between atoms: C_13  and  C_14
REMARK    8  A    between atoms: C_17  and  N_18
REMARK    9  A    between atoms: N_18  and  C_19
REMARK   10  A    between atoms: C_19  and  C_20
REMARK   11  A    between atoms: C_19  and  C_21
REMARK   12  A    between atoms: C_24  and  C_25
REMARK   13  A    between atoms: C_28  and  N_29
REMARK   14  A    between atoms: N_29  and  C_30
REMARK   15  A    between atoms: C_30  and  C_31
REMARK   16  A    between atoms: C_30  and  C_32
REMARK                            x       y       z     vdW  Elec       q    Type
REMARK                         _______ _______ _______ _____ _____    ______ ____
ROOT
ATOM      1  C   UNL     1       0.920   9.436  19.198  0.00  0.00    +0.000 A 
ATOM      2  N   UNL     1       1.022  10.362  20.129  0.00  0.00    +0.000 NA
ATOM      3  C   UNL     1      -0.177  11.048  20.123  0.00  0.00    +0.000 A 
ATOM      4  C   UNL     1      -1.000  10.598  19.098  0.00  0.00    +0.000 A 
ATOM      5  N   UNL     1      -0.272   9.573  18.537  0.00  0.00    +0.000 N 
ATOM      6  H   UNL     1      -0.564   9.018  17.748  0.00  0.00    +0.000 HD
ENDROOT
BRANCH   1  10
ATOM      7  C   UNL     1       3.786   6.405  18.197  0.00  0.00    +0.000 A 
ATOM      8  C   UNL     1       3.066   6.332  19.399  0.00  0.00    +0.000 A 
ATOM      9  C   UNL     1       2.132   7.316  19.723  0.00  0.00    +0.000 A 
ATOM     10  C   UNL     1       1.899   8.400  18.866  0.00  0.00    +0.000 A 
ATOM     11  C   UNL     1       2.640   8.486  17.681  0.00  0.00    +0.000 A 
ATOM     12  C   UNL     1       3.575   7.497  17.350  0.00  0.00    +0.000 A 
BRANCH   7  14
ATOM     13  C   UNL     1       5.423   5.351  16.672  0.00  0.00    +0.000 C 
ATOM     14  C   UNL     1       4.804   5.403  17.861  0.00  0.00    +0.000 C 
BRANCH  13  15
ATOM     15  C   UNL     1       6.403   4.296  16.293  0.00  0.00    +0.000 C 
BRANCH  15  16
ATOM     16  O   UNL     1       5.928   3.670  15.109  0.00  0.00    +0.000 OA
BRANCH  16  18
ATOM     17  C   UNL     1       6.022   3.536  12.717  0.00  0.00    +0.000 C 
ATOM     18  C   UNL     1       6.530   4.249  13.953  0.00  0.00    +0.000 C 
ENDBRANCH  16  18
ENDBRANCH  15  16
ENDBRANCH  13  15
ENDBRANCH   7  14
ENDBRANCH   1  10
BRANCH   3  19
ATOM     19  C   UNL     1      -0.478  12.075  21.112  0.00  0.00    +0.000 A 
ATOM     20  C   UNL     1      -0.072  13.394  20.903  0.00  0.00    +0.000 A 
ATOM     21  C   UNL     1      -0.318  14.374  21.875  0.00  0.00    +0.000 A 
ATOM     22  C   UNL     1      -1.001  14.078  23.066  0.00  0.00    +0.000 A 
ATOM     23  C   UNL     1      -1.421  12.761  23.255  0.00  0.00    +0.000 A 
ATOM     24  C   UNL     1      -1.139  11.769  22.308  0.00  0.00    +0.000 A 
BRANCH  22  25
ATOM     25  N   UNL     1      -1.116  15.059  24.045  0.00  0.00    +0.000 N 
ATOM     26  H   UNL     1      -0.219  15.370  24.408  0.00  0.00    +0.000 HD
BRANCH  25  27
ATOM     27  C   UNL     1      -2.102  16.137  23.960  0.00  0.00    +0.000 C 
ATOM     28  C   UNL     1      -3.114  15.781  22.870  0.00  0.00    +0.000 C 
ATOM     29  C   UNL     1      -2.807  16.287  25.305  0.00  0.00    +0.000 C 
ENDBRANCH  25  27
ENDBRANCH  22  25
ENDBRANCH   3  19
BRANCH   4  30
ATOM     30  C   UNL     1      -2.320  10.984  18.600  0.00  0.00    +0.000 A 
ATOM     31  C   UNL     1      -2.760  10.568  17.341  0.00  0.00    +0.000 A 
ATOM     32  C   UNL     1      -3.961  11.042  16.810  0.00  0.00    +0.000 A 
ATOM     33  C   UNL     1      -4.804  11.878  17.547  0.00  0.00    +0.000 A 
ATOM     34  C   UNL     1      -4.388  12.248  18.830  0.00  0.00    +0.000 A 
ATOM     35  C   UNL     1      -3.160  11.816  19.348  0.00  0.00    +0.000 A 
BRANCH  33  36
ATOM     36  N   UNL     1      -5.941  12.402  16.932  0.00  0.00    +0.000 N 
ATOM     37  H   UNL     1      -6.590  11.677  16.632  0.00  0.00    +0.000 HD
BRANCH  36  38
ATOM     38  C   UNL     1      -6.624  13.569  17.486  0.00  0.00    +0.000 C 
ATOM     39  C   UNL     1      -7.098  14.437  16.322  0.00  0.00    +0.000 C 
ATOM     40  C   UNL     1      -7.816  13.119  18.330  0.00  0.00    +0.000 C 
ENDBRANCH  36  38
ENDBRANCH  33  36
ENDBRANCH   4  30
TORSDOF 11
ENDMDL
MODEL 5
REMARK VINA RESULT:      -7.6      0.484      1.313
REMARK  Name = 
REMARK  16 active torsions:
REMARK  status: ('A' for Active; 'I' for Inactive)
REMARK    1  A    between atoms: C_1  and  C_2
REMARK    2  A    between atoms: C_2  and  O_3
REMARK    3  A    between atoms: O_3  and  C_4
REMARK    4  A    between atoms: C_4  and  C_5
REMARK    5  A    between atoms: C_6  and  C_7
REMARK    6  A    between atoms: C_10  and  C_11
REMARK    7  A    between atoms: C_13  and  C_14
REMARK    8  A    between atoms: C_17  and  N_18
REMARK    9  A    between atoms: N_18  and  C_19
REMARK   10  A    between atoms: C_19  and  C_20
REMARK   11  A    between atoms: C_19  and  C_21
REMARK   12  A    between atoms: C_24  and  C_25
REMARK   13  A    between atoms: C_28  and  N_29
REMARK   14  A    between atoms: N_29  and  C_30
REMARK   15  A    between atoms: C_30  and  C_31
REMARK   16  A    between atoms: C_30  and  C_32
REMARK                            x       y       z     vdW  Elec       q    Type
REMARK                         _______ _______ _______ _____ _____    ______ ____
ROOT
ATOM      1  C   UNL     1       1.050   9.361  19.063  0.00  0.00    +0.000 A 
ATOM      2  N   UNL     1       1.169  10.295  19.983  0.00  0.00    +0.000 NA
ATOM      3  C   UNL     1      -0.033  10.976  19.998  0.00  0.00    +0.000 A 
ATOM      4  C   UNL     1      -0.877  10.513  18.996  0.00  0.00    +0.000 A 
ATOM      5  N   UNL     1      -0.157   9.487  18.428  0.00  0.00    +0.000 N 
ATOM      6  H   UNL     1      -0.465   8.924  17.650  0.00  0.00    +0.000 HD
ENDROOT
BRANCH   1  10
ATOM      7  C   UNL     1       3.915   6.323  18.077  0.00  0.00    +0.000 A 
ATOM      8  C   UNL     1       3.727   7.424  17.229  0.00  0.00    +0.000 A 
ATOM      9  C   UNL     1       2.797   8.413  17.550  0.00  0.00    +0.000 A 
ATOM     10  C   UNL     1       2.026   8.326  18.717  0.00  0.00    +0.000 A 
ATOM     11  C   UNL     1       2.194   7.212  19.548  0.00  0.00    +0.000 A 
ATOM     12  C   UNL     1       3.130   6.219  19.231  0.00  0.00    +0.000 A 
BRANCH   7  14
ATOM     13  C   UNL     1       5.472   5.165  16.545  0.00  0.00    +0.000 C 
ATOM     14  C   UNL     1       4.856   5.252  17.733  0.00  0.00    +0.000 C 
BRANCH  13  15
ATOM     15  C   UNL     1       6.372   4.044  16.157  0.00  0.00    +0.000 C 
BRANCH  15  16
ATOM     16  O   UNL     1       7.447   4.592  15.406  0.00  0.00    +0.000 OA
BRANCH  16  18
ATOM     17  C   UNL     1       6.362   3.783  13.427  0.00  0.00    +0.000 C 
ATOM     18  C   UNL     1       7.012   4.973  14.102  0.00  0.00    +0.000 C 
ENDBRANCH  16  18
ENDBRANCH  15  16
ENDBRANCH  13  15
ENDBRANCH   7  14
ENDBRANCH   1  10
BRANCH   3  19
ATOM     19  C   UNL     1      -0.317  12.010  20.985  0.00  0.00    +0.000 A 
ATOM     20  C   UNL     1       0.118  13.320  20.777  0.00  0.00    +0.000 A 
ATOM     21  C   UNL     1      -0.111  14.306  21.746  0.00  0.00    +0.000 A 
ATOM     22  C   UNL     1      -0.805  14.026  22.934  0.00  0.00    +0.000 A 
ATOM     23  C   UNL     1      -1.254  12.718  23.123  0.00  0.00    +0.000 A 
ATOM     24  C   UNL     1      -0.989  11.720  22.178  0.00  0.00    +0.000 A 
BRANCH  22  25
ATOM     25  N   UNL     1      -0.904  15.011  23.913  0.00  0.00    +0.000 N 
ATOM     26  H   UNL     1      -0.713  15.944  23.561  0.00  0.00    +0.000 HD
BRANCH  25  27
ATOM     27  C   UNL     1      -1.945  14.989  24.941  0.00  0.00    +0.000 C 
ATOM     28  C   UNL     1      -1.439  15.765  26.158  0.00  0.00    +0.000 C 
ATOM     29  C   UNL     1      -3.212  15.638  24.391  0.00  0.00    +0.000 C 
ENDBRANCH  25  27
ENDBRANCH  22  25
ENDBRANCH   3  19
BRANCH   4  30
ATOM     30  C   UNL     1      -2.209  10.890  18.524  0.00  0.00    +0.000 A 
ATOM     31  C   UNL     1      -2.777  10.266  17.410  0.00  0.00    +0.000 A 
ATOM     32  C   UNL     1      -3.990  10.713  16.881  0.00  0.00    +0.000 A 
ATOM     33  C   UNL     1      -4.717  11.738  17.491  0.00  0.00    +0.000 A 
ATOM     34  C   UNL     1      -4.174  12.323  18.639  0.00  0.00    +0.000 A 
ATOM     35  C   UNL     1      -2.934  11.913  19.146  0.00  0.00    +0.000 A 
BRANCH  33  36
ATOM     36  N   UNL     1      -5.871  12.212  16.865  0.00  0.00    +0.000 N 
ATOM     37  H   UNL     1      -5.991  11.830  15.929  0.00  0.00    +0.000 HD
BRANCH  36  38
ATOM     38  C   UNL     1      -7.133  12.315  17.595  0.00  0.00    +0.000 C 
ATOM     39  C   UNL     1      -7.109  11.291  18.728  0.00  0.00    +0.000 C 
ATOM     40  C   UNL     1      -7.290  13.725  18.160  0.00  0.00    +0.000 C 
ENDBRANCH  36  38
ENDBRANCH  33  36
ENDBRANCH   4  30
TORSDOF 11
ENDMDL
MODEL 6
REMARK VINA RESULT:      -7.5      0.669      1.333
REMARK  Name = 
REMARK  16 active torsions:
REMARK  status: ('A' for Active; 'I' for Inactive)
REMARK    1  A    between atoms: C_1  and  C_2
REMARK    2  A    between atoms: C_2  and  O_3
REMARK    3  A    between atoms: O_3  and  C_4
REMARK    4  A    between atoms: C_4  and  C_5
REMARK    5  A    between atoms: C_6  and  C_7
REMARK    6  A    between atoms: C_10  and  C_11
REMARK    7  A    between atoms: C_13  and  C_14
REMARK    8  A    between atoms: C_17  and  N_18
REMARK    9  A    between atoms: N_18  and  C_19
REMARK   10  A    between atoms: C_19  and  C_20
REMARK   11  A    between atoms: C_19  and  C_21
REMARK   12  A    between atoms: C_24  and  C_25
REMARK   13  A    between atoms: C_28  and  N_29
REMARK   14  A    between atoms: N_29  and  C_30
REMARK   15  A    between atoms: C_30  and  C_31
REMARK   16  A    between atoms: C_30  and  C_32
REMARK                            x       y       z     vdW  Elec       q    Type
REMARK                         _______ _______ _______ _____ _____    ______ ____
ROOT
ATOM      1  C   UNL     1       1.131   9.251  19.142  0.00  0.00    +0.000 A 
ATOM      2  N   UNL     1       1.171  10.079  20.165  0.00  0.00    +0.000 NA
ATOM      3  C   UNL     1      -0.024  10.771  20.147  0.00  0.00    +0.000 A 
ATOM      4  C   UNL     1      -0.777  10.431  19.029  0.00  0.00    +0.000 A 
ATOM      5  N   UNL     1      -0.013   9.462  18.420  0.00  0.00    +0.000 N 
ATOM      6  H   UNL     1      -0.252   8.990  17.561  0.00  0.00    +0.000 HD
ENDROOT
BRANCH   1  10
ATOM      7  C   UNL     1       4.055   6.311  18.039  0.00  0.00    +0.000 A 
ATOM      8  C   UNL     1       3.274   6.139  19.192  0.00  0.00    +0.000 A 
ATOM      9  C   UNL     1       2.322   7.093  19.549  0.00  0.00    +0.000 A 
ATOM     10  C   UNL     1       2.130   8.245  18.775  0.00  0.00    +0.000 A 
ATOM     11  C   UNL     1       2.930   8.430  17.642  0.00  0.00    +0.000 A 
ATOM     12  C   UNL     1       3.884   7.472  17.277  0.00  0.00    +0.000 A 
BRANCH   7  14
ATOM     13  C   UNL     1       5.947   5.523  16.655  0.00  0.00    +0.000 C 
ATOM     14  C   UNL     1       5.092   5.340  17.673  0.00  0.00    +0.000 C 
BRANCH  13  15
ATOM     15  C   UNL     1       6.954   4.514  16.228  0.00  0.00    +0.000 C 
BRANCH  15  16
ATOM     16  O   UNL     1       7.644   5.041  15.103  0.00  0.00    +0.000 OA
BRANCH  16  18
ATOM     17  C   UNL     1       7.727   5.283  12.719  0.00  0.00    +0.000 C 
ATOM     18  C   UNL     1       7.034   4.611  13.887  0.00  0.00    +0.000 C 
ENDBRANCH  16  18
ENDBRANCH  15  16
ENDBRANCH  13  15
ENDBRANCH   7  14
ENDBRANCH   1  10
BRANCH   3  19
ATOM     19  C   UNL     1      -0.392  11.697  21.211  0.00  0.00    +0.000 A 
ATOM     20  C   UNL     1      -1.259  11.294  22.227  0.00  0.00    +0.000 A 
ATOM     21  C   UNL     1      -1.652  12.198  23.224  0.00  0.00    +0.000 A 
ATOM     22  C   UNL     1      -1.171  13.517  23.256  0.00  0.00    +0.000 A 
ATOM     23  C   UNL     1      -0.288  13.903  22.247  0.00  0.00    +0.000 A 
ATOM     24  C   UNL     1       0.073  13.018  21.224  0.00  0.00    +0.000 A 
BRANCH  22  25
ATOM     25  N   UNL     1      -1.682  14.404  24.198  0.00  0.00    +0.000 N 
ATOM     26  H   UNL     1      -0.972  14.783  24.818  0.00  0.00    +0.000 HD
BRANCH  25  27
ATOM     27  C   UNL     1      -2.730  15.373  23.872  0.00  0.00    +0.000 C 
ATOM     28  C   UNL     1      -2.066  16.645  23.344  0.00  0.00    +0.000 C 
ATOM     29  C   UNL     1      -3.654  14.781  22.810  0.00  0.00    +0.000 C 
ENDBRANCH  25  27
ENDBRANCH  22  25
ENDBRANCH   3  19
BRANCH   4  30
ATOM     30  C   UNL     1      -2.059  10.876  18.484  0.00  0.00    +0.000 A 
ATOM     31  C   UNL     1      -2.746  11.951  19.055  0.00  0.00    +0.000 A 
ATOM     32  C   UNL     1      -4.028  12.293  18.620  0.00  0.00    +0.000 A 
ATOM     33  C   UNL     1      -4.634  11.632  17.549  0.00  0.00    +0.000 A 
ATOM     34  C   UNL     1      -3.922  10.593  16.942  0.00  0.00    +0.000 A 
ATOM     35  C   UNL     1      -2.656  10.212  17.406  0.00  0.00    +0.000 A 
BRANCH  33  36
ATOM     36  N   UNL     1      -5.953  11.947  17.222  0.00  0.00    +0.000 N 
ATOM     37  H   UNL     1      -6.491  11.129  16.942  0.00  0.00    +0.000 HD
BRANCH  36  38
ATOM     38  C   UNL     1      -6.730  12.874  18.042  0.00  0.00    +0.000 C 
ATOM     39  C   UNL     1      -7.635  13.683  17.115  0.00  0.00    +0.000 C 
ATOM     40  C   UNL     1      -7.570  12.093  19.052  0.00  0.00    +0.000 C 
ENDBRANCH  36  38
ENDBRANCH  33  36
ENDBRANCH   4  30
TORSDOF 11
ENDMDL
MODEL 7
REMARK VINA RESULT:      -7.5      2.986      4.759
REMARK  Name = 
REMARK  16 active torsions:
REMARK  status: ('A' for Active; 'I' for Inactive)
REMARK    1  A    between atoms: C_1  and  C_2
REMARK    2  A    between atoms: C_2  and  O_3
REMARK    3  A    between atoms: O_3  and  C_4
REMARK    4  A    between atoms: C_4  and  C_5
REMARK    5  A    between atoms: C_6  and  C_7
REMARK    6  A    between atoms: C_10  and  C_11
REMARK    7  A    between atoms: C_13  and  C_14
REMARK    8  A    between atoms: C_17  and  N_18
REMARK    9  A    between atoms: N_18  and  C_19
REMARK   10  A    between atoms: C_19  and  C_20
REMARK   11  A    between atoms: C_19  and  C_21
REMARK   12  A    between atoms: C_24  and  C_25
REMARK   13  A    between atoms: C_28  and  N_29
REMARK   14  A    between atoms: N_29  and  C_30
REMARK   15  A    between atoms: C_30  and  C_31
REMARK   16  A    between atoms: C_30  and  C_32
REMARK                            x       y       z     vdW  Elec       q    Type
REMARK                         _______ _______ _______ _____ _____    ______ ____
ROOT
ATOM      1  C   UNL     1       0.754  10.112  19.929  0.00  0.00    +0.000 A 
ATOM      2  N   UNL     1      -0.237  10.204  20.791  0.00  0.00    +0.000 NA
ATOM      3  C   UNL     1      -0.598  11.536  20.821  0.00  0.00    +0.000 A 
ATOM      4  C   UNL     1       0.256  12.299  20.034  0.00  0.00    +0.000 A 
ATOM      5  N   UNL     1       1.097  11.360  19.481  0.00  0.00    +0.000 N 
ATOM      6  H   UNL     1       1.860  11.563  18.855  0.00  0.00    +0.000 HD
ENDROOT
BRANCH   1  10
ATOM      7  C   UNL     1       2.761   6.539  18.657  0.00  0.00    +0.000 A 
ATOM      8  C   UNL     1       2.460   7.552  17.734  0.00  0.00    +0.000 A 
ATOM      9  C   UNL     1       1.810   8.714  18.148  0.00  0.00    +0.000 A 
ATOM     10  C   UNL     1       1.436   8.894  19.486  0.00  0.00    +0.000 A 
ATOM     11  C   UNL     1       1.711   7.869  20.400  0.00  0.00    +0.000 A 
ATOM     12  C   UNL     1       2.367   6.702  19.989  0.00  0.00    +0.000 A 
BRANCH   7  14
ATOM     13  C   UNL     1       4.238   5.211  17.184  0.00  0.00    +0.000 C 
ATOM     14  C   UNL     1       3.404   5.291  18.231  0.00  0.00    +0.000 C 
BRANCH  13  15
ATOM     15  C   UNL     1       4.839   3.939  16.698  0.00  0.00    +0.000 C 
BRANCH  15  16
ATOM     16  O   UNL     1       6.137   3.828  17.265  0.00  0.00    +0.000 OA
BRANCH  16  18
ATOM     17  C   UNL     1       7.440   5.792  17.704  0.00  0.00    +0.000 C 
ATOM     18  C   UNL     1       7.032   4.764  16.668  0.00  0.00    +0.000 C 
ENDBRANCH  16  18
ENDBRANCH  15  16
ENDBRANCH  13  15
ENDBRANCH   7  14
ENDBRANCH   1  10
BRANCH   3  19
ATOM     19  C   UNL     1      -1.753  12.002  21.579  0.00  0.00    +0.000 A 
ATOM     20  C   UNL     1      -1.786  11.864  22.967  0.00  0.00    +0.000 A 
ATOM     21  C   UNL     1      -2.915  12.266  23.694  0.00  0.00    +0.000 A 
ATOM     22  C   UNL     1      -4.030  12.843  23.064  0.00  0.00    +0.000 A 
ATOM     23  C   UNL     1      -3.979  12.996  21.678  0.00  0.00    +0.000 A 
ATOM     24  C   UNL     1      -2.871  12.555  20.944  0.00  0.00    +0.000 A 
BRANCH  22  25
ATOM     25  N   UNL     1      -5.169  13.117  23.816  0.00  0.00    +0.000 N 
ATOM     26  H   UNL     1      -4.970  13.621  24.675  0.00  0.00    +0.000 HD
BRANCH  25  27
ATOM     27  C   UNL     1      -6.435  13.517  23.200  0.00  0.00    +0.000 C 
ATOM     28  C   UNL     1      -7.495  12.472  23.549  0.00  0.00    +0.000 C 
ATOM     29  C   UNL     1      -6.847  14.886  23.734  0.00  0.00    +0.000 C 
ENDBRANCH  25  27
ENDBRANCH  22  25
ENDBRANCH   3  19
BRANCH   4  30
ATOM     30  C   UNL     1       0.379  13.728  19.745  0.00  0.00    +0.000 A 
ATOM     31  C   UNL     1       1.396  14.491  20.325  0.00  0.00    +0.000 A 
ATOM     32  C   UNL     1       1.437  15.876  20.155  0.00  0.00    +0.000 A 
ATOM     33  C   UNL     1       0.520  16.536  19.334  0.00  0.00    +0.000 A 
ATOM     34  C   UNL     1      -0.463  15.763  18.708  0.00  0.00    +0.000 A 
ATOM     35  C   UNL     1      -0.541  14.380  18.915  0.00  0.00    +0.000 A 
BRANCH  33  36
ATOM     36  N   UNL     1       0.545  17.930  19.278  0.00  0.00    +0.000 N 
ATOM     37  H   UNL     1       1.147  18.337  19.990  0.00  0.00    +0.000 HD
BRANCH  36  38
ATOM     38  C   UNL     1       0.641  18.629  17.998  0.00  0.00    +0.000 C 
ATOM     39  C   UNL     1       1.670  17.899  17.137  0.00  0.00    +0.000 C 
ATOM     40  C   UNL     1      -0.721  18.630  17.306  0.00  0.00    +0.000 C 
ENDBRANCH  36  38
ENDBRANCH  33  36
ENDBRANCH   4  30
TORSDOF 11
ENDMDL
MODEL 8
REMARK VINA RESULT:      -7.5      3.154      4.955
REMARK  Name = 
REMARK  16 active torsions:
REMARK  status: ('A' for Active; 'I' for Inactive)
REMARK    1  A    between atoms: C_1  and  C_2
REMARK    2  A    between atoms: C_2  and  O_3
REMARK    3  A    between atoms: O_3  and  C_4
REMARK    4  A    between atoms: C_4  and  C_5
REMARK    5  A    between atoms: C_6  and  C_7
REMARK    6  A    between atoms: C_10  and  C_11
REMARK    7  A    between atoms: C_13  and  C_14
REMARK    8  A    between atoms: C_17  and  N_18
REMARK    9  A    between atoms: N_18  and  C_19
REMARK   10  A    between atoms: C_19  and  C_20
REMARK   11  A    between atoms: C_19  and  C_21
REMARK   12  A    between atoms: C_24  and  C_25
REMARK   13  A    between atoms: C_28  and  N_29
REMARK   14  A    between atoms: N_29  and  C_30
REMARK   15  A    between atoms: C_30  and  C_31
REMARK   16  A    between atoms: C_30  and  C_32
REMARK                            x       y       z     vdW  Elec       q    Type
REMARK                         _______ _______ _______ _____ _____    ______ ____
ROOT
ATOM      1  C   UNL     1       0.498  10.296  20.007  0.00  0.00    +0.000 A 
ATOM      2  N   UNL     1      -0.696  10.445  20.541  0.00  0.00    +0.000 NA
ATOM      3  C   UNL     1      -0.969  11.798  20.504  0.00  0.00    +0.000 A 
ATOM      4  C   UNL     1       0.124  12.511  20.025  0.00  0.00    +0.000 A 
ATOM      5  N   UNL     1       1.032  11.524  19.717  0.00  0.00    +0.000 N 
ATOM      6  H   UNL     1       1.957  11.681  19.349  0.00  0.00    +0.000 HD
ENDROOT
BRANCH   1  10
ATOM      7  C   UNL     1       2.562   6.618  19.220  0.00  0.00    +0.000 A 
ATOM      8  C   UNL     1       1.942   6.834  20.460  0.00  0.00    +0.000 A 
ATOM      9  C   UNL     1       1.268   8.028  20.715  0.00  0.00    +0.000 A 
ATOM     10  C   UNL     1       1.204   9.040  19.748  0.00  0.00    +0.000 A 
ATOM     11  C   UNL     1       1.849   8.835  18.522  0.00  0.00    +0.000 A 
ATOM     12  C   UNL     1       2.522   7.635  18.261  0.00  0.00    +0.000 A 
BRANCH   7  14
ATOM     13  C   UNL     1       4.636   5.274  19.134  0.00  0.00    +0.000 C 
ATOM     14  C   UNL     1       3.312   5.387  18.951  0.00  0.00    +0.000 C 
BRANCH  13  15
ATOM     15  C   UNL     1       5.420   4.055  18.795  0.00  0.00    +0.000 C 
BRANCH  15  16
ATOM     16  O   UNL     1       6.726   4.469  18.420  0.00  0.00    +0.000 OA
BRANCH  16  18
ATOM     17  C   UNL     1       7.832   6.596  18.439  0.00  0.00    +0.000 C 
ATOM     18  C   UNL     1       6.700   5.778  17.854  0.00  0.00    +0.000 C 
ENDBRANCH  16  18
ENDBRANCH  15  16
ENDBRANCH  13  15
ENDBRANCH   7  14
ENDBRANCH   1  10
BRANCH   3  19
ATOM     19  C   UNL     1      -2.266  12.331  20.903  0.00  0.00    +0.000 A 
ATOM     20  C   UNL     1      -2.557  12.539  22.251  0.00  0.00    +0.000 A 
ATOM     21  C   UNL     1      -3.820  13.006  22.641  0.00  0.00    +0.000 A 
ATOM     22  C   UNL     1      -4.818  13.307  21.700  0.00  0.00    +0.000 A 
ATOM     23  C   UNL     1      -4.509  13.116  20.353  0.00  0.00    +0.000 A 
ATOM     24  C   UNL     1      -3.265  12.608  19.961  0.00  0.00    +0.000 A 
BRANCH  22  25
ATOM     25  N   UNL     1      -6.090  13.655  22.145  0.00  0.00    +0.000 N 
ATOM     26  H   UNL     1      -6.804  13.562  21.429  0.00  0.00    +0.000 HD
BRANCH  25  27
ATOM     27  C   UNL     1      -6.573  13.307  23.482  0.00  0.00    +0.000 C 
ATOM     28  C   UNL     1      -7.320  14.511  24.055  0.00  0.00    +0.000 C 
ATOM     29  C   UNL     1      -7.506  12.103  23.384  0.00  0.00    +0.000 C 
ENDBRANCH  25  27
ENDBRANCH  22  25
ENDBRANCH   3  19
BRANCH   4  30
ATOM     30  C   UNL     1       0.413  13.931  19.828  0.00  0.00    +0.000 A 
ATOM     31  C   UNL     1      -0.321  14.911  20.500  0.00  0.00    +0.000 A 
ATOM     32  C   UNL     1      -0.135  16.266  20.215  0.00  0.00    +0.000 A 
ATOM     33  C   UNL     1       0.845  16.693  19.314  0.00  0.00    +0.000 A 
ATOM     34  C   UNL     1       1.617  15.712  18.685  0.00  0.00    +0.000 A 
ATOM     35  C   UNL     1       1.401  14.349  18.929  0.00  0.00    +0.000 A 
BRANCH  33  36
ATOM     36  N   UNL     1       0.920  18.048  18.992  0.00  0.00    +0.000 N 
ATOM     37  H   UNL     1       1.880  18.376  18.913  0.00  0.00    +0.000 HD
BRANCH  36  38
ATOM     38  C   UNL     1       0.044  18.629  17.976  0.00  0.00    +0.000 C 
ATOM     39  C   UNL     1       0.754  18.531  16.628  0.00  0.00    +0.000 C 
ATOM     40  C   UNL     1      -1.278  17.864  17.935  0.00  0.00    +0.000 C 
ENDBRANCH  36  38
ENDBRANCH  33  36
ENDBRANCH   4  30
TORSDOF 11
ENDMDL
MODEL 9
REMARK VINA RESULT:      -7.4      7.917     12.121
REMARK  Name = 
REMARK  16 active torsions:
REMARK  status: ('A' for Active; 'I' for Inactive)
REMARK    1  A    between atoms: C_1  and  C_2
REMARK    2  A    between atoms: C_2  and  O_3
REMARK    3  A    between atoms: O_3  and  C_4
REMARK    4  A    between atoms: C_4  and  C_5
REMARK    5  A    between atoms: C_6  and  C_7
REMARK    6  A    between atoms: C_10  and  C_11
REMARK    7  A    between atoms: C_13  and  C_14
REMARK    8  A    between atoms: C_17  and  N_18
REMARK    9  A    between atoms: N_18  and  C_19
REMARK   10  A    between atoms: C_19  and  C_20
REMARK   11  A    between atoms: C_19  and  C_21
REMARK   12  A    between atoms: C_24  and  C_25
REMARK   13  A    between atoms: C_28  and  N_29
REMARK   14  A    between atoms: N_29  and  C_30
REMARK   15  A    between atoms: C_30  and  C_31
REMARK   16  A    between atoms: C_30  and  C_32
REMARK                            x       y       z     vdW  Elec       q    Type
REMARK                         _______ _______ _______ _____ _____    ______ ____
ROOT
ATOM      1  C   UNL     1       7.599   7.981  17.609  0.00  0.00    +0.000 A 
ATOM      2  N   UNL     1       7.877   7.354  16.485  0.00  0.00    +0.000 NA
ATOM      3  C   UNL     1       6.933   6.354  16.358  0.00  0.00    +0.000 A 
ATOM      4  C   UNL     1       6.113   6.301  17.480  0.00  0.00    +0.000 A 
ATOM      5  N   UNL     1       6.564   7.351  18.248  0.00  0.00    +0.000 N 
ATOM      6  H   UNL     1       6.199   7.606  19.153  0.00  0.00    +0.000 HD
ENDROOT
BRANCH   1  10
ATOM      7  C   UNL     1       9.554  11.465  19.175  0.00  0.00    +0.000 A 
ATOM      8  C   UNL     1       9.651  10.235  19.843  0.00  0.00    +0.000 A 
ATOM      9  C   UNL     1       9.018   9.102  19.333  0.00  0.00    +0.000 A 
ATOM     10  C   UNL     1       8.266   9.166  18.153  0.00  0.00    +0.000 A 
ATOM     11  C   UNL     1       8.146  10.400  17.503  0.00  0.00    +0.000 A 
ATOM     12  C   UNL     1       8.784  11.539  18.010  0.00  0.00    +0.000 A 
BRANCH   7  14
ATOM     13  C   UNL     1       9.639  13.899  19.600  0.00  0.00    +0.000 C 
ATOM     14  C   UNL     1      10.176  12.676  19.721  0.00  0.00    +0.000 C 
BRANCH  13  15
ATOM     15  C   UNL     1      10.296  15.144  20.085  0.00  0.00    +0.000 C 
BRANCH  15  16
ATOM     16  O   UNL     1      10.823  15.824  18.954  0.00  0.00    +0.000 OA
BRANCH  16  18
ATOM     17  C   UNL     1      11.027  15.630  16.573  0.00  0.00    +0.000 C 
ATOM     18  C   UNL     1      10.113  15.465  17.770  0.00  0.00    +0.000 C 
ENDBRANCH  16  18
ENDBRANCH  15  16
ENDBRANCH  13  15
ENDBRANCH   7  14
ENDBRANCH   1  10
BRANCH   3  19
ATOM     19  C   UNL     1       6.849   5.524  15.164  0.00  0.00    +0.000 A 
ATOM     20  C   UNL     1       5.891   4.513  15.075  0.00  0.00    +0.000 A 
ATOM     21  C   UNL     1       5.840   3.681  13.948  0.00  0.00    +0.000 A 
ATOM     22  C   UNL     1       6.719   3.850  12.865  0.00  0.00    +0.000 A 
ATOM     23  C   UNL     1       7.659   4.877  12.955  0.00  0.00    +0.000 A 
ATOM     24  C   UNL     1       7.742   5.682  14.098  0.00  0.00    +0.000 A 
BRANCH  22  25
ATOM     25  N   UNL     1       6.702   2.926  11.825  0.00  0.00    +0.000 N 
ATOM     26  H   UNL     1       7.616   2.531  11.626  0.00  0.00    +0.000 HD
BRANCH  25  27
ATOM     27  C   UNL     1       5.613   1.963  11.653  0.00  0.00    +0.000 C 
ATOM     28  C   UNL     1       4.460   2.661  10.931  0.00  0.00    +0.000 C 
ATOM     29  C   UNL     1       6.111   0.779  10.828  0.00  0.00    +0.000 C 
ENDBRANCH  25  27
ENDBRANCH  22  25
ENDBRANCH   3  19
BRANCH   4  30
ATOM     30  C   UNL     1       5.013   5.436  17.905  0.00  0.00    +0.000 A 
ATOM     31  C   UNL     1       3.702   5.692  17.496  0.00  0.00    +0.000 A 
ATOM     32  C   UNL     1       2.635   4.948  18.004  0.00  0.00    +0.000 A 
ATOM     33  C   UNL     1       2.846   3.871  18.870  0.00  0.00    +0.000 A 
ATOM     34  C   UNL     1       4.164   3.581  19.233  0.00  0.00    +0.000 A 
ATOM     35  C   UNL     1       5.234   4.355  18.766  0.00  0.00    +0.000 A 
BRANCH  33  36
ATOM     36  N   UNL     1       1.741   3.226  19.424  0.00  0.00    +0.000 N 
ATOM     37  H   UNL     1       1.819   2.212  19.382  0.00  0.00    +0.000 HD
BRANCH  36  38
ATOM     38  C   UNL     1       1.152   3.689  20.680  0.00  0.00    +0.000 C 
ATOM     39  C   UNL     1       1.621   2.757  21.795  0.00  0.00    +0.000 C 
ATOM     40  C   UNL     1       1.602   5.121  20.964  0.00  0.00    +0.000 C 
ENDBRANCH  36  38
ENDBRANCH  33  36
ENDBRANCH   4  30
TORSDOF 11
ENDMDL
