MODEL 1
REMARK VINA RESULT:      -7.1      0.000      0.000
REMARK  Name = 
REMARK  5 active torsions:
REMARK  status: ('A' for Active; 'I' for Inactive)
REMARK    1  A    between atoms: C_1  and  C_2
REMARK    2  A    between atoms: C_4  and  C_5
REMARK    3  A    between atoms: C_9  and  C_10
REMARK    4  A    between atoms: C_11  and  C_12
REMARK    5  A    between atoms: C_13  and  O_14
REMARK                            x       y       z     vdW  Elec       q    Type
REMARK                         _______ _______ _______ _____ _____    ______ ____
ROOT
ATOM      1  C   UNL     1       7.825   7.835  17.579  0.00  0.00    +0.000 C 
ATOM      2  C   UNL     1       6.927   6.707  17.237  0.00  0.00    +0.000 A 
ATOM      3  C   UNL     1       7.096   5.748  16.222  0.00  0.00    +0.000 A 
ATOM      4  C   UNL     1       6.008   4.909  16.323  0.00  0.00    +0.000 A 
ATOM      5  C   UNL     1       5.637   3.746  15.476  0.00  0.00    +0.000 C 
ATOM      6  N   UNL     1       5.259   5.360  17.410  0.00  0.00    +0.000 N 
ATOM      7  C   UNL     1       4.083   4.756  17.992  0.00  0.00    +0.000 A 
ATOM      8  N   UNL     1       3.426   5.421  18.965  0.00  0.00    +0.000 NA
ATOM      9  C   UNL     1       2.343   4.832  19.522  0.00  0.00    +0.000 A 
ATOM     10  C   UNL     1       1.625   5.660  20.546  0.00  0.00    +0.000 C 
ATOM     11  C   UNL     1       1.916   3.563  19.157  0.00  0.00    +0.000 A 
ATOM     12  C   UNL     1       0.752   2.871  19.794  0.00  0.00    +0.000 C 
ATOM     13  C   UNL     1       2.661   2.975  18.151  0.00  0.00    +0.000 A 
ATOM     14  N   UNL     1       3.711   3.542  17.551  0.00  0.00    +0.000 NA
ATOM     15  N   UNL     1       5.803   6.506  17.930  0.00  0.00    +0.000 NA
ENDROOT
BRANCH  13  16
ATOM     16  O   UNL     1       2.388   1.731  17.663  0.00  0.00    +0.000 OA
ATOM     17  H   UNL     1       2.431   1.085  18.380  0.00  0.00    +0.000 HD
ENDBRANCH  13  16
TORSDOF 1
ENDMDL
MODEL 2
REMARK VINA RESULT:      -6.8      2.240      5.511
REMARK  Name = 
REMARK  5 active torsions:
REMARK  status: ('A' for Active; 'I' for Inactive)
REMARK    1  A    between atoms: C_1  and  C_2
REMARK    2  A    between atoms: C_4  and  C_5
REMARK    3  A    between atoms: C_9  and  C_10
REMARK    4  A    between atoms: C_11  and  C_12
REMARK    5  A    between atoms: C_13  and  O_14
REMARK                            x       y       z     vdW  Elec       q    Type
REMARK                         _______ _______ _______ _____ _____    ______ ____
ROOT
ATOM      1  C   UNL     1       1.605   2.487  22.066  0.00  0.00    +0.000 C 
ATOM      2  C   UNL     1       1.932   3.119  20.766  0.00  0.00    +0.000 A 
ATOM      3  C   UNL     1       1.082   3.307  19.661  0.00  0.00    +0.000 A 
ATOM      4  C   UNL     1       1.847   3.949  18.713  0.00  0.00    +0.000 A 
ATOM      5  C   UNL     1       1.483   4.355  17.331  0.00  0.00    +0.000 C 
ATOM      6  N   UNL     1       3.097   4.163  19.291  0.00  0.00    +0.000 N 
ATOM      7  C   UNL     1       4.218   4.892  18.743  0.00  0.00    +0.000 A 
ATOM      8  N   UNL     1       5.392   4.875  19.409  0.00  0.00    +0.000 NA
ATOM      9  C   UNL     1       6.424   5.584  18.901  0.00  0.00    +0.000 A 
ATOM     10  C   UNL     1       7.714   5.461  19.657  0.00  0.00    +0.000 C 
ATOM     11  C   UNL     1       6.305   6.355  17.752  0.00  0.00    +0.000 A 
ATOM     12  C   UNL     1       7.418   7.188  17.200  0.00  0.00    +0.000 C 
ATOM     13  C   UNL     1       5.061   6.299  17.152  0.00  0.00    +0.000 A 
ATOM     14  N   UNL     1       4.030   5.578  17.603  0.00  0.00    +0.000 NA
ATOM     15  N   UNL     1       3.159   3.593  20.536  0.00  0.00    +0.000 NA
ENDROOT
BRANCH  13  16
ATOM     16  O   UNL     1       4.758   6.990  16.015  0.00  0.00    +0.000 OA
ATOM     17  H   UNL     1       4.164   7.720  16.229  0.00  0.00    +0.000 HD
ENDBRANCH  13  16
TORSDOF 1
ENDMDL
MODEL 3
REMARK VINA RESULT:      -6.8      1.823      3.097
REMARK  Name = 
REMARK  5 active torsions:
REMARK  status: ('A' for Active; 'I' for Inactive)
REMARK    1  A    between atoms: C_1  and  C_2
REMARK    2  A    between atoms: C_4  and  C_5
REMARK    3  A    between atoms: C_9  and  C_10
REMARK    4  A    between atoms: C_11  and  C_12
REMARK    5  A    between atoms: C_13  and  O_14
REMARK                            x       y       z     vdW  Elec       q    Type
REMARK                         _______ _______ _______ _____ _____    ______ ____
ROOT
ATOM      1  C   UNL     1       6.231   3.696  13.304  0.00  0.00    +0.000 C 
ATOM      2  C   UNL     1       5.977   4.348  14.610  0.00  0.00    +0.000 A 
ATOM      3  C   UNL     1       6.624   5.473  15.152  0.00  0.00    +0.000 A 
ATOM      4  C   UNL     1       6.020   5.693  16.371  0.00  0.00    +0.000 A 
ATOM      5  C   UNL     1       6.331   6.718  17.401  0.00  0.00    +0.000 C 
ATOM      6  N   UNL     1       5.015   4.735  16.494  0.00  0.00    +0.000 N 
ATOM      7  C   UNL     1       4.029   4.609  17.543  0.00  0.00    +0.000 A 
ATOM      8  N   UNL     1       3.219   3.530  17.547  0.00  0.00    +0.000 NA
ATOM      9  C   UNL     1       2.282   3.438  18.517  0.00  0.00    +0.000 A 
ATOM     10  C   UNL     1       1.466   2.180  18.497  0.00  0.00    +0.000 C 
ATOM     11  C   UNL     1       2.102   4.427  19.474  0.00  0.00    +0.000 A 
ATOM     12  C   UNL     1       1.039   4.373  20.526  0.00  0.00    +0.000 C 
ATOM     13  C   UNL     1       2.986   5.486  19.377  0.00  0.00    +0.000 A 
ATOM     14  N   UNL     1       3.950   5.592  18.457  0.00  0.00    +0.000 NA
ATOM     15  N   UNL     1       5.036   3.872  15.430  0.00  0.00    +0.000 NA
ENDROOT
BRANCH  13  16
ATOM     16  O   UNL     1       2.961   6.549  20.231  0.00  0.00    +0.000 OA
ATOM     17  H   UNL     1       3.843   6.937  20.291  0.00  0.00    +0.000 HD
ENDBRANCH  13  16
TORSDOF 1
ENDMDL
MODEL 4
REMARK VINA RESULT:      -6.5      1.807      2.058
REMARK  Name = 
REMARK  5 active torsions:
REMARK  status: ('A' for Active; 'I' for Inactive)
REMARK    1  A    between atoms: C_1  and  C_2
REMARK    2  A    between atoms: C_4  and  C_5
REMARK    3  A    between atoms: C_9  and  C_10
REMARK    4  A    between atoms: C_11  and  C_12
REMARK    5  A    between atoms: C_13  and  O_14
REMARK                            x       y       z     vdW  Elec       q    Type
REMARK                         _______ _______ _______ _____ _____    ______ ____
ROOT
ATOM      1  C   UNL     1       8.605   5.641  19.778  0.00  0.00    +0.000 C 
ATOM      2  C   UNL     1       7.287   5.700  19.102  0.00  0.00    +0.000 A 
ATOM      3  C   UNL     1       6.967   6.343  17.893  0.00  0.00    +0.000 A 
ATOM      4  C   UNL     1       5.628   6.094  17.686  0.00  0.00    +0.000 A 
ATOM      5  C   UNL     1       4.743   6.568  16.591  0.00  0.00    +0.000 C 
ATOM      6  N   UNL     1       5.209   5.283  18.740  0.00  0.00    +0.000 N 
ATOM      7  C   UNL     1       3.918   4.661  18.926  0.00  0.00    +0.000 A 
ATOM      8  N   UNL     1       3.668   4.015  20.083  0.00  0.00    +0.000 NA
ATOM      9  C   UNL     1       2.467   3.413  20.233  0.00  0.00    +0.000 A 
ATOM     10  C   UNL     1       2.237   2.775  21.571  0.00  0.00    +0.000 C 
ATOM     11  C   UNL     1       1.509   3.404  19.229  0.00  0.00    +0.000 A 
ATOM     12  C   UNL     1       0.193   2.702  19.352  0.00  0.00    +0.000 C 
ATOM     13  C   UNL     1       1.869   4.096  18.087  0.00  0.00    +0.000 A 
ATOM     14  N   UNL     1       3.029   4.736  17.919  0.00  0.00    +0.000 NA
ATOM     15  N   UNL     1       6.225   5.095  19.641  0.00  0.00    +0.000 NA
ENDROOT
BRANCH  13  16
ATOM     16  O   UNL     1       1.054   4.196  16.998  0.00  0.00    +0.000 OA
ATOM     17  H   UNL     1       0.142   4.011  17.257  0.00  0.00    +0.000 HD
ENDBRANCH  13  16
TORSDOF 1
ENDMDL
MODEL 5
REMARK VINA RESULT:      -6.4      3.199      6.122
REMARK  Name = 
REMARK  5 active torsions:
REMARK  status: ('A' for Active; 'I' for Inactive)
REMARK    1  A    between atoms: C_1  and  C_2
REMARK    2  A    between atoms: C_4  and  C_5
REMARK    3  A    between atoms: C_9  and  C_10
REMARK    4  A    between atoms: C_11  and  C_12
REMARK    5  A    between atoms: C_13  and  O_14
REMARK                            x       y       z     vdW  Elec       q    Type
REMARK                         _______ _______ _______ _____ _____    ______ ____
ROOT
ATOM      1  C   UNL     1       3.876   3.350  19.461  0.00  0.00    +0.000 C 
ATOM      2  C   UNL     1       4.800   4.124  18.598  0.00  0.00    +0.000 A 
ATOM      3  C   UNL     1       5.727   5.105  18.990  0.00  0.00    +0.000 A 
ATOM      4  C   UNL     1       6.350   5.509  17.830  0.00  0.00    +0.000 A 
ATOM      5  C   UNL     1       7.384   6.558  17.635  0.00  0.00    +0.000 C 
ATOM      6  N   UNL     1       5.813   4.734  16.802  0.00  0.00    +0.000 N 
ATOM      7  C   UNL     1       6.209   4.701  15.413  0.00  0.00    +0.000 A 
ATOM      8  N   UNL     1       5.476   3.973  14.546  0.00  0.00    +0.000 NA
ATOM      9  C   UNL     1       5.873   3.927  13.255  0.00  0.00    +0.000 A 
ATOM     10  C   UNL     1       4.971   3.156  12.338  0.00  0.00    +0.000 C 
ATOM     11  C   UNL     1       7.022   4.564  12.806  0.00  0.00    +0.000 A 
ATOM     12  C   UNL     1       7.510   4.486  11.393  0.00  0.00    +0.000 C 
ATOM     13  C   UNL     1       7.696   5.281  13.777  0.00  0.00    +0.000 A 
ATOM     14  N   UNL     1       7.311   5.382  15.053  0.00  0.00    +0.000 NA
ATOM     15  N   UNL     1       4.814   3.925  17.277  0.00  0.00    +0.000 NA
ENDROOT
BRANCH  13  16
ATOM     16  O   UNL     1       8.844   5.972  13.521  0.00  0.00    +0.000 OA
ATOM     17  H   UNL     1       9.169   6.373  14.338  0.00  0.00    +0.000 HD
ENDBRANCH  13  16
TORSDOF 1
ENDMDL
MODEL 6
REMARK VINA RESULT:      -6.4      3.475      5.028
REMARK  Name = 
REMARK  5 active torsions:
REMARK  status: ('A' for Active; 'I' for Inactive)
REMARK    1  A    between atoms: C_1  and  C_2
REMARK    2  A    between atoms: C_4  and  C_5
REMARK    3  A    between atoms: C_9  and  C_10
REMARK    4  A    between atoms: C_11  and  C_12
REMARK    5  A    between atoms: C_13  and  O_14
REMARK                            x       y       z     vdW  Elec       q    Type
REMARK                         _______ _______ _______ _____ _____    ______ ____
ROOT
ATOM      1  C   UNL     1       3.867   2.666  20.033  0.00  0.00    +0.000 C 
ATOM      2  C   UNL     1       3.823   3.993  19.376  0.00  0.00    +0.000 A 
ATOM      3  C   UNL     1       4.455   4.385  18.182  0.00  0.00    +0.000 A 
ATOM      4  C   UNL     1       4.094   5.700  17.989  0.00  0.00    +0.000 A 
ATOM      5  C   UNL     1       4.507   6.639  16.914  0.00  0.00    +0.000 C 
ATOM      6  N   UNL     1       3.233   6.032  19.034  0.00  0.00    +0.000 N 
ATOM      7  C   UNL     1       2.499   7.263  19.226  0.00  0.00    +0.000 A 
ATOM      8  N   UNL     1       1.815   7.438  20.376  0.00  0.00    +0.000 NA
ATOM      9  C   UNL     1       1.110   8.581  20.531  0.00  0.00    +0.000 A 
ATOM     10  C   UNL     1       0.434   8.736  21.861  0.00  0.00    +0.000 C 
ATOM     11  C   UNL     1       1.034   9.550  19.540  0.00  0.00    +0.000 A 
ATOM     12  C   UNL     1       0.219  10.798  19.668  0.00  0.00    +0.000 C 
ATOM     13  C   UNL     1       1.772   9.267  18.405  0.00  0.00    +0.000 A 
ATOM     14  N   UNL     1       2.513   8.169  18.233  0.00  0.00    +0.000 NA
ATOM     15  N   UNL     1       3.120   4.991  19.918  0.00  0.00    +0.000 NA
ENDROOT
BRANCH  13  16
ATOM     16  O   UNL     1       1.819  10.103  17.328  0.00  0.00    +0.000 OA
ATOM     17  H   UNL     1       1.262   9.752  16.622  0.00  0.00    +0.000 HD
ENDBRANCH  13  16
TORSDOF 1
ENDMDL
MODEL 7
REMARK VINA RESULT:      -6.4      3.703      5.652
REMARK  Name = 
REMARK  5 active torsions:
REMARK  status: ('A' for Active; 'I' for Inactive)
REMARK    1  A    between atoms: C_1  and  C_2
REMARK    2  A    between atoms: C_4  and  C_5
REMARK    3  A    between atoms: C_9  and  C_10
REMARK    4  A    between atoms: C_11  and  C_12
REMARK    5  A    between atoms: C_13  and  O_14
REMARK                            x       y       z     vdW  Elec       q    Type
REMARK                         _______ _______ _______ _____ _____    ______ ____
ROOT
ATOM      1  C   UNL     1       2.547   2.856  21.393  0.00  0.00    +0.000 C 
ATOM      2  C   UNL     1       2.751   4.047  20.536  0.00  0.00    +0.000 A 
ATOM      3  C   UNL     1       3.493   4.135  19.344  0.00  0.00    +0.000 A 
ATOM      4  C   UNL     1       3.362   5.440  18.923  0.00  0.00    +0.000 A 
ATOM      5  C   UNL     1       3.972   6.114  17.748  0.00  0.00    +0.000 C 
ATOM      6  N   UNL     1       2.520   6.068  19.840  0.00  0.00    +0.000 N 
ATOM      7  C   UNL     1       1.989   7.412  19.785  0.00  0.00    +0.000 A 
ATOM      8  N   UNL     1       1.291   7.878  20.841  0.00  0.00    +0.000 NA
ATOM      9  C   UNL     1       0.775   9.125  20.765  0.00  0.00    +0.000 A 
ATOM     10  C   UNL     1       0.072   9.599  22.003  0.00  0.00    +0.000 C 
ATOM     11  C   UNL     1       0.905   9.917  19.633  0.00  0.00    +0.000 A 
ATOM     12  C   UNL     1       0.300  11.279  19.506  0.00  0.00    +0.000 C 
ATOM     13  C   UNL     1       1.638   9.341  18.612  0.00  0.00    +0.000 A 
ATOM     14  N   UNL     1       2.197   8.128  18.666  0.00  0.00    +0.000 NA
ATOM     15  N   UNL     1       2.197   5.217  20.864  0.00  0.00    +0.000 NA
ENDROOT
BRANCH  13  16
ATOM     16  O   UNL     1       1.871   9.971  17.424  0.00  0.00    +0.000 OA
ATOM     17  H   UNL     1       1.151  10.588  17.239  0.00  0.00    +0.000 HD
ENDBRANCH  13  16
TORSDOF 1
ENDMDL
MODEL 8
REMARK VINA RESULT:      -6.4      2.129      3.018
REMARK  Name = 
REMARK  5 active torsions:
REMARK  status: ('A' for Active; 'I' for Inactive)
REMARK    1  A    between atoms: C_1  and  C_2
REMARK    2  A    between atoms: C_4  and  C_5
REMARK    3  A    between atoms: C_9  and  C_10
REMARK    4  A    between atoms: C_11  and  C_12
REMARK    5  A    between atoms: C_13  and  O_14
REMARK                            x       y       z     vdW  Elec       q    Type
REMARK                         _______ _______ _______ _____ _____    ______ ____
ROOT
ATOM      1  C   UNL     1       6.824   4.751  14.419  0.00  0.00    +0.000 C 
ATOM      2  C   UNL     1       5.921   5.208  15.502  0.00  0.00    +0.000 A 
ATOM      3  C   UNL     1       5.253   6.441  15.604  0.00  0.00    +0.000 A 
ATOM      4  C   UNL     1       4.531   6.373  16.775  0.00  0.00    +0.000 A 
ATOM      5  C   UNL     1       3.676   7.408  17.413  0.00  0.00    +0.000 C 
ATOM      6  N   UNL     1       4.752   5.102  17.303  0.00  0.00    +0.000 N 
ATOM      7  C   UNL     1       4.137   4.501  18.465  0.00  0.00    +0.000 A 
ATOM      8  N   UNL     1       4.583   3.301  18.889  0.00  0.00    +0.000 NA
ATOM      9  C   UNL     1       3.981   2.737  19.959  0.00  0.00    +0.000 A 
ATOM     10  C   UNL     1       4.576   1.437  20.414  0.00  0.00    +0.000 C 
ATOM     11  C   UNL     1       2.902   3.328  20.604  0.00  0.00    +0.000 A 
ATOM     12  C   UNL     1       2.186   2.699  21.758  0.00  0.00    +0.000 C 
ATOM     13  C   UNL     1       2.528   4.554  20.087  0.00  0.00    +0.000 A 
ATOM     14  N   UNL     1       3.126   5.161  19.057  0.00  0.00    +0.000 NA
ATOM     15  N   UNL     1       5.659   4.412  16.542  0.00  0.00    +0.000 NA
ENDROOT
BRANCH  13  16
ATOM     16  O   UNL     1       1.491   5.283  20.593  0.00  0.00    +0.000 OA
ATOM     17  H   UNL     1       0.689   5.096  20.088  0.00  0.00    +0.000 HD
ENDBRANCH  13  16
TORSDOF 1
ENDMDL
MODEL 9
REMARK VINA RESULT:      -6.3      2.431      3.424
REMARK  Name = 
REMARK  5 active torsions:
REMARK  status: ('A' for Active; 'I' for Inactive)
REMARK    1  A    between atoms: C_1  and  C_2
REMARK    2  A    between atoms: C_4  and  C_5
REMARK    3  A    between atoms: C_9  and  C_10
REMARK    4  A    between atoms: C_11  and  C_12
REMARK    5  A    between atoms: C_13  and  O_14
REMARK                            x       y       z     vdW  Elec       q    Type
REMARK                         _______ _______ _______ _____ _____    ______ ____
ROOT
ATOM      1  C   UNL     1       6.756   5.100  14.274  0.00  0.00    +0.000 C 
ATOM      2  C   UNL     1       5.872   4.836  15.434  0.00  0.00    +0.000 A 
ATOM      3  C   UNL     1       5.722   3.633  16.147  0.00  0.00    +0.000 A 
ATOM      4  C   UNL     1       4.802   3.904  17.136  0.00  0.00    +0.000 A 
ATOM      5  C   UNL     1       4.225   2.991  18.157  0.00  0.00    +0.000 C 
ATOM      6  N   UNL     1       4.472   5.253  17.011  0.00  0.00    +0.000 N 
ATOM      7  C   UNL     1       3.628   6.046  17.877  0.00  0.00    +0.000 A 
ATOM      8  N   UNL     1       3.328   7.309  17.510  0.00  0.00    +0.000 NA
ATOM      9  C   UNL     1       2.562   8.050  18.341  0.00  0.00    +0.000 A 
ATOM     10  C   UNL     1       2.213   9.419  17.835  0.00  0.00    +0.000 C 
ATOM     11  C   UNL     1       2.114   7.573  19.566  0.00  0.00    +0.000 A 
ATOM     12  C   UNL     1       1.310   8.391  20.525  0.00  0.00    +0.000 C 
ATOM     13  C   UNL     1       2.480   6.268  19.840  0.00  0.00    +0.000 A 
ATOM     14  N   UNL     1       3.201   5.492  19.025  0.00  0.00    +0.000 NA
ATOM     15  N   UNL     1       5.091   5.804  15.920  0.00  0.00    +0.000 NA
ENDROOT
BRANCH  13  16
ATOM     16  O   UNL     1       2.130   5.630  20.994  0.00  0.00    +0.000 OA
ATOM     17  H   UNL     1       2.609   4.794  21.059  0.00  0.00    +0.000 HD
ENDBRANCH  13  16
TORSDOF 1
ENDMDL
