MODEL 1
REMARK VINA RESULT:      -6.5      0.000      0.000
REMARK  Name = 
REMARK  1 active torsions:
REMARK  status: ('A' for Active; 'I' for Inactive)
REMARK    1  A    between atoms: N_1  and  C_2
REMARK                            x       y       z     vdW  Elec       q    Type
REMARK                         _______ _______ _______ _____ _____    ______ ____
ROOT
ATOM      1  C   UNL     1       4.203   4.071  17.487  0.00  0.00    +0.000 A 
ATOM      2  C   UNL     1       4.835   4.987  16.619  0.00  0.00    +0.000 A 
ATOM      3  I   UNL     1       6.106   4.340  15.070  0.00  0.00    +0.000 I 
ATOM      4  C   UNL     1       4.629   6.365  16.738  0.00  0.00    +0.000 A 
ATOM      5  C   UNL     1       3.808   6.857  17.749  0.00  0.00    +0.000 A 
ATOM      6  C   UNL     1       3.185   5.973  18.637  0.00  0.00    +0.000 A 
ATOM      7  C   UNL     1       3.382   4.590  18.518  0.00  0.00    +0.000 A 
ATOM      8  C   UNL     1       2.673   3.681  19.457  0.00  0.00    +0.000 C 
ATOM      9  O   UNL     1       2.716   2.459  19.359  0.00  0.00    +0.000 OA
ATOM     10  C   UNL     1       1.844   4.281  20.522  0.00  0.00    +0.000 C 
ATOM     11  C   UNL     1       1.681   5.598  20.634  0.00  0.00    +0.000 C 
ATOM     12  C   UNL     1       2.329   6.535  19.701  0.00  0.00    +0.000 C 
ATOM     13  O   UNL     1       2.151   7.740  19.818  0.00  0.00    +0.000 OA
ENDROOT
BRANCH   1  14
ATOM     14  N   UNL     1       4.572   2.709  17.466  0.00  0.00    +0.000 N 
ATOM     15  H   UNL     1       4.635   2.302  16.538  0.00  0.00    +0.000 HD
ATOM     16  H   UNL     1       4.040   2.133  18.128  0.00  0.00    +0.000 HD
ENDBRANCH   1  14
TORSDOF 1
ENDMDL
MODEL 2
REMARK VINA RESULT:      -6.4      0.900      1.097
REMARK  Name = 
REMARK  1 active torsions:
REMARK  status: ('A' for Active; 'I' for Inactive)
REMARK    1  A    between atoms: N_1  and  C_2
REMARK                            x       y       z     vdW  Elec       q    Type
REMARK                         _______ _______ _______ _____ _____    ______ ____
ROOT
ATOM      1  C   UNL     1       4.067   3.868  17.532  0.00  0.00    +0.000 A 
ATOM      2  C   UNL     1       4.542   5.079  16.986  0.00  0.00    +0.000 A 
ATOM      3  I   UNL     1       5.880   5.104  15.361  0.00  0.00    +0.000 I 
ATOM      4  C   UNL     1       4.129   6.317  17.487  0.00  0.00    +0.000 A 
ATOM      5  C   UNL     1       3.253   6.368  18.568  0.00  0.00    +0.000 A 
ATOM      6  C   UNL     1       2.782   5.182  19.144  0.00  0.00    +0.000 A 
ATOM      7  C   UNL     1       3.187   3.939  18.641  0.00  0.00    +0.000 A 
ATOM      8  C   UNL     1       2.635   2.702  19.255  0.00  0.00    +0.000 C 
ATOM      9  O   UNL     1       2.863   1.581  18.812  0.00  0.00    +0.000 OA
ATOM     10  C   UNL     1       1.735   2.838  20.418  0.00  0.00    +0.000 C 
ATOM     11  C   UNL     1       1.374   4.027  20.898  0.00  0.00    +0.000 C 
ATOM     12  C   UNL     1       1.861   5.279  20.294  0.00  0.00    +0.000 C 
ATOM     13  O   UNL     1       1.503   6.359  20.747  0.00  0.00    +0.000 OA
ENDROOT
BRANCH   1  14
ATOM     14  N   UNL     1       4.639   2.641  17.135  0.00  0.00    +0.000 N 
ATOM     15  H   UNL     1       4.417   2.359  16.185  0.00  0.00    +0.000 HD
ATOM     16  H   UNL     1       4.513   1.890  17.823  0.00  0.00    +0.000 HD
ENDBRANCH   1  14
TORSDOF 1
ENDMDL
MODEL 3
REMARK VINA RESULT:      -6.4      1.792      2.207
REMARK  Name = 
REMARK  1 active torsions:
REMARK  status: ('A' for Active; 'I' for Inactive)
REMARK    1  A    between atoms: N_1  and  C_2
REMARK                            x       y       z     vdW  Elec       q    Type
REMARK                         _______ _______ _______ _____ _____    ______ ____
ROOT
ATOM      1  C   UNL     1       4.710   4.198  18.545  0.00  0.00    +0.000 A 
ATOM      2  C   UNL     1       4.422   5.274  17.677  0.00  0.00    +0.000 A 
ATOM      3  I   UNL     1       5.827   5.954  16.264  0.00  0.00    +0.000 I 
ATOM      4  C   UNL     1       3.184   5.922  17.704  0.00  0.00    +0.000 A 
ATOM      5  C   UNL     1       2.216   5.526  18.624  0.00  0.00    +0.000 A 
ATOM      6  C   UNL     1       2.482   4.476  19.511  0.00  0.00    +0.000 A 
ATOM      7  C   UNL     1       3.719   3.818  19.483  0.00  0.00    +0.000 A 
ATOM      8  C   UNL     1       3.949   2.682  20.415  0.00  0.00    +0.000 C 
ATOM      9  O   UNL     1       4.965   1.996  20.388  0.00  0.00    +0.000 OA
ATOM     10  C   UNL     1       2.885   2.343  21.382  0.00  0.00    +0.000 C 
ATOM     11  C   UNL     1       1.721   2.990  21.409  0.00  0.00    +0.000 C 
ATOM     12  C   UNL     1       1.432   4.092  20.476  0.00  0.00    +0.000 C 
ATOM     13  O   UNL     1       0.349   4.660  20.514  0.00  0.00    +0.000 OA
ENDROOT
BRANCH   1  14
ATOM     14  N   UNL     1       6.023   3.688  18.626  0.00  0.00    +0.000 N 
ATOM     15  H   UNL     1       6.648   4.221  19.221  0.00  0.00    +0.000 HD
ATOM     16  H   UNL     1       6.429   3.459  17.711  0.00  0.00    +0.000 HD
ENDBRANCH   1  14
TORSDOF 1
ENDMDL
MODEL 4
REMARK VINA RESULT:      -6.3      2.979      4.894
REMARK  Name = 
REMARK  1 active torsions:
REMARK  status: ('A' for Active; 'I' for Inactive)
REMARK    1  A    between atoms: N_1  and  C_2
REMARK                            x       y       z     vdW  Elec       q    Type
REMARK                         _______ _______ _______ _____ _____    ______ ____
ROOT
ATOM      1  C   UNL     1       3.084   4.950  19.127  0.00  0.00    +0.000 A 
ATOM      2  C   UNL     1       2.928   3.609  19.540  0.00  0.00    +0.000 A 
ATOM      3  I   UNL     1       1.812   3.108  21.254  0.00  0.00    +0.000 I 
ATOM      4  C   UNL     1       3.491   2.553  18.817  0.00  0.00    +0.000 A 
ATOM      5  C   UNL     1       4.250   2.820  17.681  0.00  0.00    +0.000 A 
ATOM      6  C   UNL     1       4.439   4.142  17.260  0.00  0.00    +0.000 A 
ATOM      7  C   UNL     1       3.871   5.203  17.977  0.00  0.00    +0.000 A 
ATOM      8  C   UNL     1       4.062   6.591  17.476  0.00  0.00    +0.000 C 
ATOM      9  O   UNL     1       3.520   7.564  17.989  0.00  0.00    +0.000 OA
ATOM     10  C   UNL     1       4.906   6.794  16.281  0.00  0.00    +0.000 C 
ATOM     11  C   UNL     1       5.456   5.776  15.621  0.00  0.00    +0.000 C 
ATOM     12  C   UNL     1       5.257   4.383  16.054  0.00  0.00    +0.000 C 
ATOM     13  O   UNL     1       5.763   3.465  15.422  0.00  0.00    +0.000 OA
ENDROOT
BRANCH   1  14
ATOM     14  N   UNL     1       2.668   6.001  19.971  0.00  0.00    +0.000 N 
ATOM     15  H   UNL     1       1.905   5.766  20.596  0.00  0.00    +0.000 HD
ATOM     16  H   UNL     1       2.530   6.891  19.476  0.00  0.00    +0.000 HD
ENDBRANCH   1  14
TORSDOF 1
ENDMDL
MODEL 5
REMARK VINA RESULT:      -6.1      1.458      3.067
REMARK  Name = 
REMARK  1 active torsions:
REMARK  status: ('A' for Active; 'I' for Inactive)
REMARK    1  A    between atoms: N_1  and  C_2
REMARK                            x       y       z     vdW  Elec       q    Type
REMARK                         _______ _______ _______ _____ _____    ______ ____
ROOT
ATOM      1  C   UNL     1       3.969   5.476  17.651  0.00  0.00    +0.000 A 
ATOM      2  C   UNL     1       4.567   4.549  16.770  0.00  0.00    +0.000 A 
ATOM      3  I   UNL     1       5.930   5.160  15.287  0.00  0.00    +0.000 I 
ATOM      4  C   UNL     1       4.294   3.180  16.858  0.00  0.00    +0.000 A 
ATOM      5  C   UNL     1       3.392   2.714  17.810  0.00  0.00    +0.000 A 
ATOM      6  C   UNL     1       2.768   3.614  18.683  0.00  0.00    +0.000 A 
ATOM      7  C   UNL     1       3.044   4.986  18.605  0.00  0.00    +0.000 A 
ATOM      8  C   UNL     1       2.391   5.906  19.575  0.00  0.00    +0.000 C 
ATOM      9  O   UNL     1       2.651   7.103  19.635  0.00  0.00    +0.000 OA
ATOM     10  C   UNL     1       1.423   5.338  20.535  0.00  0.00    +0.000 C 
ATOM     11  C   UNL     1       1.157   4.034  20.585  0.00  0.00    +0.000 C 
ATOM     12  C   UNL     1       1.812   3.081  19.674  0.00  0.00    +0.000 C 
ATOM     13  O   UNL     1       1.559   1.885  19.750  0.00  0.00    +0.000 OA
ENDROOT
BRANCH   1  14
ATOM     14  N   UNL     1       4.115   6.861  17.423  0.00  0.00    +0.000 N 
ATOM     15  H   UNL     1       3.537   7.450  18.014  0.00  0.00    +0.000 HD
ATOM     16  H   UNL     1       4.076   7.118  16.430  0.00  0.00    +0.000 HD
ENDBRANCH   1  14
TORSDOF 1
ENDMDL
MODEL 6
REMARK VINA RESULT:      -6.0      2.500      2.641
REMARK  Name = 
REMARK  1 active torsions:
REMARK  status: ('A' for Active; 'I' for Inactive)
REMARK    1  A    between atoms: N_1  and  C_2
REMARK                            x       y       z     vdW  Elec       q    Type
REMARK                         _______ _______ _______ _____ _____    ______ ____
ROOT
ATOM      1  C   UNL     1       5.599   4.968  18.623  0.00  0.00    +0.000 A 
ATOM      2  C   UNL     1       5.658   6.126  17.818  0.00  0.00    +0.000 A 
ATOM      3  I   UNL     1       7.413   7.279  17.675  0.00  0.00    +0.000 I 
ATOM      4  C   UNL     1       4.558   6.547  17.064  0.00  0.00    +0.000 A 
ATOM      5  C   UNL     1       3.364   5.833  17.124  0.00  0.00    +0.000 A 
ATOM      6  C   UNL     1       3.271   4.692  17.930  0.00  0.00    +0.000 A 
ATOM      7  C   UNL     1       4.372   4.262  18.682  0.00  0.00    +0.000 A 
ATOM      8  C   UNL     1       4.245   3.024  19.497  0.00  0.00    +0.000 C 
ATOM      9  O   UNL     1       5.187   2.529  20.105  0.00  0.00    +0.000 OA
ATOM     10  C   UNL     1       2.936   2.340  19.533  0.00  0.00    +0.000 C 
ATOM     11  C   UNL     1       1.892   2.772  18.827  0.00  0.00    +0.000 C 
ATOM     12  C   UNL     1       1.985   3.967  17.972  0.00  0.00    +0.000 C 
ATOM     13  O   UNL     1       1.013   4.335  17.323  0.00  0.00    +0.000 OA
ENDROOT
BRANCH   1  14
ATOM     14  N   UNL     1       6.652   4.672  19.513  0.00  0.00    +0.000 N 
ATOM     15  H   UNL     1       6.965   3.707  19.493  0.00  0.00    +0.000 HD
ATOM     16  H   UNL     1       6.497   5.031  20.462  0.00  0.00    +0.000 HD
ENDBRANCH   1  14
TORSDOF 1
ENDMDL
MODEL 7
REMARK VINA RESULT:      -6.0      2.773      4.029
REMARK  Name = 
REMARK  1 active torsions:
REMARK  status: ('A' for Active; 'I' for Inactive)
REMARK    1  A    between atoms: N_1  and  C_2
REMARK                            x       y       z     vdW  Elec       q    Type
REMARK                         _______ _______ _______ _____ _____    ______ ____
ROOT
ATOM      1  C   UNL     1       4.137   4.022  19.531  0.00  0.00    +0.000 A 
ATOM      2  C   UNL     1       2.831   4.106  20.061  0.00  0.00    +0.000 A 
ATOM      3  I   UNL     1       2.092   2.662  21.403  0.00  0.00    +0.000 I 
ATOM      4  C   UNL     1       1.978   5.165  19.734  0.00  0.00    +0.000 A 
ATOM      5  C   UNL     1       2.404   6.146  18.844  0.00  0.00    +0.000 A 
ATOM      6  C   UNL     1       3.687   6.077  18.286  0.00  0.00    +0.000 A 
ATOM      7  C   UNL     1       4.548   5.022  18.615  0.00  0.00    +0.000 A 
ATOM      8  C   UNL     1       5.916   5.004  18.032  0.00  0.00    +0.000 C 
ATOM      9  O   UNL     1       6.761   4.171  18.344  0.00  0.00    +0.000 OA
ATOM     10  C   UNL     1       6.282   6.064  17.071  0.00  0.00    +0.000 C 
ATOM     11  C   UNL     1       5.445   7.050  16.753  0.00  0.00    +0.000 C 
ATOM     12  C   UNL     1       4.097   7.133  17.339  0.00  0.00    +0.000 C 
ATOM     13  O   UNL     1       3.353   8.058  17.039  0.00  0.00    +0.000 OA
ENDROOT
BRANCH   1  14
ATOM     14  N   UNL     1       4.905   2.855  19.727  0.00  0.00    +0.000 N 
ATOM     15  H   UNL     1       5.035   2.289  18.894  0.00  0.00    +0.000 HD
ATOM     16  H   UNL     1       4.616   2.310  20.548  0.00  0.00    +0.000 HD
ENDBRANCH   1  14
TORSDOF 1
ENDMDL
MODEL 8
REMARK VINA RESULT:      -5.8      3.286      4.384
REMARK  Name = 
REMARK  1 active torsions:
REMARK  status: ('A' for Active; 'I' for Inactive)
REMARK    1  A    between atoms: N_1  and  C_2
REMARK                            x       y       z     vdW  Elec       q    Type
REMARK                         _______ _______ _______ _____ _____    ______ ____
ROOT
ATOM      1  C   UNL     1       4.700   3.994  19.192  0.00  0.00    +0.000 A 
ATOM      2  C   UNL     1       3.495   3.586  18.582  0.00  0.00    +0.000 A 
ATOM      3  I   UNL     1       2.230   2.166  19.485  0.00  0.00    +0.000 I 
ATOM      4  C   UNL     1       3.078   4.122  17.360  0.00  0.00    +0.000 A 
ATOM      5  C   UNL     1       3.876   5.057  16.707  0.00  0.00    +0.000 A 
ATOM      6  C   UNL     1       5.087   5.465  17.278  0.00  0.00    +0.000 A 
ATOM      7  C   UNL     1       5.506   4.937  18.507  0.00  0.00    +0.000 A 
ATOM      8  C   UNL     1       6.780   5.424  19.100  0.00  0.00    +0.000 C 
ATOM      9  O   UNL     1       7.168   5.084  20.213  0.00  0.00    +0.000 OA
ATOM     10  C   UNL     1       7.585   6.394  18.331  0.00  0.00    +0.000 C 
ATOM     11  C   UNL     1       7.183   6.873  17.155  0.00  0.00    +0.000 C 
ATOM     12  C   UNL     1       5.908   6.453  16.550  0.00  0.00    +0.000 C 
ATOM     13  O   UNL     1       5.556   6.919  15.474  0.00  0.00    +0.000 OA
ENDROOT
BRANCH   1  14
ATOM     14  N   UNL     1       5.187   3.307  20.324  0.00  0.00    +0.000 N 
ATOM     15  H   UNL     1       5.734   2.479  20.113  0.00  0.00    +0.000 HD
ATOM     16  H   UNL     1       4.473   3.151  21.045  0.00  0.00    +0.000 HD
ENDBRANCH   1  14
TORSDOF 1
ENDMDL
MODEL 9
REMARK VINA RESULT:      -5.8      3.199      4.248
REMARK  Name = 
REMARK  1 active torsions:
REMARK  status: ('A' for Active; 'I' for Inactive)
REMARK    1  A    between atoms: N_1  and  C_2
REMARK                            x       y       z     vdW  Elec       q    Type
REMARK                         _______ _______ _______ _____ _____    ______ ____
ROOT
ATOM      1  C   UNL     1       2.747   6.280  19.732  0.00  0.00    +0.000 A 
ATOM      2  C   UNL     1       2.192   7.569  19.574  0.00  0.00    +0.000 A 
ATOM      3  I   UNL     1       0.895   8.394  21.012  0.00  0.00    +0.000 I 
ATOM      4  C   UNL     1       2.495   8.361  18.462  0.00  0.00    +0.000 A 
ATOM      5  C   UNL     1       3.338   7.868  17.470  0.00  0.00    +0.000 A 
ATOM      6  C   UNL     1       3.886   6.585  17.591  0.00  0.00    +0.000 A 
ATOM      7  C   UNL     1       3.591   5.789  18.706  0.00  0.00    +0.000 A 
ATOM      8  C   UNL     1       4.223   4.448  18.817  0.00  0.00    +0.000 C 
ATOM      9  O   UNL     1       4.093   3.731  19.804  0.00  0.00    +0.000 OA
ATOM     10  C   UNL     1       5.081   3.983  17.708  0.00  0.00    +0.000 C 
ATOM     11  C   UNL     1       5.337   4.744  16.645  0.00  0.00    +0.000 C 
ATOM     12  C   UNL     1       4.769   6.096  16.513  0.00  0.00    +0.000 C 
ATOM     13  O   UNL     1       5.031   6.779  15.532  0.00  0.00    +0.000 OA
ENDROOT
BRANCH   1  14
ATOM     14  N   UNL     1       2.282   5.433  20.760  0.00  0.00    +0.000 N 
ATOM     15  H   UNL     1       2.368   5.815  21.696  0.00  0.00    +0.000 HD
ATOM     16  H   UNL     1       2.626   4.469  20.680  0.00  0.00    +0.000 HD
ENDBRANCH   1  14
TORSDOF 1
ENDMDL
