MODEL 1
REMARK VINA RESULT:      -9.5      0.000      0.000
REMARK  Name = 
REMARK  7 active torsions:
REMARK  status: ('A' for Active; 'I' for Inactive)
REMARK    1  A    between atoms: N_1  and  C_2
REMARK    2  A    between atoms: C_5  and  C_6
REMARK    3  A    between atoms: N_8  and  C_9
REMARK    4  A    between atoms: C_13  and  N_14
REMARK    5  A    between atoms: C_15  and  C_17
REMARK    6  A    between atoms: C_17  and  O_18
REMARK    7  A    between atoms: O_18  and  C_19
REMARK                            x       y       z     vdW  Elec       q    Type
REMARK                         _______ _______ _______ _____ _____    ______ ____
ROOT
ATOM      1  C   UNL     1       6.384   6.595  16.938  0.00  0.00    +0.000 A 
ATOM      2  C   UNL     1       6.014   6.152  15.661  0.00  0.00    +0.000 A 
ATOM      3  C   UNL     1       5.493   4.863  15.471  0.00  0.00    +0.000 A 
ATOM      4  C   UNL     1       5.343   4.017  16.565  0.00  0.00    +0.000 A 
ATOM      5  C   UNL     1       5.672   4.463  17.848  0.00  0.00    +0.000 A 
ATOM      6  C   UNL     1       6.161   5.757  18.040  0.00  0.00    +0.000 A 
ENDROOT
BRANCH   1   9
ATOM      7  C   UNL     1       8.016   8.087  18.099  0.00  0.00    +0.000 C 
ATOM      8  O   UNL     1       8.533   7.226  18.805  0.00  0.00    +0.000 OA
ATOM      9  N   UNL     1       7.007   7.846  17.164  0.00  0.00    +0.000 N 
ATOM     10  H   UNL     1       6.543   8.642  16.758  0.00  0.00    +0.000 HD
BRANCH   7  14
ATOM     11  C   UNL     1       9.466  12.112  18.797  0.00  0.00    +0.000 A 
ATOM     12  C   UNL     1       9.775  11.063  19.657  0.00  0.00    +0.000 A 
ATOM     13  C   UNL     1       9.302   9.771  19.399  0.00  0.00    +0.000 A 
ATOM     14  C   UNL     1       8.475   9.506  18.294  0.00  0.00    +0.000 A 
ATOM     15  C   UNL     1       8.106  10.576  17.471  0.00  0.00    +0.000 A 
ATOM     16  C   UNL     1       8.593  11.869  17.733  0.00  0.00    +0.000 A 
BRANCH  11  17
ATOM     17  N   UNL     1       9.825  13.424  19.127  0.00  0.00    +0.000 N 
ATOM     18  H   UNL     1       9.047  14.003  19.428  0.00  0.00    +0.000 HD
ATOM     19  H   UNL     1      10.618  13.489  19.758  0.00  0.00    +0.000 HD
ENDBRANCH  11  17
ENDBRANCH   7  14
ENDBRANCH   1   9
BRANCH   5  20
ATOM     20  N   UNL     1       5.642   3.548  18.908  0.00  0.00    +0.000 N 
ATOM     21  C   UNL     1       4.535   2.959  19.458  0.00  0.00    +0.000 C 
ATOM     22  O   UNL     1       4.661   2.182  20.402  0.00  0.00    +0.000 OA
ATOM     23  H   UNL     1       6.493   3.399  19.435  0.00  0.00    +0.000 HD
BRANCH  21  24
ATOM     24  C   UNL     1       3.163   3.324  18.902  0.00  0.00    +0.000 C 
BRANCH  24  25
ATOM     25  O   UNL     1       2.503   4.035  19.954  0.00  0.00    +0.000 OA
BRANCH  25  26
ATOM     26  C   UNL     1       2.339   5.370  19.758  0.00  0.00    +0.000 A 
ATOM     27  C   UNL     1       2.733   5.800  18.477  0.00  0.00    +0.000 A 
ATOM     28  C   UNL     1       2.530   7.127  18.083  0.00  0.00    +0.000 A 
ATOM     29  C   UNL     1       1.976   8.013  19.010  0.00  0.00    +0.000 A 
ATOM     30  C   UNL     1       1.528   9.361  18.586  0.00  0.00    +0.000 A 
ATOM     31  O   UNL     1       1.727   9.824  17.499  0.00  0.00    +0.000 OA
ATOM     32  C   UNL     1       0.746  10.066  19.623  0.00  0.00    +0.000 A 
ATOM     33  C   UNL     1       0.958   9.754  20.900  0.00  0.00    +0.000 A 
ATOM     34  O   UNL     1       1.443   8.531  21.309  0.00  0.00    +0.000 OA
ATOM     35  C   UNL     1       1.720   7.620  20.316  0.00  0.00    +0.000 A 
ATOM     36  C   UNL     1       1.845   6.288  20.674  0.00  0.00    +0.000 A 
ENDBRANCH  25  26
ENDBRANCH  24  25
ENDBRANCH  21  24
ENDBRANCH   5  20
TORSDOF 7
ENDMDL
MODEL 2
REMARK VINA RESULT:      -9.0      4.103      7.925
REMARK  Name = 
REMARK  7 active torsions:
REMARK  status: ('A' for Active; 'I' for Inactive)
REMARK    1  A    between atoms: N_1  and  C_2
REMARK    2  A    between atoms: C_5  and  C_6
REMARK    3  A    between atoms: N_8  and  C_9
REMARK    4  A    between atoms: C_13  and  N_14
REMARK    5  A    between atoms: C_15  and  C_17
REMARK    6  A    between atoms: C_17  and  O_18
REMARK    7  A    between atoms: O_18  and  C_19
REMARK                            x       y       z     vdW  Elec       q    Type
REMARK                         _______ _______ _______ _____ _____    ______ ____
ROOT
ATOM      1  C   UNL     1       0.415   9.271  20.499  0.00  0.00    +0.000 A 
ATOM      2  C   UNL     1       1.051   9.556  19.282  0.00  0.00    +0.000 A 
ATOM      3  C   UNL     1       1.967   8.653  18.722  0.00  0.00    +0.000 A 
ATOM      4  C   UNL     1       2.245   7.461  19.383  0.00  0.00    +0.000 A 
ATOM      5  C   UNL     1       1.588   7.150  20.577  0.00  0.00    +0.000 A 
ATOM      6  C   UNL     1       0.653   8.036  21.117  0.00  0.00    +0.000 A 
ENDROOT
BRANCH   1   9
ATOM      7  C   UNL     1      -0.034  11.414  21.699  0.00  0.00    +0.000 C 
ATOM      8  O   UNL     1       1.104  11.869  21.630  0.00  0.00    +0.000 OA
ATOM      9  N   UNL     1      -0.436  10.194  21.152  0.00  0.00    +0.000 N 
ATOM     10  H   UNL     1      -1.345   9.842  21.406  0.00  0.00    +0.000 HD
BRANCH   7  14
ATOM     11  C   UNL     1      -2.866  13.878  23.868  0.00  0.00    +0.000 A 
ATOM     12  C   UNL     1      -1.662  14.390  23.393  0.00  0.00    +0.000 A 
ATOM     13  C   UNL     1      -0.773  13.573  22.686  0.00  0.00    +0.000 A 
ATOM     14  C   UNL     1      -1.049  12.212  22.470  0.00  0.00    +0.000 A 
ATOM     15  C   UNL     1      -2.226  11.682  23.011  0.00  0.00    +0.000 A 
ATOM     16  C   UNL     1      -3.118  12.512  23.713  0.00  0.00    +0.000 A 
BRANCH  11  17
ATOM     17  N   UNL     1      -3.689  14.657  24.688  0.00  0.00    +0.000 N 
ATOM     18  H   UNL     1      -3.581  14.471  25.681  0.00  0.00    +0.000 HD
ATOM     19  H   UNL     1      -3.661  15.650  24.479  0.00  0.00    +0.000 HD
ENDBRANCH  11  17
ENDBRANCH   7  14
ENDBRANCH   1   9
BRANCH   5  20
ATOM     20  N   UNL     1       1.987   6.013  21.289  0.00  0.00    +0.000 N 
ATOM     21  C   UNL     1       1.988   4.718  20.844  0.00  0.00    +0.000 C 
ATOM     22  O   UNL     1       2.353   3.813  21.592  0.00  0.00    +0.000 OA
ATOM     23  H   UNL     1       2.162   6.107  22.282  0.00  0.00    +0.000 HD
BRANCH  21  24
ATOM     24  C   UNL     1       1.487   4.432  19.433  0.00  0.00    +0.000 C 
BRANCH  24  25
ATOM     25  O   UNL     1       2.419   3.499  18.879  0.00  0.00    +0.000 OA
BRANCH  25  26
ATOM     26  C   UNL     1       3.626   4.008  18.518  0.00  0.00    +0.000 A 
ATOM     27  C   UNL     1       3.814   4.067  17.124  0.00  0.00    +0.000 A 
ATOM     28  C   UNL     1       4.962   4.662  16.590  0.00  0.00    +0.000 A 
ATOM     29  C   UNL     1       5.928   5.145  17.476  0.00  0.00    +0.000 A 
ATOM     30  C   UNL     1       7.048   5.983  16.983  0.00  0.00    +0.000 A 
ATOM     31  O   UNL     1       7.278   6.182  15.825  0.00  0.00    +0.000 OA
ATOM     32  C   UNL     1       7.826   6.609  18.071  0.00  0.00    +0.000 A 
ATOM     33  C   UNL     1       7.853   6.009  19.260  0.00  0.00    +0.000 A 
ATOM     34  O   UNL     1       6.857   5.169  19.706  0.00  0.00    +0.000 OA
ATOM     35  C   UNL     1       5.804   4.958  18.845  0.00  0.00    +0.000 A 
ATOM     36  C   UNL     1       4.630   4.444  19.370  0.00  0.00    +0.000 A 
ENDBRANCH  25  26
ENDBRANCH  24  25
ENDBRANCH  21  24
ENDBRANCH   5  20
TORSDOF 7
ENDMDL
MODEL 3
REMARK VINA RESULT:      -8.9      3.844      7.522
REMARK  Name = 
REMARK  7 active torsions:
REMARK  status: ('A' for Active; 'I' for Inactive)
REMARK    1  A    between atoms: N_1  and  C_2
REMARK    2  A    between atoms: C_5  and  C_6
REMARK    3  A    between atoms: N_8  and  C_9
REMARK    4  A    between atoms: C_13  and  N_14
REMARK    5  A    between atoms: C_15  and  C_17
REMARK    6  A    between atoms: C_17  and  O_18
REMARK    7  A    between atoms: O_18  and  C_19
REMARK                            x       y       z     vdW  Elec       q    Type
REMARK                         _______ _______ _______ _____ _____    ______ ____
ROOT
ATOM      1  C   UNL     1       0.869   9.415  19.425  0.00  0.00    +0.000 A 
ATOM      2  C   UNL     1       1.666   9.457  18.272  0.00  0.00    +0.000 A 
ATOM      3  C   UNL     1       2.571   8.425  17.987  0.00  0.00    +0.000 A 
ATOM      4  C   UNL     1       2.678   7.347  18.861  0.00  0.00    +0.000 A 
ATOM      5  C   UNL     1       1.861   7.276  19.992  0.00  0.00    +0.000 A 
ATOM      6  C   UNL     1       0.938   8.289  20.258  0.00  0.00    +0.000 A 
ENDROOT
BRANCH   1   9
ATOM      7  C   UNL     1       0.313  11.442  20.773  0.00  0.00    +0.000 C 
ATOM      8  O   UNL     1       1.379  11.522  21.376  0.00  0.00    +0.000 OA
ATOM      9  N   UNL     1       0.017  10.479  19.807  0.00  0.00    +0.000 N 
ATOM     10  H   UNL     1      -0.938  10.403  19.495  0.00  0.00    +0.000 HD
BRANCH   7  14
ATOM     11  C   UNL     1      -2.679  14.331  21.996  0.00  0.00    +0.000 A 
ATOM     12  C   UNL     1      -1.646  13.943  22.843  0.00  0.00    +0.000 A 
ATOM     13  C   UNL     1      -0.687  13.017  22.416  0.00  0.00    +0.000 A 
ATOM     14  C   UNL     1      -0.762  12.426  21.143  0.00  0.00    +0.000 A 
ATOM     15  C   UNL     1      -1.843  12.763  20.320  0.00  0.00    +0.000 A 
ATOM     16  C   UNL     1      -2.797  13.701  20.754  0.00  0.00    +0.000 A 
BRANCH  11  17
ATOM     17  N   UNL     1      -3.709  15.151  22.469  0.00  0.00    +0.000 N 
ATOM     18  H   UNL     1      -3.742  16.068  22.034  0.00  0.00    +0.000 HD
ATOM     19  H   UNL     1      -4.620  14.702  22.488  0.00  0.00    +0.000 HD
ENDBRANCH  11  17
ENDBRANCH   7  14
ENDBRANCH   1   9
BRANCH   5  20
ATOM     20  N   UNL     1       2.087   6.255  20.923  0.00  0.00    +0.000 N 
ATOM     21  C   UNL     1       1.952   4.908  20.718  0.00  0.00    +0.000 C 
ATOM     22  O   UNL     1       2.170   4.124  21.640  0.00  0.00    +0.000 OA
ATOM     23  H   UNL     1       2.224   6.513  21.893  0.00  0.00    +0.000 HD
BRANCH  21  24
ATOM     24  C   UNL     1       1.489   4.421  19.350  0.00  0.00    +0.000 C 
BRANCH  24  25
ATOM     25  O   UNL     1       2.472   3.470  18.930  0.00  0.00    +0.000 OA
BRANCH  25  26
ATOM     26  C   UNL     1       3.676   3.983  18.562  0.00  0.00    +0.000 A 
ATOM     27  C   UNL     1       3.842   4.074  17.168  0.00  0.00    +0.000 A 
ATOM     28  C   UNL     1       4.984   4.677  16.630  0.00  0.00    +0.000 A 
ATOM     29  C   UNL     1       5.966   5.135  17.512  0.00  0.00    +0.000 A 
ATOM     30  C   UNL     1       7.082   5.979  17.022  0.00  0.00    +0.000 A 
ATOM     31  O   UNL     1       7.295   6.205  15.864  0.00  0.00    +0.000 OA
ATOM     32  C   UNL     1       7.880   6.577  18.112  0.00  0.00    +0.000 A 
ATOM     33  C   UNL     1       7.923   5.949  19.286  0.00  0.00    +0.000 A 
ATOM     34  O   UNL     1       6.930   5.102  19.727  0.00  0.00    +0.000 OA
ATOM     35  C   UNL     1       5.863   4.916  18.878  0.00  0.00    +0.000 A 
ATOM     36  C   UNL     1       4.695   4.394  19.409  0.00  0.00    +0.000 A 
ENDBRANCH  25  26
ENDBRANCH  24  25
ENDBRANCH  21  24
ENDBRANCH   5  20
TORSDOF 7
ENDMDL
MODEL 4
REMARK VINA RESULT:      -8.8      1.106      1.206
REMARK  Name = 
REMARK  7 active torsions:
REMARK  status: ('A' for Active; 'I' for Inactive)
REMARK    1  A    between atoms: N_1  and  C_2
REMARK    2  A    between atoms: C_5  and  C_6
REMARK    3  A    between atoms: N_8  and  C_9
REMARK    4  A    between atoms: C_13  and  N_14
REMARK    5  A    between atoms: C_15  and  C_17
REMARK    6  A    between atoms: C_17  and  O_18
REMARK    7  A    between atoms: O_18  and  C_19
REMARK                            x       y       z     vdW  Elec       q    Type
REMARK                         _______ _______ _______ _____ _____    ______ ____
ROOT
ATOM      1  C   UNL     1       7.437   6.733  17.909  0.00  0.00    +0.000 A 
ATOM      2  C   UNL     1       7.263   6.455  16.546  0.00  0.00    +0.000 A 
ATOM      3  C   UNL     1       6.547   5.322  16.130  0.00  0.00    +0.000 A 
ATOM      4  C   UNL     1       6.005   4.467  17.084  0.00  0.00    +0.000 A 
ATOM      5  C   UNL     1       6.139   4.756  18.445  0.00  0.00    +0.000 A 
ATOM      6  C   UNL     1       6.825   5.900  18.857  0.00  0.00    +0.000 A 
ENDROOT
BRANCH   1   9
ATOM      7  C   UNL     1       8.088   9.142  18.001  0.00  0.00    +0.000 C 
ATOM      8  O   UNL     1       7.207   9.567  17.260  0.00  0.00    +0.000 OA
ATOM      9  N   UNL     1       8.235   7.805  18.376  0.00  0.00    +0.000 N 
ATOM     10  H   UNL     1       9.082   7.540  18.852  0.00  0.00    +0.000 HD
BRANCH   7  14
ATOM     11  C   UNL     1      10.991  11.927  19.619  0.00  0.00    +0.000 A 
ATOM     12  C   UNL     1      10.105  11.233  20.438  0.00  0.00    +0.000 A 
ATOM     13  C   UNL     1       9.187  10.331  19.888  0.00  0.00    +0.000 A 
ATOM     14  C   UNL     1       9.106  10.131  18.499  0.00  0.00    +0.000 A 
ATOM     15  C   UNL     1       9.948  10.883  17.672  0.00  0.00    +0.000 A 
ATOM     16  C   UNL     1      10.873  11.781  18.234  0.00  0.00    +0.000 A 
BRANCH  11  17
ATOM     17  N   UNL     1      11.813  12.924  20.154  0.00  0.00    +0.000 N 
ATOM     18  H   UNL     1      11.614  13.857  19.806  0.00  0.00    +0.000 HD
ATOM     19  H   UNL     1      11.887  12.900  21.166  0.00  0.00    +0.000 HD
ENDBRANCH  11  17
ENDBRANCH   7  14
ENDBRANCH   1   9
BRANCH   5  20
ATOM     20  N   UNL     1       5.705   3.809  19.380  0.00  0.00    +0.000 N 
ATOM     21  C   UNL     1       4.472   3.219  19.446  0.00  0.00    +0.000 C 
ATOM     22  O   UNL     1       4.226   2.412  20.340  0.00  0.00    +0.000 OA
ATOM     23  H   UNL     1       6.291   3.631  20.187  0.00  0.00    +0.000 HD
BRANCH  21  24
ATOM     24  C   UNL     1       3.416   3.621  18.422  0.00  0.00    +0.000 C 
BRANCH  24  25
ATOM     25  O   UNL     1       2.300   4.086  19.188  0.00  0.00    +0.000 OA
BRANCH  25  26
ATOM     26  C   UNL     1       2.178   5.435  19.302  0.00  0.00    +0.000 A 
ATOM     27  C   UNL     1       2.543   6.131  18.136  0.00  0.00    +0.000 A 
ATOM     28  C   UNL     1       2.374   7.518  18.058  0.00  0.00    +0.000 A 
ATOM     29  C   UNL     1       1.885   8.187  19.182  0.00  0.00    +0.000 A 
ATOM     30  C   UNL     1       1.471   9.607  19.090  0.00  0.00    +0.000 A 
ATOM     31  O   UNL     1       1.650  10.298  18.127  0.00  0.00    +0.000 OA
ATOM     32  C   UNL     1       0.751  10.082  20.289  0.00  0.00    +0.000 A 
ATOM     33  C   UNL     1       0.995   9.484  21.455  0.00  0.00    +0.000 A 
ATOM     34  O   UNL     1       1.450   8.188  21.559  0.00  0.00    +0.000 OA
ATOM     35  C   UNL     1       1.660   7.517  20.375  0.00  0.00    +0.000 A 
ATOM     36  C   UNL     1       1.749   6.135  20.421  0.00  0.00    +0.000 A 
ENDBRANCH  25  26
ENDBRANCH  24  25
ENDBRANCH  21  24
ENDBRANCH   5  20
TORSDOF 7
ENDMDL
MODEL 5
REMARK VINA RESULT:      -8.8      3.707      7.506
REMARK  Name = 
REMARK  7 active torsions:
REMARK  status: ('A' for Active; 'I' for Inactive)
REMARK    1  A    between atoms: N_1  and  C_2
REMARK    2  A    between atoms: C_5  and  C_6
REMARK    3  A    between atoms: N_8  and  C_9
REMARK    4  A    between atoms: C_13  and  N_14
REMARK    5  A    between atoms: C_15  and  C_17
REMARK    6  A    between atoms: C_17  and  O_18
REMARK    7  A    between atoms: O_18  and  C_19
REMARK                            x       y       z     vdW  Elec       q    Type
REMARK                         _______ _______ _______ _____ _____    ______ ____
ROOT
ATOM      1  C   UNL     1       1.169   9.315  19.498  0.00  0.00    +0.000 A 
ATOM      2  C   UNL     1       1.832   9.228  18.266  0.00  0.00    +0.000 A 
ATOM      3  C   UNL     1       2.559   8.079  17.922  0.00  0.00    +0.000 A 
ATOM      4  C   UNL     1       2.620   7.014  18.816  0.00  0.00    +0.000 A 
ATOM      5  C   UNL     1       1.930   7.075  20.030  0.00  0.00    +0.000 A 
ATOM      6  C   UNL     1       1.182   8.208  20.357  0.00  0.00    +0.000 A 
ENDROOT
BRANCH   1   9
ATOM      7  C   UNL     1      -0.776  10.881  19.551  0.00  0.00    +0.000 C 
ATOM      8  O   UNL     1      -1.523  10.221  18.835  0.00  0.00    +0.000 OA
ATOM      9  N   UNL     1       0.509  10.491  19.932  0.00  0.00    +0.000 N 
ATOM     10  H   UNL     1       1.094  11.175  20.383  0.00  0.00    +0.000 HD
BRANCH   7  14
ATOM     11  C   UNL     1      -2.378  14.674  20.910  0.00  0.00    +0.000 A 
ATOM     12  C   UNL     1      -3.200  13.579  20.658  0.00  0.00    +0.000 A 
ATOM     13  C   UNL     1      -2.652  12.363  20.231  0.00  0.00    +0.000 A 
ATOM     14  C   UNL     1      -1.271  12.225  20.009  0.00  0.00    +0.000 A 
ATOM     15  C   UNL     1      -0.455  13.347  20.193  0.00  0.00    +0.000 A 
ATOM     16  C   UNL     1      -1.013  14.563  20.630  0.00  0.00    +0.000 A 
BRANCH  11  17
ATOM     17  N   UNL     1      -2.936  15.922  21.204  0.00  0.00    +0.000 N 
ATOM     18  H   UNL     1      -3.231  16.448  20.387  0.00  0.00    +0.000 HD
ATOM     19  H   UNL     1      -3.654  15.895  21.922  0.00  0.00    +0.000 HD
ENDBRANCH  11  17
ENDBRANCH   7  14
ENDBRANCH   1   9
BRANCH   5  20
ATOM     20  N   UNL     1       2.122   6.052  20.965  0.00  0.00    +0.000 N 
ATOM     21  C   UNL     1       1.973   4.706  20.758  0.00  0.00    +0.000 C 
ATOM     22  O   UNL     1       2.160   3.920  21.685  0.00  0.00    +0.000 OA
ATOM     23  H   UNL     1       2.240   6.308  21.938  0.00  0.00    +0.000 HD
BRANCH  21  24
ATOM     24  C   UNL     1       1.533   4.225  19.381  0.00  0.00    +0.000 C 
BRANCH  24  25
ATOM     25  O   UNL     1       2.539   3.298  18.961  0.00  0.00    +0.000 OA
BRANCH  25  26
ATOM     26  C   UNL     1       3.726   3.840  18.582  0.00  0.00    +0.000 A 
ATOM     27  C   UNL     1       3.893   3.903  17.187  0.00  0.00    +0.000 A 
ATOM     28  C   UNL     1       5.016   4.530  16.636  0.00  0.00    +0.000 A 
ATOM     29  C   UNL     1       5.981   5.040  17.508  0.00  0.00    +0.000 A 
ATOM     30  C   UNL     1       7.069   5.908  16.999  0.00  0.00    +0.000 A 
ATOM     31  O   UNL     1       7.278   6.112  15.837  0.00  0.00    +0.000 OA
ATOM     32  C   UNL     1       7.845   6.557  18.076  0.00  0.00    +0.000 A 
ATOM     33  C   UNL     1       7.906   5.959  19.264  0.00  0.00    +0.000 A 
ATOM     34  O   UNL     1       6.940   5.092  19.725  0.00  0.00    +0.000 OA
ATOM     35  C   UNL     1       5.882   4.851  18.878  0.00  0.00    +0.000 A 
ATOM     36  C   UNL     1       4.730   4.305  19.421  0.00  0.00    +0.000 A 
ENDBRANCH  25  26
ENDBRANCH  24  25
ENDBRANCH  21  24
ENDBRANCH   5  20
TORSDOF 7
ENDMDL
MODEL 6
REMARK VINA RESULT:      -8.4      4.141      7.894
REMARK  Name = 
REMARK  7 active torsions:
REMARK  status: ('A' for Active; 'I' for Inactive)
REMARK    1  A    between atoms: N_1  and  C_2
REMARK    2  A    between atoms: C_5  and  C_6
REMARK    3  A    between atoms: N_8  and  C_9
REMARK    4  A    between atoms: C_13  and  N_14
REMARK    5  A    between atoms: C_15  and  C_17
REMARK    6  A    between atoms: C_17  and  O_18
REMARK    7  A    between atoms: O_18  and  C_19
REMARK                            x       y       z     vdW  Elec       q    Type
REMARK                         _______ _______ _______ _____ _____    ______ ____
ROOT
ATOM      1  C   UNL     1       0.756   8.895  19.967  0.00  0.00    +0.000 A 
ATOM      2  C   UNL     1       1.535   9.043  18.811  0.00  0.00    +0.000 A 
ATOM      3  C   UNL     1       2.491   8.078  18.462  0.00  0.00    +0.000 A 
ATOM      4  C   UNL     1       2.666   6.962  19.274  0.00  0.00    +0.000 A 
ATOM      5  C   UNL     1       1.868   6.786  20.407  0.00  0.00    +0.000 A 
ATOM      6  C   UNL     1       0.895   7.732  20.737  0.00  0.00    +0.000 A 
ENDROOT
BRANCH   1   9
ATOM      7  C   UNL     1       0.185  10.972  21.231  0.00  0.00    +0.000 C 
ATOM      8  O   UNL     1       1.321  11.232  21.618  0.00  0.00    +0.000 OA
ATOM      9  N   UNL     1      -0.147   9.889  20.415  0.00  0.00    +0.000 N 
ATOM     10  H   UNL     1      -1.124   9.676  20.291  0.00  0.00    +0.000 HD
BRANCH   7  14
ATOM     11  C   UNL     1      -3.016  13.630  22.449  0.00  0.00    +0.000 A 
ATOM     12  C   UNL     1      -2.241  13.884  21.321  0.00  0.00    +0.000 A 
ATOM     13  C   UNL     1      -1.222  13.002  20.946  0.00  0.00    +0.000 A 
ATOM     14  C   UNL     1      -0.927  11.861  21.714  0.00  0.00    +0.000 A 
ATOM     15  C   UNL     1      -1.660  11.645  22.886  0.00  0.00    +0.000 A 
ATOM     16  C   UNL     1      -2.688  12.533  23.251  0.00  0.00    +0.000 A 
BRANCH  11  17
ATOM     17  N   UNL     1      -3.941  14.578  22.898  0.00  0.00    +0.000 N 
ATOM     18  H   UNL     1      -3.548  15.280  23.518  0.00  0.00    +0.000 HD
ATOM     19  H   UNL     1      -4.503  14.990  22.159  0.00  0.00    +0.000 HD
ENDBRANCH  11  17
ENDBRANCH   7  14
ENDBRANCH   1   9
BRANCH   5  20
ATOM     20  N   UNL     1       2.158   5.729  21.278  0.00  0.00    +0.000 N 
ATOM     21  C   UNL     1       1.972   4.392  21.045  0.00  0.00    +0.000 C 
ATOM     22  O   UNL     1       2.260   3.573  21.916  0.00  0.00    +0.000 OA
ATOM     23  H   UNL     1       2.395   5.951  22.238  0.00  0.00    +0.000 HD
BRANCH  21  24
ATOM     24  C   UNL     1       1.366   3.962  19.715  0.00  0.00    +0.000 C 
BRANCH  24  25
ATOM     25  O   UNL     1       2.266   2.984  19.184  0.00  0.00    +0.000 OA
BRANCH  25  26
ATOM     26  C   UNL     1       3.357   3.470  18.536  0.00  0.00    +0.000 A 
ATOM     27  C   UNL     1       4.490   3.594  19.362  0.00  0.00    +0.000 A 
ATOM     28  C   UNL     1       5.721   3.982  18.822  0.00  0.00    +0.000 A 
ATOM     29  C   UNL     1       5.776   4.286  17.460  0.00  0.00    +0.000 A 
ATOM     30  C   UNL     1       7.082   4.479  16.786  0.00  0.00    +0.000 A 
ATOM     31  O   UNL     1       8.133   4.527  17.359  0.00  0.00    +0.000 OA
ATOM     32  C   UNL     1       6.972   4.544  15.314  0.00  0.00    +0.000 A 
ATOM     33  C   UNL     1       5.826   4.963  14.781  0.00  0.00    +0.000 A 
ATOM     34  O   UNL     1       4.611   4.859  15.422  0.00  0.00    +0.000 OA
ATOM     35  C   UNL     1       4.630   4.299  16.679  0.00  0.00    +0.000 A 
ATOM     36  C   UNL     1       3.432   3.835  17.200  0.00  0.00    +0.000 A 
ENDBRANCH  25  26
ENDBRANCH  24  25
ENDBRANCH  21  24
ENDBRANCH   5  20
TORSDOF 7
ENDMDL
MODEL 7
REMARK VINA RESULT:      -8.4      1.178      1.731
REMARK  Name = 
REMARK  7 active torsions:
REMARK  status: ('A' for Active; 'I' for Inactive)
REMARK    1  A    between atoms: N_1  and  C_2
REMARK    2  A    between atoms: C_5  and  C_6
REMARK    3  A    between atoms: N_8  and  C_9
REMARK    4  A    between atoms: C_13  and  N_14
REMARK    5  A    between atoms: C_15  and  C_17
REMARK    6  A    between atoms: C_17  and  O_18
REMARK    7  A    between atoms: O_18  and  C_19
REMARK                            x       y       z     vdW  Elec       q    Type
REMARK                         _______ _______ _______ _____ _____    ______ ____
ROOT
ATOM      1  C   UNL     1       6.454   6.435  16.740  0.00  0.00    +0.000 A 
ATOM      2  C   UNL     1       6.704   5.702  15.571  0.00  0.00    +0.000 A 
ATOM      3  C   UNL     1       6.159   4.421  15.396  0.00  0.00    +0.000 A 
ATOM      4  C   UNL     1       5.362   3.874  16.396  0.00  0.00    +0.000 A 
ATOM      5  C   UNL     1       5.075   4.611  17.548  0.00  0.00    +0.000 A 
ATOM      6  C   UNL     1       5.592   5.899  17.707  0.00  0.00    +0.000 A 
ENDROOT
BRANCH   1   9
ATOM      7  C   UNL     1       7.981   7.934  18.026  0.00  0.00    +0.000 C 
ATOM      8  O   UNL     1       8.424   7.082  18.790  0.00  0.00    +0.000 OA
ATOM      9  N   UNL     1       7.062   7.685  17.005  0.00  0.00    +0.000 N 
ATOM     10  H   UNL     1       6.643   8.478  16.546  0.00  0.00    +0.000 HD
BRANCH   7  14
ATOM     11  C   UNL     1       9.404  11.959  18.784  0.00  0.00    +0.000 A 
ATOM     12  C   UNL     1       9.730  10.897  19.621  0.00  0.00    +0.000 A 
ATOM     13  C   UNL     1       9.266   9.606  19.344  0.00  0.00    +0.000 A 
ATOM     14  C   UNL     1       8.429   9.353  18.242  0.00  0.00    +0.000 A 
ATOM     15  C   UNL     1       8.043  10.436  17.443  0.00  0.00    +0.000 A 
ATOM     16  C   UNL     1       8.522  11.728  17.724  0.00  0.00    +0.000 A 
BRANCH  11  17
ATOM     17  N   UNL     1       9.755  13.267  19.134  0.00  0.00    +0.000 N 
ATOM     18  H   UNL     1      10.689  13.538  18.841  0.00  0.00    +0.000 HD
ATOM     19  H   UNL     1       9.058  13.963  18.887  0.00  0.00    +0.000 HD
ENDBRANCH  11  17
ENDBRANCH   7  14
ENDBRANCH   1   9
BRANCH   5  20
ATOM     20  N   UNL     1       4.388   3.985  18.595  0.00  0.00    +0.000 N 
ATOM     21  C   UNL     1       3.201   4.377  19.154  0.00  0.00    +0.000 C 
ATOM     22  O   UNL     1       2.721   3.734  20.085  0.00  0.00    +0.000 OA
ATOM     23  H   UNL     1       4.861   3.250  19.107  0.00  0.00    +0.000 HD
BRANCH  21  24
ATOM     24  C   UNL     1       2.529   5.639  18.626  0.00  0.00    +0.000 C 
BRANCH  24  25
ATOM     25  O   UNL     1       2.891   6.676  19.543  0.00  0.00    +0.000 OA
BRANCH  25  26
ATOM     26  C   UNL     1       2.118   7.794  19.512  0.00  0.00    +0.000 A 
ATOM     27  C   UNL     1       1.955   8.326  18.219  0.00  0.00    +0.000 A 
ATOM     28  C   UNL     1       1.104   9.415  18.004  0.00  0.00    +0.000 A 
ATOM     29  C   UNL     1       0.467   9.982  19.110  0.00  0.00    +0.000 A 
ATOM     30  C   UNL     1      -0.613  10.981  18.925  0.00  0.00    +0.000 A 
ATOM     31  O   UNL     1      -0.911  11.460  17.868  0.00  0.00    +0.000 OA
ATOM     32  C   UNL     1      -1.341  11.287  20.173  0.00  0.00    +0.000 A 
ATOM     33  C   UNL     1      -0.706  11.130  21.334  0.00  0.00    +0.000 A 
ATOM     34  O   UNL     1       0.348  10.260  21.507  0.00  0.00    +0.000 OA
ATOM     35  C   UNL     1       0.740   9.546  20.398  0.00  0.00    +0.000 A 
ATOM     36  C   UNL     1       1.517   8.416  20.597  0.00  0.00    +0.000 A 
ENDBRANCH  25  26
ENDBRANCH  24  25
ENDBRANCH  21  24
ENDBRANCH   5  20
TORSDOF 7
ENDMDL
MODEL 8
REMARK VINA RESULT:      -8.4      4.124      7.610
REMARK  Name = 
REMARK  7 active torsions:
REMARK  status: ('A' for Active; 'I' for Inactive)
REMARK    1  A    between atoms: N_1  and  C_2
REMARK    2  A    between atoms: C_5  and  C_6
REMARK    3  A    between atoms: N_8  and  C_9
REMARK    4  A    between atoms: C_13  and  N_14
REMARK    5  A    between atoms: C_15  and  C_17
REMARK    6  A    between atoms: C_17  and  O_18
REMARK    7  A    between atoms: O_18  and  C_19
REMARK                            x       y       z     vdW  Elec       q    Type
REMARK                         _______ _______ _______ _____ _____    ______ ____
ROOT
ATOM      1  C   UNL     1       1.206   8.814  20.016  0.00  0.00    +0.000 A 
ATOM      2  C   UNL     1       1.825   8.793  18.757  0.00  0.00    +0.000 A 
ATOM      3  C   UNL     1       2.558   7.674  18.337  0.00  0.00    +0.000 A 
ATOM      4  C   UNL     1       2.672   6.573  19.179  0.00  0.00    +0.000 A 
ATOM      5  C   UNL     1       2.028   6.569  20.420  0.00  0.00    +0.000 A 
ATOM      6  C   UNL     1       1.272   7.671  20.824  0.00  0.00    +0.000 A 
ENDROOT
BRANCH   1   9
ATOM      7  C   UNL     1      -0.600  10.537  19.971  0.00  0.00    +0.000 C 
ATOM      8  O   UNL     1      -1.210  10.094  19.003  0.00  0.00    +0.000 OA
ATOM      9  N   UNL     1       0.543   9.956  20.524  0.00  0.00    +0.000 N 
ATOM     10  H   UNL     1       1.055  10.486  21.210  0.00  0.00    +0.000 HD
BRANCH   7  14
ATOM     11  C   UNL     1      -1.869  14.258  21.799  0.00  0.00    +0.000 A 
ATOM     12  C   UNL     1      -0.778  13.540  22.280  0.00  0.00    +0.000 A 
ATOM     13  C   UNL     1      -0.385  12.347  21.661  0.00  0.00    +0.000 A 
ATOM     14  C   UNL     1      -1.099  11.824  20.569  0.00  0.00    +0.000 A 
ATOM     15  C   UNL     1      -2.238  12.509  20.133  0.00  0.00    +0.000 A 
ATOM     16  C   UNL     1      -2.621  13.711  20.755  0.00  0.00    +0.000 A 
BRANCH  11  17
ATOM     17  N   UNL     1      -2.342  15.374  22.497  0.00  0.00    +0.000 N 
ATOM     18  H   UNL     1      -3.072  15.163  23.171  0.00  0.00    +0.000 HD
ATOM     19  H   UNL     1      -1.610  15.955  22.894  0.00  0.00    +0.000 HD
ENDBRANCH  11  17
ENDBRANCH   7  14
ENDBRANCH   1   9
BRANCH   5  20
ATOM     20  N   UNL     1       2.273   5.509  21.302  0.00  0.00    +0.000 N 
ATOM     21  C   UNL     1       2.040   4.179  21.078  0.00  0.00    +0.000 C 
ATOM     22  O   UNL     1       2.291   3.357  21.958  0.00  0.00    +0.000 OA
ATOM     23  H   UNL     1       2.510   5.731  22.261  0.00  0.00    +0.000 HD
BRANCH  21  24
ATOM     24  C   UNL     1       1.428   3.760  19.747  0.00  0.00    +0.000 C 
BRANCH  24  25
ATOM     25  O   UNL     1       2.337   2.803  19.194  0.00  0.00    +0.000 OA
BRANCH  25  26
ATOM     26  C   UNL     1       3.390   3.314  18.502  0.00  0.00    +0.000 A 
ATOM     27  C   UNL     1       4.527   3.539  19.298  0.00  0.00    +0.000 A 
ATOM     28  C   UNL     1       5.726   3.964  18.715  0.00  0.00    +0.000 A 
ATOM     29  C   UNL     1       5.741   4.204  17.339  0.00  0.00    +0.000 A 
ATOM     30  C   UNL     1       7.024   4.432  16.631  0.00  0.00    +0.000 A 
ATOM     31  O   UNL     1       8.080   4.565  17.180  0.00  0.00    +0.000 OA
ATOM     32  C   UNL     1       6.885   4.419  15.160  0.00  0.00    +0.000 A 
ATOM     33  C   UNL     1       5.708   4.748  14.630  0.00  0.00    +0.000 A 
ATOM     34  O   UNL     1       4.512   4.612  15.299  0.00  0.00    +0.000 OA
ATOM     35  C   UNL     1       4.583   4.116  16.582  0.00  0.00    +0.000 A 
ATOM     36  C   UNL     1       3.422   3.616  17.148  0.00  0.00    +0.000 A 
ENDBRANCH  25  26
ENDBRANCH  24  25
ENDBRANCH  21  24
ENDBRANCH   5  20
TORSDOF 7
ENDMDL
MODEL 9
REMARK VINA RESULT:      -8.4      5.726      9.508
REMARK  Name = 
REMARK  7 active torsions:
REMARK  status: ('A' for Active; 'I' for Inactive)
REMARK    1  A    between atoms: N_1  and  C_2
REMARK    2  A    between atoms: C_5  and  C_6
REMARK    3  A    between atoms: N_8  and  C_9
REMARK    4  A    between atoms: C_13  and  N_14
REMARK    5  A    between atoms: C_15  and  C_17
REMARK    6  A    between atoms: C_17  and  O_18
REMARK    7  A    between atoms: O_18  and  C_19
REMARK                            x       y       z     vdW  Elec       q    Type
REMARK                         _______ _______ _______ _____ _____    ______ ____
ROOT
ATOM      1  C   UNL     1       0.384  10.268  19.101  0.00  0.00    +0.000 A 
ATOM      2  C   UNL     1       0.633  11.423  19.856  0.00  0.00    +0.000 A 
ATOM      3  C   UNL     1      -0.072  12.609  19.607  0.00  0.00    +0.000 A 
ATOM      4  C   UNL     1      -1.031  12.637  18.599  0.00  0.00    +0.000 A 
ATOM      5  C   UNL     1      -1.315  11.481  17.867  0.00  0.00    +0.000 A 
ATOM      6  C   UNL     1      -0.634  10.292  18.137  0.00  0.00    +0.000 A 
ENDROOT
BRANCH   1   9
ATOM      7  C   UNL     1       2.056   8.588  18.315  0.00  0.00    +0.000 C 
ATOM      8  O   UNL     1       2.366   9.158  17.273  0.00  0.00    +0.000 OA
ATOM      9  N   UNL     1       1.139   9.080  19.247  0.00  0.00    +0.000 N 
ATOM     10  H   UNL     1       0.838   8.460  19.981  0.00  0.00    +0.000 HD
BRANCH   7  14
ATOM     11  C   UNL     1       3.710   4.682  19.210  0.00  0.00    +0.000 A 
ATOM     12  C   UNL     1       2.803   5.306  20.061  0.00  0.00    +0.000 A 
ATOM     13  C   UNL     1       2.277   6.562  19.739  0.00  0.00    +0.000 A 
ATOM     14  C   UNL     1       2.676   7.243  18.576  0.00  0.00    +0.000 A 
ATOM     15  C   UNL     1       3.643   6.646  17.759  0.00  0.00    +0.000 A 
ATOM     16  C   UNL     1       4.160   5.380  18.086  0.00  0.00    +0.000 A 
BRANCH  11  17
ATOM     17  N   UNL     1       4.336   3.492  19.596  0.00  0.00    +0.000 N 
ATOM     18  H   UNL     1       5.318   3.598  19.835  0.00  0.00    +0.000 HD
ATOM     19  H   UNL     1       3.826   2.965  20.298  0.00  0.00    +0.000 HD
ENDBRANCH  11  17
ENDBRANCH   7  14
ENDBRANCH   1   9
BRANCH   5  20
ATOM     20  N   UNL     1      -2.181  11.573  16.771  0.00  0.00    +0.000 N 
ATOM     21  C   UNL     1      -3.516  11.270  16.748  0.00  0.00    +0.000 C 
ATOM     22  O   UNL     1      -4.151  11.385  15.701  0.00  0.00    +0.000 OA
ATOM     23  H   UNL     1      -1.780  11.738  15.857  0.00  0.00    +0.000 HD
BRANCH  21  24
ATOM     24  C   UNL     1      -4.169  10.753  18.024  0.00  0.00    +0.000 C 
BRANCH  24  25
ATOM     25  O   UNL     1      -5.272  11.631  18.270  0.00  0.00    +0.000 OA
BRANCH  25  26
ATOM     26  C   UNL     1      -5.430  12.041  19.557  0.00  0.00    +0.000 A 
ATOM     27  C   UNL     1      -4.281  12.647  20.097  0.00  0.00    +0.000 A 
ATOM     28  C   UNL     1      -4.315  13.216  21.375  0.00  0.00    +0.000 A 
ATOM     29  C   UNL     1      -5.500  13.117  22.109  0.00  0.00    +0.000 A 
ATOM     30  C   UNL     1      -5.672  13.889  23.362  0.00  0.00    +0.000 A 
ATOM     31  O   UNL     1      -4.799  14.515  23.892  0.00  0.00    +0.000 OA
ATOM     32  C   UNL     1      -7.059  13.866  23.872  0.00  0.00    +0.000 A 
ATOM     33  C   UNL     1      -7.833  12.827  23.561  0.00  0.00    +0.000 A 
ATOM     34  O   UNL     1      -7.643  12.053  22.438  0.00  0.00    +0.000 OA
ATOM     35  C   UNL     1      -6.584  12.397  21.630  0.00  0.00    +0.000 A 
ATOM     36  C   UNL     1      -6.573  11.909  20.333  0.00  0.00    +0.000 A 
ENDBRANCH  25  26
ENDBRANCH  24  25
ENDBRANCH  21  24
ENDBRANCH   5  20
TORSDOF 7
ENDMDL
