MODEL 1
REMARK VINA RESULT:      -9.3      0.000      0.000
REMARK  Name = 
REMARK  7 active torsions:
REMARK  status: ('A' for Active; 'I' for Inactive)
REMARK    1  A    between atoms: C_1  and  C_2
REMARK    2  A    between atoms: C_2  and  C_3
REMARK    3  A    between atoms: C_3  and  C_4
REMARK    4  A    between atoms: C_5  and  C_6
REMARK    5  A    between atoms: N_15  and  C_16
REMARK    6  A    between atoms: C_16  and  C_17
REMARK    7  A    between atoms: C_21  and  C_22
REMARK                            x       y       z     vdW  Elec       q    Type
REMARK                         _______ _______ _______ _____ _____    ______ ____
ROOT
ATOM      1  C   UNL     1       2.144   6.378  19.814  0.00  0.00    +0.000 A 
ATOM      2  C   UNL     1       1.901   7.726  19.576  0.00  0.00    +0.000 A 
ATOM      3  N   UNL     1       2.531   8.139  18.421  0.00  0.00    +0.000 NA
ATOM      4  C   UNL     1       3.113   7.070  17.935  0.00  0.00    +0.000 A 
ATOM      5  N   UNL     1       2.911   5.979  18.733  0.00  0.00    +0.000 N 
ENDROOT
BRANCH   2   6
ATOM      6  C   UNL     1       1.140   8.657  20.397  0.00  0.00    +0.000 A 
ATOM      7  C   UNL     1       1.166   8.527  21.795  0.00  0.00    +0.000 A 
ATOM      8  C   UNL     1       0.453   9.414  22.614  0.00  0.00    +0.000 A 
ATOM      9  C   UNL     1      -0.291  10.439  22.036  0.00  0.00    +0.000 A 
ATOM     10 CL   UNL     1      -1.169  11.534  23.029  0.00  0.00    +0.000 Cl
ATOM     11  C   UNL     1      -0.316  10.594  20.655  0.00  0.00    +0.000 A 
ATOM     12  C   UNL     1       0.417   9.719  19.845  0.00  0.00    +0.000 A 
ENDBRANCH   2   6
BRANCH   1  13
ATOM     13  C   UNL     1       1.765   5.452  20.923  0.00  0.00    +0.000 C 
BRANCH  13  15
ATOM     14  C   UNL     1       1.359   2.987  21.105  0.00  0.00    +0.000 C 
ATOM     15  C   UNL     1       0.914   4.281  20.439  0.00  0.00    +0.000 C 
ENDBRANCH  13  15
ENDBRANCH   1  13
BRANCH   5  16
ATOM     16  C   UNL     1       3.500   4.669  18.489  0.00  0.00    +0.000 C 
BRANCH  16  17
ATOM     17  C   UNL     1       4.898   4.759  17.928  0.00  0.00    +0.000 A 
ATOM     18  C   UNL     1       5.998   4.958  18.769  0.00  0.00    +0.000 A 
ATOM     19  C   UNL     1       7.284   5.003  18.241  0.00  0.00    +0.000 A 
ATOM     20  C   UNL     1       7.488   4.841  16.868  0.00  0.00    +0.000 A 
ATOM     21  C   UNL     1       6.415   4.650  15.981  0.00  0.00    +0.000 A 
ATOM     22  C   UNL     1       5.122   4.609  16.544  0.00  0.00    +0.000 A 
BRANCH  21  23
ATOM     23  C   UNL     1       6.636   4.489  14.520  0.00  0.00    +0.000 A 
ATOM     24  C   UNL     1       7.604   5.240  13.829  0.00  0.00    +0.000 A 
ATOM     25  C   UNL     1       7.799   5.098  12.450  0.00  0.00    +0.000 A 
ATOM     26  C   UNL     1       7.017   4.206  11.723  0.00  0.00    +0.000 A 
ATOM     27  C   UNL     1       6.054   3.447  12.378  0.00  0.00    +0.000 A 
ATOM     28  C   UNL     1       5.874   3.581  13.759  0.00  0.00    +0.000 A 
ENDBRANCH  21  23
ENDBRANCH  16  17
ENDBRANCH   5  16
TORSDOF 6
ENDMDL
MODEL 2
REMARK VINA RESULT:      -9.0      0.246      1.303
REMARK  Name = 
REMARK  7 active torsions:
REMARK  status: ('A' for Active; 'I' for Inactive)
REMARK    1  A    between atoms: C_1  and  C_2
REMARK    2  A    between atoms: C_2  and  C_3
REMARK    3  A    between atoms: C_3  and  C_4
REMARK    4  A    between atoms: C_5  and  C_6
REMARK    5  A    between atoms: N_15  and  C_16
REMARK    6  A    between atoms: C_16  and  C_17
REMARK    7  A    between atoms: C_21  and  C_22
REMARK                            x       y       z     vdW  Elec       q    Type
REMARK                         _______ _______ _______ _____ _____    ______ ____
ROOT
ATOM      1  C   UNL     1       2.228   6.223  19.915  0.00  0.00    +0.000 A 
ATOM      2  C   UNL     1       1.924   7.564  19.711  0.00  0.00    +0.000 A 
ATOM      3  N   UNL     1       2.523   8.031  18.561  0.00  0.00    +0.000 NA
ATOM      4  C   UNL     1       3.146   7.001  18.044  0.00  0.00    +0.000 A 
ATOM      5  N   UNL     1       3.000   5.883  18.817  0.00  0.00    +0.000 N 
ENDROOT
BRANCH   2   6
ATOM      6  C   UNL     1       1.131   8.441  20.562  0.00  0.00    +0.000 A 
ATOM      7  C   UNL     1       0.300   9.409  19.974  0.00  0.00    +0.000 A 
ATOM      8  C   UNL     1      -0.483  10.261  20.765  0.00  0.00    +0.000 A 
ATOM      9  C   UNL     1      -0.439  10.150  22.152  0.00  0.00    +0.000 A 
ATOM     10 CL   UNL     1      -1.396  11.188  23.133  0.00  0.00    +0.000 Cl
ATOM     11  C   UNL     1       0.365   9.187  22.751  0.00  0.00    +0.000 A 
ATOM     12  C   UNL     1       1.127   8.324  21.956  0.00  0.00    +0.000 A 
ENDBRANCH   2   6
BRANCH   1  13
ATOM     13  C   UNL     1       1.901   5.255  21.005  0.00  0.00    +0.000 C 
BRANCH  13  15
ATOM     14  C   UNL     1       1.320   2.823  21.148  0.00  0.00    +0.000 C 
ATOM     15  C   UNL     1       0.934   4.166  20.547  0.00  0.00    +0.000 C 
ENDBRANCH  13  15
ENDBRANCH   1  13
BRANCH   5  16
ATOM     16  C   UNL     1       3.643   4.606  18.537  0.00  0.00    +0.000 C 
BRANCH  16  17
ATOM     17  C   UNL     1       4.999   4.771  17.894  0.00  0.00    +0.000 A 
ATOM     18  C   UNL     1       6.127   5.068  18.664  0.00  0.00    +0.000 A 
ATOM     19  C   UNL     1       7.377   5.181  18.063  0.00  0.00    +0.000 A 
ATOM     20  C   UNL     1       7.514   4.990  16.685  0.00  0.00    +0.000 A 
ATOM     21  C   UNL     1       6.409   4.701  15.867  0.00  0.00    +0.000 A 
ATOM     22  C   UNL     1       5.155   4.593  16.504  0.00  0.00    +0.000 A 
BRANCH  21  23
ATOM     23  C   UNL     1       6.558   4.509  14.401  0.00  0.00    +0.000 A 
ATOM     24  C   UNL     1       5.630   3.763  13.652  0.00  0.00    +0.000 A 
ATOM     25  C   UNL     1       5.782   3.570  12.274  0.00  0.00    +0.000 A 
ATOM     26  C   UNL     1       6.879   4.111  11.610  0.00  0.00    +0.000 A 
ATOM     27  C   UNL     1       7.812   4.856  12.322  0.00  0.00    +0.000 A 
ATOM     28  C   UNL     1       7.647   5.059  13.697  0.00  0.00    +0.000 A 
ENDBRANCH  21  23
ENDBRANCH  16  17
ENDBRANCH   5  16
TORSDOF 6
ENDMDL
MODEL 3
REMARK VINA RESULT:      -8.4      2.773      5.456
REMARK  Name = 
REMARK  7 active torsions:
REMARK  status: ('A' for Active; 'I' for Inactive)
REMARK    1  A    between atoms: C_1  and  C_2
REMARK    2  A    between atoms: C_2  and  C_3
REMARK    3  A    between atoms: C_3  and  C_4
REMARK    4  A    between atoms: C_5  and  C_6
REMARK    5  A    between atoms: N_15  and  C_16
REMARK    6  A    between atoms: C_16  and  C_17
REMARK    7  A    between atoms: C_21  and  C_22
REMARK                            x       y       z     vdW  Elec       q    Type
REMARK                         _______ _______ _______ _____ _____    ______ ____
ROOT
ATOM      1  C   UNL     1      -0.587  11.091  19.549  0.00  0.00    +0.000 A 
ATOM      2  C   UNL     1      -0.686  11.964  20.625  0.00  0.00    +0.000 A 
ATOM      3  N   UNL     1       0.551  12.478  20.952  0.00  0.00    +0.000 NA
ATOM      4  C   UNL     1       1.386  11.970  20.079  0.00  0.00    +0.000 A 
ATOM      5  N   UNL     1       0.754  11.128  19.207  0.00  0.00    +0.000 N 
ENDROOT
BRANCH   2   6
ATOM      6  C   UNL     1      -1.876  12.313  21.389  0.00  0.00    +0.000 A 
ATOM      7  C   UNL     1      -2.938  12.975  20.752  0.00  0.00    +0.000 A 
ATOM      8  C   UNL     1      -4.101  13.314  21.456  0.00  0.00    +0.000 A 
ATOM      9  C   UNL     1      -4.209  12.992  22.806  0.00  0.00    +0.000 A 
ATOM     10 CL   UNL     1      -5.631  13.402  23.681  0.00  0.00    +0.000 Cl
ATOM     11  C   UNL     1      -3.175  12.322  23.450  0.00  0.00    +0.000 A 
ATOM     12  C   UNL     1      -2.026  11.966  22.735  0.00  0.00    +0.000 A 
ENDBRANCH   2   6
BRANCH   1  13
ATOM     13  C   UNL     1      -1.579  10.230  18.836  0.00  0.00    +0.000 C 
BRANCH  13  15
ATOM     14  C   UNL     1      -2.367   9.956  16.474  0.00  0.00    +0.000 C 
ATOM     15  C   UNL     1      -2.198  10.932  17.629  0.00  0.00    +0.000 C 
ENDBRANCH  13  15
ENDBRANCH   1  13
BRANCH   5  16
ATOM     16  C   UNL     1       1.437  10.359  18.175  0.00  0.00    +0.000 C 
BRANCH  16  17
ATOM     17  C   UNL     1       1.875   9.000  18.662  0.00  0.00    +0.000 A 
ATOM     18  C   UNL     1       1.466   8.517  19.909  0.00  0.00    +0.000 A 
ATOM     19  C   UNL     1       1.849   7.248  20.330  0.00  0.00    +0.000 A 
ATOM     20  C   UNL     1       2.639   6.442  19.505  0.00  0.00    +0.000 A 
ATOM     21  C   UNL     1       3.084   6.886  18.248  0.00  0.00    +0.000 A 
ATOM     22  C   UNL     1       2.681   8.177  17.849  0.00  0.00    +0.000 A 
BRANCH  21  23
ATOM     23  C   UNL     1       3.933   6.029  17.379  0.00  0.00    +0.000 A 
ATOM     24  C   UNL     1       4.832   6.579  16.446  0.00  0.00    +0.000 A 
ATOM     25  C   UNL     1       5.618   5.769  15.618  0.00  0.00    +0.000 A 
ATOM     26  C   UNL     1       5.514   4.384  15.693  0.00  0.00    +0.000 A 
ATOM     27  C   UNL     1       4.637   3.810  16.607  0.00  0.00    +0.000 A 
ATOM     28  C   UNL     1       3.865   4.624  17.444  0.00  0.00    +0.000 A 
ENDBRANCH  21  23
ENDBRANCH  16  17
ENDBRANCH   5  16
TORSDOF 6
ENDMDL
MODEL 4
REMARK VINA RESULT:      -8.4      3.576      8.792
REMARK  Name = 
REMARK  7 active torsions:
REMARK  status: ('A' for Active; 'I' for Inactive)
REMARK    1  A    between atoms: C_1  and  C_2
REMARK    2  A    between atoms: C_2  and  C_3
REMARK    3  A    between atoms: C_3  and  C_4
REMARK    4  A    between atoms: C_5  and  C_6
REMARK    5  A    between atoms: N_15  and  C_16
REMARK    6  A    between atoms: C_16  and  C_17
REMARK    7  A    between atoms: C_21  and  C_22
REMARK                            x       y       z     vdW  Elec       q    Type
REMARK                         _______ _______ _______ _____ _____    ______ ____
ROOT
ATOM      1  C   UNL     1       2.439   6.920  19.516  0.00  0.00    +0.000 A 
ATOM      2  C   UNL     1       2.966   7.108  18.244  0.00  0.00    +0.000 A 
ATOM      3  N   UNL     1       2.606   8.341  17.743  0.00  0.00    +0.000 NA
ATOM      4  C   UNL     1       1.910   8.917  18.692  0.00  0.00    +0.000 A 
ATOM      5  N   UNL     1       1.780   8.107  19.786  0.00  0.00    +0.000 N 
ENDROOT
BRANCH   2   6
ATOM      6  C   UNL     1       3.760   6.175  17.457  0.00  0.00    +0.000 A 
ATOM      7  C   UNL     1       4.833   6.655  16.689  0.00  0.00    +0.000 A 
ATOM      8  C   UNL     1       5.623   5.781  15.929  0.00  0.00    +0.000 A 
ATOM      9  C   UNL     1       5.342   4.417  15.933  0.00  0.00    +0.000 A 
ATOM     10 CL   UNL     1       6.303   3.334  15.006  0.00  0.00    +0.000 Cl
ATOM     11  C   UNL     1       4.294   3.921  16.700  0.00  0.00    +0.000 A 
ATOM     12  C   UNL     1       3.524   4.796  17.475  0.00  0.00    +0.000 A 
ENDBRANCH   2   6
BRANCH   1  13
ATOM     13  C   UNL     1       2.465   5.774  20.474  0.00  0.00    +0.000 C 
BRANCH  13  15
ATOM     14  C   UNL     1       1.542   3.500  20.976  0.00  0.00    +0.000 C 
ATOM     15  C   UNL     1       1.279   4.831  20.288  0.00  0.00    +0.000 C 
ENDBRANCH  13  15
ENDBRANCH   1  13
BRANCH   5  16
ATOM     16  C   UNL     1       0.995   8.447  20.965  0.00  0.00    +0.000 C 
BRANCH  16  17
ATOM     17  C   UNL     1       0.103   9.643  20.741  0.00  0.00    +0.000 A 
ATOM     18  C   UNL     1       0.120  10.728  21.624  0.00  0.00    +0.000 A 
ATOM     19  C   UNL     1      -0.681  11.839  21.385  0.00  0.00    +0.000 A 
ATOM     20  C   UNL     1      -1.504  11.884  20.256  0.00  0.00    +0.000 A 
ATOM     21  C   UNL     1      -1.565  10.815  19.346  0.00  0.00    +0.000 A 
ATOM     22  C   UNL     1      -0.743   9.702  19.614  0.00  0.00    +0.000 A 
BRANCH  21  23
ATOM     23  C   UNL     1      -2.450  10.863  18.153  0.00  0.00    +0.000 A 
ATOM     24  C   UNL     1      -3.716  11.477  18.192  0.00  0.00    +0.000 A 
ATOM     25  C   UNL     1      -4.554  11.506  17.071  0.00  0.00    +0.000 A 
ATOM     26  C   UNL     1      -4.150  10.908  15.882  0.00  0.00    +0.000 A 
ATOM     27  C   UNL     1      -2.903  10.296  15.810  0.00  0.00    +0.000 A 
ATOM     28  C   UNL     1      -2.063  10.283  16.929  0.00  0.00    +0.000 A 
ENDBRANCH  21  23
ENDBRANCH  16  17
ENDBRANCH   5  16
TORSDOF 6
ENDMDL
MODEL 5
REMARK VINA RESULT:      -8.3      3.587      8.732
REMARK  Name = 
REMARK  7 active torsions:
REMARK  status: ('A' for Active; 'I' for Inactive)
REMARK    1  A    between atoms: C_1  and  C_2
REMARK    2  A    between atoms: C_2  and  C_3
REMARK    3  A    between atoms: C_3  and  C_4
REMARK    4  A    between atoms: C_5  and  C_6
REMARK    5  A    between atoms: N_15  and  C_16
REMARK    6  A    between atoms: C_16  and  C_17
REMARK    7  A    between atoms: C_21  and  C_22
REMARK                            x       y       z     vdW  Elec       q    Type
REMARK                         _______ _______ _______ _____ _____    ______ ____
ROOT
ATOM      1  C   UNL     1       2.438   7.011  19.561  0.00  0.00    +0.000 A 
ATOM      2  C   UNL     1       2.969   7.209  18.293  0.00  0.00    +0.000 A 
ATOM      3  N   UNL     1       2.594   8.437  17.792  0.00  0.00    +0.000 NA
ATOM      4  C   UNL     1       1.885   9.002  18.738  0.00  0.00    +0.000 A 
ATOM      5  N   UNL     1       1.761   8.189  19.829  0.00  0.00    +0.000 N 
ENDROOT
BRANCH   2   6
ATOM      6  C   UNL     1       3.780   6.288  17.508  0.00  0.00    +0.000 A 
ATOM      7  C   UNL     1       3.446   4.924  17.479  0.00  0.00    +0.000 A 
ATOM      8  C   UNL     1       4.199   4.014  16.725  0.00  0.00    +0.000 A 
ATOM      9  C   UNL     1       5.295   4.465  15.993  0.00  0.00    +0.000 A 
ATOM     10 CL   UNL     1       6.226   3.359  15.064  0.00  0.00    +0.000 Cl
ATOM     11  C   UNL     1       5.632   5.813  15.997  0.00  0.00    +0.000 A 
ATOM     12  C   UNL     1       4.861   6.721  16.733  0.00  0.00    +0.000 A 
ENDBRANCH   2   6
BRANCH   1  13
ATOM     13  C   UNL     1       2.475   5.864  20.518  0.00  0.00    +0.000 C 
BRANCH  13  15
ATOM     14  C   UNL     1       1.602   3.517  20.493  0.00  0.00    +0.000 C 
ATOM     15  C   UNL     1       1.227   4.990  20.428  0.00  0.00    +0.000 C 
ENDBRANCH  13  15
ENDBRANCH   1  13
BRANCH   5  16
ATOM     16  C   UNL     1       0.965   8.516  21.005  0.00  0.00    +0.000 C 
BRANCH  16  17
ATOM     17  C   UNL     1       0.016   9.663  20.760  0.00  0.00    +0.000 A 
ATOM     18  C   UNL     1      -0.086  10.718  21.672  0.00  0.00    +0.000 A 
ATOM     19  C   UNL     1      -0.939  11.787  21.415  0.00  0.00    +0.000 A 
ATOM     20  C   UNL     1      -1.694  11.817  20.240  0.00  0.00    +0.000 A 
ATOM     21  C   UNL     1      -1.636  10.776  19.299  0.00  0.00    +0.000 A 
ATOM     22  C   UNL     1      -0.763   9.706  19.586  0.00  0.00    +0.000 A 
BRANCH  21  23
ATOM     23  C   UNL     1      -2.450  10.807  18.056  0.00  0.00    +0.000 A 
ATOM     24  C   UNL     1      -2.043  10.139  16.886  0.00  0.00    +0.000 A 
ATOM     25  C   UNL     1      -2.804  10.184  15.711  0.00  0.00    +0.000 A 
ATOM     26  C   UNL     1      -3.989  10.913  15.674  0.00  0.00    +0.000 A 
ATOM     27  C   UNL     1      -4.419  11.581  16.815  0.00  0.00    +0.000 A 
ATOM     28  C   UNL     1      -3.663  11.520  17.991  0.00  0.00    +0.000 A 
ENDBRANCH  21  23
ENDBRANCH  16  17
ENDBRANCH   5  16
TORSDOF 6
ENDMDL
MODEL 6
REMARK VINA RESULT:      -8.3      2.015      3.869
REMARK  Name = 
REMARK  7 active torsions:
REMARK  status: ('A' for Active; 'I' for Inactive)
REMARK    1  A    between atoms: C_1  and  C_2
REMARK    2  A    between atoms: C_2  and  C_3
REMARK    3  A    between atoms: C_3  and  C_4
REMARK    4  A    between atoms: C_5  and  C_6
REMARK    5  A    between atoms: N_15  and  C_16
REMARK    6  A    between atoms: C_16  and  C_17
REMARK    7  A    between atoms: C_21  and  C_22
REMARK                            x       y       z     vdW  Elec       q    Type
REMARK                         _______ _______ _______ _____ _____    ______ ____
ROOT
ATOM      1  C   UNL     1       1.389   8.999  20.056  0.00  0.00    +0.000 A 
ATOM      2  C   UNL     1       1.266   9.885  18.992  0.00  0.00    +0.000 A 
ATOM      3  N   UNL     1       1.664   9.292  17.813  0.00  0.00    +0.000 NA
ATOM      4  C   UNL     1       1.986   8.062  18.129  0.00  0.00    +0.000 A 
ATOM      5  N   UNL     1       1.837   7.829  19.468  0.00  0.00    +0.000 N 
ENDROOT
BRANCH   2   6
ATOM      6  C   UNL     1       0.830  11.274  19.030  0.00  0.00    +0.000 A 
ATOM      7  C   UNL     1      -0.518  11.584  18.786  0.00  0.00    +0.000 A 
ATOM      8  C   UNL     1      -0.972  12.909  18.826  0.00  0.00    +0.000 A 
ATOM      9  C   UNL     1      -0.076  13.936  19.112  0.00  0.00    +0.000 A 
ATOM     10 CL   UNL     1      -0.620  15.566  19.166  0.00  0.00    +0.000 Cl
ATOM     11  C   UNL     1       1.259  13.648  19.373  0.00  0.00    +0.000 A 
ATOM     12  C   UNL     1       1.700  12.320  19.354  0.00  0.00    +0.000 A 
ENDBRANCH   2   6
BRANCH   1  13
ATOM     13  C   UNL     1       1.160   9.129  21.526  0.00  0.00    +0.000 C 
BRANCH  13  15
ATOM     14  C   UNL     1      -0.656  10.584  22.453  0.00  0.00    +0.000 C 
ATOM     15  C   UNL     1      -0.323   9.215  21.879  0.00  0.00    +0.000 C 
ENDBRANCH  13  15
ENDBRANCH   1  13
BRANCH   5  16
ATOM     16  C   UNL     1       2.191   6.576  20.123  0.00  0.00    +0.000 C 
BRANCH  16  17
ATOM     17  C   UNL     1       2.419   5.453  19.140  0.00  0.00    +0.000 A 
ATOM     18  C   UNL     1       1.506   4.400  19.031  0.00  0.00    +0.000 A 
ATOM     19  C   UNL     1       1.710   3.390  18.095  0.00  0.00    +0.000 A 
ATOM     20  C   UNL     1       2.825   3.427  17.253  0.00  0.00    +0.000 A 
ATOM     21  C   UNL     1       3.776   4.458  17.332  0.00  0.00    +0.000 A 
ATOM     22  C   UNL     1       3.543   5.467  18.290  0.00  0.00    +0.000 A 
BRANCH  21  23
ATOM     23  C   UNL     1       4.965   4.487  16.441  0.00  0.00    +0.000 A 
ATOM     24  C   UNL     1       6.256   4.751  16.936  0.00  0.00    +0.000 A 
ATOM     25  C   UNL     1       7.372   4.793  16.092  0.00  0.00    +0.000 A 
ATOM     26  C   UNL     1       7.221   4.584  14.724  0.00  0.00    +0.000 A 
ATOM     27  C   UNL     1       5.959   4.318  14.206  0.00  0.00    +0.000 A 
ATOM     28  C   UNL     1       4.849   4.261  15.056  0.00  0.00    +0.000 A 
ENDBRANCH  21  23
ENDBRANCH  16  17
ENDBRANCH   5  16
TORSDOF 6
ENDMDL
MODEL 7
REMARK VINA RESULT:      -8.3      1.166      2.474
REMARK  Name = 
REMARK  7 active torsions:
REMARK  status: ('A' for Active; 'I' for Inactive)
REMARK    1  A    between atoms: C_1  and  C_2
REMARK    2  A    between atoms: C_2  and  C_3
REMARK    3  A    between atoms: C_3  and  C_4
REMARK    4  A    between atoms: C_5  and  C_6
REMARK    5  A    between atoms: N_15  and  C_16
REMARK    6  A    between atoms: C_16  and  C_17
REMARK    7  A    between atoms: C_21  and  C_22
REMARK                            x       y       z     vdW  Elec       q    Type
REMARK                         _______ _______ _______ _____ _____    ______ ____
ROOT
ATOM      1  C   UNL     1       2.623   5.947  18.969  0.00  0.00    +0.000 A 
ATOM      2  C   UNL     1       2.061   6.464  20.129  0.00  0.00    +0.000 A 
ATOM      3  N   UNL     1       1.974   5.495  21.105  0.00  0.00    +0.000 NA
ATOM      4  C   UNL     1       2.505   4.418  20.581  0.00  0.00    +0.000 A 
ATOM      5  N   UNL     1       2.916   4.633  19.295  0.00  0.00    +0.000 N 
ENDROOT
BRANCH   2   6
ATOM      6  C   UNL     1       1.563   7.814  20.358  0.00  0.00    +0.000 A 
ATOM      7  C   UNL     1       1.239   8.221  21.662  0.00  0.00    +0.000 A 
ATOM      8  C   UNL     1       0.768   9.516  21.916  0.00  0.00    +0.000 A 
ATOM      9  C   UNL     1       0.619  10.415  20.864  0.00  0.00    +0.000 A 
ATOM     10 CL   UNL     1       0.043  12.008  21.162  0.00  0.00    +0.000 Cl
ATOM     11  C   UNL     1       0.950  10.036  19.568  0.00  0.00    +0.000 A 
ATOM     12  C   UNL     1       1.442   8.749  19.324  0.00  0.00    +0.000 A 
ENDBRANCH   2   6
BRANCH   1  13
ATOM     13  C   UNL     1       2.891   6.524  17.617  0.00  0.00    +0.000 C 
BRANCH  13  15
ATOM     14  C   UNL     1       4.765   7.379  16.192  0.00  0.00    +0.000 C 
ATOM     15  C   UNL     1       4.160   7.373  17.587  0.00  0.00    +0.000 C 
ENDBRANCH  13  15
ENDBRANCH   1  13
BRANCH   5  16
ATOM     16  C   UNL     1       3.473   3.600  18.432  0.00  0.00    +0.000 C 
BRANCH  16  17
ATOM     17  C   UNL     1       4.816   3.986  17.861  0.00  0.00    +0.000 A 
ATOM     18  C   UNL     1       5.874   4.352  18.698  0.00  0.00    +0.000 A 
ATOM     19  C   UNL     1       7.117   4.670  18.159  0.00  0.00    +0.000 A 
ATOM     20  C   UNL     1       7.318   4.618  16.777  0.00  0.00    +0.000 A 
ATOM     21  C   UNL     1       6.284   4.267  15.894  0.00  0.00    +0.000 A 
ATOM     22  C   UNL     1       5.035   3.950  16.468  0.00  0.00    +0.000 A 
BRANCH  21  23
ATOM     23  C   UNL     1       6.500   4.223  14.424  0.00  0.00    +0.000 A 
ATOM     24  C   UNL     1       5.747   3.378  13.588  0.00  0.00    +0.000 A 
ATOM     25  C   UNL     1       5.965   3.327  12.206  0.00  0.00    +0.000 A 
ATOM     26  C   UNL     1       6.954   4.114  11.626  0.00  0.00    +0.000 A 
ATOM     27  C   UNL     1       7.713   4.963  12.424  0.00  0.00    +0.000 A 
ATOM     28  C   UNL     1       7.481   5.021  13.804  0.00  0.00    +0.000 A 
ENDBRANCH  21  23
ENDBRANCH  16  17
ENDBRANCH   5  16
TORSDOF 6
ENDMDL
MODEL 8
REMARK VINA RESULT:      -8.2      1.154      2.448
REMARK  Name = 
REMARK  7 active torsions:
REMARK  status: ('A' for Active; 'I' for Inactive)
REMARK    1  A    between atoms: C_1  and  C_2
REMARK    2  A    between atoms: C_2  and  C_3
REMARK    3  A    between atoms: C_3  and  C_4
REMARK    4  A    between atoms: C_5  and  C_6
REMARK    5  A    between atoms: N_15  and  C_16
REMARK    6  A    between atoms: C_16  and  C_17
REMARK    7  A    between atoms: C_21  and  C_22
REMARK                            x       y       z     vdW  Elec       q    Type
REMARK                         _______ _______ _______ _____ _____    ______ ____
ROOT
ATOM      1  C   UNL     1       2.590   5.989  18.976  0.00  0.00    +0.000 A 
ATOM      2  C   UNL     1       2.044   6.486  20.153  0.00  0.00    +0.000 A 
ATOM      3  N   UNL     1       1.956   5.496  21.108  0.00  0.00    +0.000 NA
ATOM      4  C   UNL     1       2.470   4.426  20.554  0.00  0.00    +0.000 A 
ATOM      5  N   UNL     1       2.872   4.666  19.269  0.00  0.00    +0.000 N 
ENDROOT
BRANCH   2   6
ATOM      6  C   UNL     1       1.563   7.836  20.417  0.00  0.00    +0.000 A 
ATOM      7  C   UNL     1       1.302   8.700  19.341  0.00  0.00    +0.000 A 
ATOM      8  C   UNL     1       0.828  10.001  19.561  0.00  0.00    +0.000 A 
ATOM      9  C   UNL     1       0.612  10.445  20.863  0.00  0.00    +0.000 A 
ATOM     10 CL   UNL     1       0.030  12.038  21.146  0.00  0.00    +0.000 Cl
ATOM     11  C   UNL     1       0.849   9.599  21.940  0.00  0.00    +0.000 A 
ATOM     12  C   UNL     1       1.300   8.294  21.712  0.00  0.00    +0.000 A 
ENDBRANCH   2   6
BRANCH   1  13
ATOM     13  C   UNL     1       2.852   6.594  17.636  0.00  0.00    +0.000 C 
BRANCH  13  15
ATOM     14  C   UNL     1       4.747   7.400  16.209  0.00  0.00    +0.000 C 
ATOM     15  C   UNL     1       4.143   7.408  17.606  0.00  0.00    +0.000 C 
ENDBRANCH  13  15
ENDBRANCH   1  13
BRANCH   5  16
ATOM     16  C   UNL     1       3.410   3.647  18.378  0.00  0.00    +0.000 C 
BRANCH  16  17
ATOM     17  C   UNL     1       4.770   4.013  17.835  0.00  0.00    +0.000 A 
ATOM     18  C   UNL     1       5.816   4.364  18.694  0.00  0.00    +0.000 A 
ATOM     19  C   UNL     1       7.073   4.664  18.181  0.00  0.00    +0.000 A 
ATOM     20  C   UNL     1       7.303   4.609  16.804  0.00  0.00    +0.000 A 
ATOM     21  C   UNL     1       6.282   4.272  15.899  0.00  0.00    +0.000 A 
ATOM     22  C   UNL     1       5.018   3.974  16.447  0.00  0.00    +0.000 A 
BRANCH  21  23
ATOM     23  C   UNL     1       6.529   4.225  14.434  0.00  0.00    +0.000 A 
ATOM     24  C   UNL     1       7.503   5.034  13.820  0.00  0.00    +0.000 A 
ATOM     25  C   UNL     1       7.722   4.999  12.438  0.00  0.00    +0.000 A 
ATOM     26  C   UNL     1       6.959   4.161  11.631  0.00  0.00    +0.000 A 
ATOM     27  C   UNL     1       5.990   3.348  12.208  0.00  0.00    +0.000 A 
ATOM     28  C   UNL     1       5.786   3.375  13.593  0.00  0.00    +0.000 A 
ENDBRANCH  21  23
ENDBRANCH  16  17
ENDBRANCH   5  16
TORSDOF 6
ENDMDL
MODEL 9
REMARK VINA RESULT:      -8.1      3.586      6.359
REMARK  Name = 
REMARK  7 active torsions:
REMARK  status: ('A' for Active; 'I' for Inactive)
REMARK    1  A    between atoms: C_1  and  C_2
REMARK    2  A    between atoms: C_2  and  C_3
REMARK    3  A    between atoms: C_3  and  C_4
REMARK    4  A    between atoms: C_5  and  C_6
REMARK    5  A    between atoms: N_15  and  C_16
REMARK    6  A    between atoms: C_16  and  C_17
REMARK    7  A    between atoms: C_21  and  C_22
REMARK                            x       y       z     vdW  Elec       q    Type
REMARK                         _______ _______ _______ _____ _____    ______ ____
ROOT
ATOM      1  C   UNL     1      -1.253  11.430  18.780  0.00  0.00    +0.000 A 
ATOM      2  C   UNL     1      -2.424  11.070  18.124  0.00  0.00    +0.000 A 
ATOM      3  N   UNL     1      -2.191  10.041  17.237  0.00  0.00    +0.000 NA
ATOM      4  C   UNL     1      -0.922   9.743  17.368  0.00  0.00    +0.000 A 
ATOM      5  N   UNL     1      -0.307  10.548  18.287  0.00  0.00    +0.000 N 
ENDROOT
BRANCH   2   6
ATOM      6  C   UNL     1      -3.746  11.668  18.259  0.00  0.00    +0.000 A 
ATOM      7  C   UNL     1      -4.600  11.718  17.145  0.00  0.00    +0.000 A 
ATOM      8  C   UNL     1      -5.881  12.276  17.244  0.00  0.00    +0.000 A 
ATOM      9  C   UNL     1      -6.317  12.790  18.462  0.00  0.00    +0.000 A 
ATOM     10 CL   UNL     1      -7.887  13.478  18.598  0.00  0.00    +0.000 Cl
ATOM     11  C   UNL     1      -5.492  12.736  19.580  0.00  0.00    +0.000 A 
ATOM     12  C   UNL     1      -4.223  12.155  19.480  0.00  0.00    +0.000 A 
ENDBRANCH   2   6
BRANCH   1  13
ATOM     13  C   UNL     1      -0.925  12.495  19.775  0.00  0.00    +0.000 C 
BRANCH  13  15
ATOM     14  C   UNL     1      -0.548  13.077  22.182  0.00  0.00    +0.000 C 
ATOM     15  C   UNL     1      -0.965  11.981  21.212  0.00  0.00    +0.000 C 
ENDBRANCH  13  15
ENDBRANCH   1  13
BRANCH   5  16
ATOM     16  C   UNL     1       1.118  10.503  18.588  0.00  0.00    +0.000 C 
BRANCH  16  17
ATOM     17  C   UNL     1       1.572   9.135  19.035  0.00  0.00    +0.000 A 
ATOM     18  C   UNL     1       1.199   8.627  20.283  0.00  0.00    +0.000 A 
ATOM     19  C   UNL     1       1.595   7.349  20.666  0.00  0.00    +0.000 A 
ATOM     20  C   UNL     1       2.361   6.562  19.803  0.00  0.00    +0.000 A 
ATOM     21  C   UNL     1       2.771   7.032  18.544  0.00  0.00    +0.000 A 
ATOM     22  C   UNL     1       2.355   8.330  18.182  0.00  0.00    +0.000 A 
BRANCH  21  23
ATOM     23  C   UNL     1       3.595   6.194  17.634  0.00  0.00    +0.000 A 
ATOM     24  C   UNL     1       3.480   4.792  17.609  0.00  0.00    +0.000 A 
ATOM     25  C   UNL     1       4.269   4.004  16.763  0.00  0.00    +0.000 A 
ATOM     26  C   UNL     1       5.207   4.602  15.926  0.00  0.00    +0.000 A 
ATOM     27  C   UNL     1       5.342   5.985  15.925  0.00  0.00    +0.000 A 
ATOM     28  C   UNL     1       4.540   6.770  16.762  0.00  0.00    +0.000 A 
ENDBRANCH  21  23
ENDBRANCH  16  17
ENDBRANCH   5  16
TORSDOF 6
ENDMDL
