MODEL 1
REMARK VINA RESULT:      -7.9      0.000      0.000
REMARK  Name = 
REMARK  4 active torsions:
REMARK  status: ('A' for Active; 'I' for Inactive)
REMARK    1  A    between atoms: C_1  and  C_2
REMARK    2  A    between atoms: C_5  and  N_6
REMARK    3  A    between atoms: C_7  and  C_9
REMARK    4  A    between atoms: C_9  and  C_10
REMARK                            x       y       z     vdW  Elec       q    Type
REMARK                         _______ _______ _______ _____ _____    ______ ____
ROOT
ATOM      1  N   UNL     1       5.611   3.539  18.338  0.00  0.00    +0.000 N 
ATOM      2  C   UNL     1       6.633   4.475  18.451  0.00  0.00    +0.000 C 
ATOM      3  O   UNL     1       6.875   5.190  19.415  0.00  0.00    +0.000 OA
ATOM      4  H   UNL     1       5.643   2.935  17.528  0.00  0.00    +0.000 HD
ENDROOT
BRANCH   1   9
ATOM      5  C   UNL     1       1.118   2.926  21.827  0.00  0.00    +0.000 C 
ATOM      6  C   UNL     1       2.312   3.076  20.931  0.00  0.00    +0.000 A 
ATOM      7  C   UNL     1       3.387   2.188  21.019  0.00  0.00    +0.000 A 
ATOM      8  C   UNL     1       4.487   2.318  20.168  0.00  0.00    +0.000 A 
ATOM      9  C   UNL     1       4.532   3.337  19.217  0.00  0.00    +0.000 A 
ATOM     10  C   UNL     1       3.466   4.239  19.142  0.00  0.00    +0.000 A 
ATOM     11  C   UNL     1       2.363   4.109  19.990  0.00  0.00    +0.000 A 
ENDBRANCH   1   9
BRANCH   2  12
ATOM     12  C   UNL     1       7.418   4.611  17.180  0.00  0.00    +0.000 C 
BRANCH  12  13
ATOM     13  C   UNL     1       7.154   5.915  16.413  0.00  0.00    +0.000 C 
ATOM     14  C   UNL     1       5.645   6.098  16.233  0.00  0.00    +0.000 C 
ATOM     15  O   UNL     1       5.102   4.953  15.547  0.00  0.00    +0.000 OA
ATOM     16  C   UNL     1       5.855   4.637  14.442  0.00  0.00    +0.000 A 
ATOM     17  C   UNL     1       5.378   3.641  13.600  0.00  0.00    +0.000 A 
ATOM     18  C   UNL     1       6.061   3.350  12.417  0.00  0.00    +0.000 A 
ATOM     19  C   UNL     1       7.196   4.085  12.064  0.00  0.00    +0.000 A 
ATOM     20  C   UNL     1       7.721   5.024  12.951  0.00  0.00    +0.000 A 
ATOM     21  C   UNL     1       7.089   5.235  14.174  0.00  0.00    +0.000 A 
ATOM     22  O   UNL     1       7.770   5.969  15.111  0.00  0.00    +0.000 OA
ENDBRANCH  12  13
ENDBRANCH   2  12
TORSDOF 3
ENDMDL
MODEL 2
REMARK VINA RESULT:      -7.8      0.275      1.078
REMARK  Name = 
REMARK  4 active torsions:
REMARK  status: ('A' for Active; 'I' for Inactive)
REMARK    1  A    between atoms: C_1  and  C_2
REMARK    2  A    between atoms: C_5  and  N_6
REMARK    3  A    between atoms: C_7  and  C_9
REMARK    4  A    between atoms: C_9  and  C_10
REMARK                            x       y       z     vdW  Elec       q    Type
REMARK                         _______ _______ _______ _____ _____    ______ ____
ROOT
ATOM      1  N   UNL     1       5.482   3.578  18.062  0.00  0.00    +0.000 N 
ATOM      2  C   UNL     1       6.586   4.405  18.242  0.00  0.00    +0.000 C 
ATOM      3  O   UNL     1       6.873   5.042  19.247  0.00  0.00    +0.000 OA
ATOM      4  H   UNL     1       5.474   3.016  17.221  0.00  0.00    +0.000 HD
ENDROOT
BRANCH   1   9
ATOM      5  C   UNL     1       1.073   2.811  21.626  0.00  0.00    +0.000 C 
ATOM      6  C   UNL     1       2.212   3.019  20.672  0.00  0.00    +0.000 A 
ATOM      7  C   UNL     1       2.107   3.937  19.624  0.00  0.00    +0.000 A 
ATOM      8  C   UNL     1       3.177   4.142  18.750  0.00  0.00    +0.000 A 
ATOM      9  C   UNL     1       4.369   3.436  18.909  0.00  0.00    +0.000 A 
ATOM     10  C   UNL     1       4.468   2.501  19.945  0.00  0.00    +0.000 A 
ATOM     11  C   UNL     1       3.399   2.296  20.822  0.00  0.00    +0.000 A 
ENDBRANCH   1   9
BRANCH   2  12
ATOM     12  C   UNL     1       7.409   4.529  16.994  0.00  0.00    +0.000 C 
BRANCH  12  13
ATOM     13  C   UNL     1       7.170   5.829  16.210  0.00  0.00    +0.000 C 
ATOM     14  C   UNL     1       5.664   6.052  16.050  0.00  0.00    +0.000 C 
ATOM     15  O   UNL     1       5.078   4.912  15.391  0.00  0.00    +0.000 OA
ATOM     16  C   UNL     1       5.804   4.557  14.281  0.00  0.00    +0.000 A 
ATOM     17  C   UNL     1       5.285   3.561  13.462  0.00  0.00    +0.000 A 
ATOM     18  C   UNL     1       5.941   3.232  12.274  0.00  0.00    +0.000 A 
ATOM     19  C   UNL     1       7.091   3.928  11.892  0.00  0.00    +0.000 A 
ATOM     20  C   UNL     1       7.656   4.865  12.755  0.00  0.00    +0.000 A 
ATOM     21  C   UNL     1       7.050   5.114  13.984  0.00  0.00    +0.000 A 
ATOM     22  O   UNL     1       7.767   5.843  14.898  0.00  0.00    +0.000 OA
ENDBRANCH  12  13
ENDBRANCH   2  12
TORSDOF 3
ENDMDL
MODEL 3
REMARK VINA RESULT:      -7.7      4.668      7.006
REMARK  Name = 
REMARK  4 active torsions:
REMARK  status: ('A' for Active; 'I' for Inactive)
REMARK    1  A    between atoms: C_1  and  C_2
REMARK    2  A    between atoms: C_5  and  N_6
REMARK    3  A    between atoms: C_7  and  C_9
REMARK    4  A    between atoms: C_9  and  C_10
REMARK                            x       y       z     vdW  Elec       q    Type
REMARK                         _______ _______ _______ _____ _____    ______ ____
ROOT
ATOM      1  N   UNL     1       1.815   8.116  19.560  0.00  0.00    +0.000 N 
ATOM      2  C   UNL     1       2.241   8.331  18.253  0.00  0.00    +0.000 C 
ATOM      3  O   UNL     1       2.160   9.370  17.613  0.00  0.00    +0.000 OA
ATOM      4  H   UNL     1       2.088   7.239  19.984  0.00  0.00    +0.000 HD
ENDROOT
BRANCH   1   9
ATOM      5  C   UNL     1      -1.259  11.476  23.023  0.00  0.00    +0.000 C 
ATOM      6  C   UNL     1      -0.472  10.599  22.096  0.00  0.00    +0.000 A 
ATOM      7  C   UNL     1      -0.546  10.773  20.711  0.00  0.00    +0.000 A 
ATOM      8  C   UNL     1       0.205   9.967  19.853  0.00  0.00    +0.000 A 
ATOM      9  C   UNL     1       1.042   8.974  20.362  0.00  0.00    +0.000 A 
ATOM     10  C   UNL     1       1.101   8.784  21.747  0.00  0.00    +0.000 A 
ATOM     11  C   UNL     1       0.353   9.592  22.608  0.00  0.00    +0.000 A 
ENDBRANCH   1   9
BRANCH   2  12
ATOM     12  C   UNL     1       2.767   7.077  17.618  0.00  0.00    +0.000 C 
BRANCH  12  13
ATOM     13  C   UNL     1       3.874   6.380  18.423  0.00  0.00    +0.000 C 
ATOM     14  C   UNL     1       4.426   5.206  17.611  0.00  0.00    +0.000 C 
ATOM     15  O   UNL     1       3.352   4.303  17.284  0.00  0.00    +0.000 OA
ATOM     16  C   UNL     1       2.586   4.026  18.390  0.00  0.00    +0.000 A 
ATOM     17  C   UNL     1       1.595   3.061  18.263  0.00  0.00    +0.000 A 
ATOM     18  C   UNL     1       0.854   2.680  19.383  0.00  0.00    +0.000 A 
ATOM     19  C   UNL     1       1.135   3.238  20.633  0.00  0.00    +0.000 A 
ATOM     20  C   UNL     1       2.070   4.266  20.742  0.00  0.00    +0.000 A 
ATOM     21  C   UNL     1       2.732   4.710  19.600  0.00  0.00    +0.000 A 
ATOM     22  O   UNL     1       3.444   5.877  19.704  0.00  0.00    +0.000 OA
ENDBRANCH  12  13
ENDBRANCH   2  12
TORSDOF 3
ENDMDL
MODEL 4
REMARK VINA RESULT:      -7.6      2.066      6.763
REMARK  Name = 
REMARK  4 active torsions:
REMARK  status: ('A' for Active; 'I' for Inactive)
REMARK    1  A    between atoms: C_1  and  C_2
REMARK    2  A    between atoms: C_5  and  N_6
REMARK    3  A    between atoms: C_7  and  C_9
REMARK    4  A    between atoms: C_9  and  C_10
REMARK                            x       y       z     vdW  Elec       q    Type
REMARK                         _______ _______ _______ _____ _____    ______ ____
ROOT
ATOM      1  N   UNL     1       5.318   5.782  16.942  0.00  0.00    +0.000 N 
ATOM      2  C   UNL     1       5.469   5.237  18.213  0.00  0.00    +0.000 C 
ATOM      3  O   UNL     1       6.171   4.285  18.528  0.00  0.00    +0.000 OA
ATOM      4  H   UNL     1       4.811   6.655  16.885  0.00  0.00    +0.000 HD
ENDROOT
BRANCH   1   9
ATOM      5  C   UNL     1       6.999   3.511  11.968  0.00  0.00    +0.000 C 
ATOM      6  C   UNL     1       6.584   4.108  13.280  0.00  0.00    +0.000 A 
ATOM      7  C   UNL     1       7.446   4.951  13.987  0.00  0.00    +0.000 A 
ATOM      8  C   UNL     1       7.047   5.520  15.198  0.00  0.00    +0.000 A 
ATOM      9  C   UNL     1       5.782   5.258  15.723  0.00  0.00    +0.000 A 
ATOM     10  C   UNL     1       4.926   4.397  15.027  0.00  0.00    +0.000 A 
ATOM     11  C   UNL     1       5.322   3.829  13.814  0.00  0.00    +0.000 A 
ENDBRANCH   1   9
BRANCH   2  12
ATOM     12  C   UNL     1       4.578   5.901  19.222  0.00  0.00    +0.000 C 
BRANCH  12  13
ATOM     13  C   UNL     1       3.261   6.436  18.642  0.00  0.00    +0.000 C 
ATOM     14  C   UNL     1       2.368   6.927  19.785  0.00  0.00    +0.000 C 
ATOM     15  O   UNL     1       2.147   5.849  20.715  0.00  0.00    +0.000 OA
ATOM     16  C   UNL     1       1.789   4.697  20.060  0.00  0.00    +0.000 A 
ATOM     17  C   UNL     1       1.406   3.607  20.832  0.00  0.00    +0.000 A 
ATOM     18  C   UNL     1       0.946   2.445  20.209  0.00  0.00    +0.000 A 
ATOM     19  C   UNL     1       0.832   2.394  18.817  0.00  0.00    +0.000 A 
ATOM     20  C   UNL     1       1.297   3.456  18.042  0.00  0.00    +0.000 A 
ATOM     21  C   UNL     1       1.849   4.569  18.670  0.00  0.00    +0.000 A 
ATOM     22  O   UNL     1       2.517   5.467  17.877  0.00  0.00    +0.000 OA
ENDBRANCH  12  13
ENDBRANCH   2  12
TORSDOF 3
ENDMDL
MODEL 5
REMARK VINA RESULT:      -7.6      4.717      7.011
REMARK  Name = 
REMARK  4 active torsions:
REMARK  status: ('A' for Active; 'I' for Inactive)
REMARK    1  A    between atoms: C_1  and  C_2
REMARK    2  A    between atoms: C_5  and  N_6
REMARK    3  A    between atoms: C_7  and  C_9
REMARK    4  A    between atoms: C_9  and  C_10
REMARK                            x       y       z     vdW  Elec       q    Type
REMARK                         _______ _______ _______ _____ _____    ______ ____
ROOT
ATOM      1  N   UNL     1       1.720   8.071  19.752  0.00  0.00    +0.000 N 
ATOM      2  C   UNL     1       2.205   8.383  18.485  0.00  0.00    +0.000 C 
ATOM      3  O   UNL     1       2.211   9.483  17.949  0.00  0.00    +0.000 OA
ATOM      4  H   UNL     1       1.924   7.141  20.094  0.00  0.00    +0.000 HD
ENDROOT
BRANCH   1   9
ATOM      5  C   UNL     1      -1.391  11.559  23.051  0.00  0.00    +0.000 C 
ATOM      6  C   UNL     1      -0.557  10.642  22.206  0.00  0.00    +0.000 A 
ATOM      7  C   UNL     1       0.254   9.668  22.794  0.00  0.00    +0.000 A 
ATOM      8  C   UNL     1       1.013   8.803  22.002  0.00  0.00    +0.000 A 
ATOM      9  C   UNL     1       0.974   8.896  20.611  0.00  0.00    +0.000 A 
ATOM     10  C   UNL     1       0.179   9.884  20.021  0.00  0.00    +0.000 A 
ATOM     11  C   UNL     1      -0.584  10.749  20.812  0.00  0.00    +0.000 A 
ENDBRANCH   1   9
BRANCH   2  12
ATOM     12  C   UNL     1       2.674   7.165  17.745  0.00  0.00    +0.000 C 
BRANCH  12  13
ATOM     13  C   UNL     1       3.822   6.412  18.435  0.00  0.00    +0.000 C 
ATOM     14  C   UNL     1       4.261   5.242  17.552  0.00  0.00    +0.000 C 
ATOM     15  O   UNL     1       3.132   4.383  17.298  0.00  0.00    +0.000 OA
ATOM     16  C   UNL     1       2.455   4.103  18.459  0.00  0.00    +0.000 A 
ATOM     17  C   UNL     1       1.424   3.174  18.397  0.00  0.00    +0.000 A 
ATOM     18  C   UNL     1       0.768   2.788  19.568  0.00  0.00    +0.000 A 
ATOM     19  C   UNL     1       1.175   3.305  20.802  0.00  0.00    +0.000 A 
ATOM     20  C   UNL     1       2.151   4.299  20.852  0.00  0.00    +0.000 A 
ATOM     21  C   UNL     1       2.727   4.750  19.667  0.00  0.00    +0.000 A 
ATOM     22  O   UNL     1       3.486   5.890  19.736  0.00  0.00    +0.000 OA
ENDBRANCH  12  13
ENDBRANCH   2  12
TORSDOF 3
ENDMDL
MODEL 6
REMARK VINA RESULT:      -7.5      4.267      5.643
REMARK  Name = 
REMARK  4 active torsions:
REMARK  status: ('A' for Active; 'I' for Inactive)
REMARK    1  A    between atoms: C_1  and  C_2
REMARK    2  A    between atoms: C_5  and  N_6
REMARK    3  A    between atoms: C_7  and  C_9
REMARK    4  A    between atoms: C_9  and  C_10
REMARK                            x       y       z     vdW  Elec       q    Type
REMARK                         _______ _______ _______ _____ _____    ______ ____
ROOT
ATOM      1  N   UNL     1       2.122   7.719  19.995  0.00  0.00    +0.000 N 
ATOM      2  C   UNL     1       2.206   6.332  20.058  0.00  0.00    +0.000 C 
ATOM      3  O   UNL     1       1.463   5.575  20.670  0.00  0.00    +0.000 OA
ATOM      4  H   UNL     1       2.730   8.177  19.328  0.00  0.00    +0.000 HD
ENDROOT
BRANCH   1   9
ATOM      5  C   UNL     1      -1.323  11.264  22.875  0.00  0.00    +0.000 C 
ATOM      6  C   UNL     1      -0.403  10.335  22.141  0.00  0.00    +0.000 A 
ATOM      7  C   UNL     1       0.444   9.469  22.837  0.00  0.00    +0.000 A 
ATOM      8  C   UNL     1       1.284   8.592  22.149  0.00  0.00    +0.000 A 
ATOM      9  C   UNL     1       1.294   8.564  20.755  0.00  0.00    +0.000 A 
ATOM     10  C   UNL     1       0.462   9.445  20.056  0.00  0.00    +0.000 A 
ATOM     11  C   UNL     1      -0.382  10.322  20.742  0.00  0.00    +0.000 A 
ENDBRANCH   1   9
BRANCH   2  12
ATOM     12  C   UNL     1       3.412   5.806  19.336  0.00  0.00    +0.000 C 
BRANCH  12  13
ATOM     13  C   UNL     1       3.263   4.362  18.832  0.00  0.00    +0.000 C 
ATOM     14  C   UNL     1       4.290   3.473  19.539  0.00  0.00    +0.000 C 
ATOM     15  O   UNL     1       5.613   3.990  19.304  0.00  0.00    +0.000 OA
ATOM     16  C   UNL     1       5.805   4.272  17.974  0.00  0.00    +0.000 A 
ATOM     17  C   UNL     1       7.080   4.647  17.570  0.00  0.00    +0.000 A 
ATOM     18  C   UNL     1       7.344   4.853  16.214  0.00  0.00    +0.000 A 
ATOM     19  C   UNL     1       6.339   4.643  15.265  0.00  0.00    +0.000 A 
ATOM     20  C   UNL     1       5.041   4.350  15.680  0.00  0.00    +0.000 A 
ATOM     21  C   UNL     1       4.765   4.248  17.041  0.00  0.00    +0.000 A 
ATOM     22  O   UNL     1       3.445   4.213  17.410  0.00  0.00    +0.000 OA
ENDBRANCH  12  13
ENDBRANCH   2  12
TORSDOF 3
ENDMDL
MODEL 7
REMARK VINA RESULT:      -7.5      4.170      5.960
REMARK  Name = 
REMARK  4 active torsions:
REMARK  status: ('A' for Active; 'I' for Inactive)
REMARK    1  A    between atoms: C_1  and  C_2
REMARK    2  A    between atoms: C_5  and  N_6
REMARK    3  A    between atoms: C_7  and  C_9
REMARK    4  A    between atoms: C_9  and  C_10
REMARK                            x       y       z     vdW  Elec       q    Type
REMARK                         _______ _______ _______ _____ _____    ______ ____
ROOT
ATOM      1  N   UNL     1       2.442   7.242  19.425  0.00  0.00    +0.000 N 
ATOM      2  C   UNL     1       2.270   5.999  20.026  0.00  0.00    +0.000 C 
ATOM      3  O   UNL     1       1.295   5.615  20.659  0.00  0.00    +0.000 OA
ATOM      4  H   UNL     1       3.248   7.342  18.821  0.00  0.00    +0.000 HD
ENDROOT
BRANCH   1   9
ATOM      5  C   UNL     1      -0.806  11.940  19.752  0.00  0.00    +0.000 C 
ATOM      6  C   UNL     1       0.052  10.711  19.692  0.00  0.00    +0.000 A 
ATOM      7  C   UNL     1       0.258   9.927  20.831  0.00  0.00    +0.000 A 
ATOM      8  C   UNL     1       1.041   8.773  20.765  0.00  0.00    +0.000 A 
ATOM      9  C   UNL     1       1.631   8.382  19.564  0.00  0.00    +0.000 A 
ATOM     10  C   UNL     1       1.442   9.177  18.428  0.00  0.00    +0.000 A 
ATOM     11  C   UNL     1       0.657  10.331  18.490  0.00  0.00    +0.000 A 
ENDBRANCH   1   9
BRANCH   2  12
ATOM     12  C   UNL     1       3.492   5.137  19.900  0.00  0.00    +0.000 C 
BRANCH  12  13
ATOM     13  C   UNL     1       3.768   4.641  18.473  0.00  0.00    +0.000 C 
ATOM     14  C   UNL     1       4.808   3.518  18.521  0.00  0.00    +0.000 C 
ATOM     15  O   UNL     1       6.004   4.001  19.162  0.00  0.00    +0.000 OA
ATOM     16  C   UNL     1       6.384   5.217  18.648  0.00  0.00    +0.000 A 
ATOM     17  C   UNL     1       7.598   5.744  19.069  0.00  0.00    +0.000 A 
ATOM     18  C   UNL     1       8.069   6.932  18.504  0.00  0.00    +0.000 A 
ATOM     19  C   UNL     1       7.340   7.564  17.492  0.00  0.00    +0.000 A 
ATOM     20  C   UNL     1       6.084   7.079  17.133  0.00  0.00    +0.000 A 
ATOM     21  C   UNL     1       5.578   5.951  17.775  0.00  0.00    +0.000 A 
ATOM     22  O   UNL     1       4.252   5.662  17.578  0.00  0.00    +0.000 OA
ENDBRANCH  12  13
ENDBRANCH   2  12
TORSDOF 3
ENDMDL
MODEL 8
REMARK VINA RESULT:      -7.4      2.080      6.765
REMARK  Name = 
REMARK  4 active torsions:
REMARK  status: ('A' for Active; 'I' for Inactive)
REMARK    1  A    between atoms: C_1  and  C_2
REMARK    2  A    between atoms: C_5  and  N_6
REMARK    3  A    between atoms: C_7  and  C_9
REMARK    4  A    between atoms: C_9  and  C_10
REMARK                            x       y       z     vdW  Elec       q    Type
REMARK                         _______ _______ _______ _____ _____    ______ ____
ROOT
ATOM      1  N   UNL     1       5.265   5.722  16.980  0.00  0.00    +0.000 N 
ATOM      2  C   UNL     1       5.343   5.154  18.248  0.00  0.00    +0.000 C 
ATOM      3  O   UNL     1       5.918   4.119  18.557  0.00  0.00    +0.000 OA
ATOM      4  H   UNL     1       4.873   6.653  16.929  0.00  0.00    +0.000 HD
ENDROOT
BRANCH   1   9
ATOM      5  C   UNL     1       7.090   3.531  12.021  0.00  0.00    +0.000 C 
ATOM      6  C   UNL     1       6.586   4.104  13.312  0.00  0.00    +0.000 A 
ATOM      7  C   UNL     1       5.301   3.806  13.774  0.00  0.00    +0.000 A 
ATOM      8  C   UNL     1       4.844   4.326  14.986  0.00  0.00    +0.000 A 
ATOM      9  C   UNL     1       5.661   5.151  15.759  0.00  0.00    +0.000 A 
ATOM     10  C   UNL     1       6.940   5.467  15.288  0.00  0.00    +0.000 A 
ATOM     11  C   UNL     1       7.401   4.946  14.076  0.00  0.00    +0.000 A 
ENDBRANCH   1   9
BRANCH   2  12
ATOM     12  C   UNL     1       4.542   5.919  19.260  0.00  0.00    +0.000 C 
BRANCH  12  13
ATOM     13  C   UNL     1       3.202   6.451  18.730  0.00  0.00    +0.000 C 
ATOM     14  C   UNL     1       2.325   6.875  19.911  0.00  0.00    +0.000 C 
ATOM     15  O   UNL     1       2.144   5.755  20.799  0.00  0.00    +0.000 OA
ATOM     16  C   UNL     1       1.795   4.624  20.103  0.00  0.00    +0.000 A 
ATOM     17  C   UNL     1       1.450   3.496  20.836  0.00  0.00    +0.000 A 
ATOM     18  C   UNL     1       0.999   2.352  20.174  0.00  0.00    +0.000 A 
ATOM     19  C   UNL     1       0.857   2.357  18.783  0.00  0.00    +0.000 A 
ATOM     20  C   UNL     1       1.284   3.460  18.044  0.00  0.00    +0.000 A 
ATOM     21  C   UNL     1       1.828   4.557  18.708  0.00  0.00    +0.000 A 
ATOM     22  O   UNL     1       2.461   5.500  17.940  0.00  0.00    +0.000 OA
ENDBRANCH  12  13
ENDBRANCH   2  12
TORSDOF 3
ENDMDL
MODEL 9
REMARK VINA RESULT:      -7.4      4.250      5.676
REMARK  Name = 
REMARK  4 active torsions:
REMARK  status: ('A' for Active; 'I' for Inactive)
REMARK    1  A    between atoms: C_1  and  C_2
REMARK    2  A    between atoms: C_5  and  N_6
REMARK    3  A    between atoms: C_7  and  C_9
REMARK    4  A    between atoms: C_9  and  C_10
REMARK                            x       y       z     vdW  Elec       q    Type
REMARK                         _______ _______ _______ _____ _____    ______ ____
ROOT
ATOM      1  N   UNL     1       2.069   7.815  19.719  0.00  0.00    +0.000 N 
ATOM      2  C   UNL     1       2.243   6.446  19.893  0.00  0.00    +0.000 C 
ATOM      3  O   UNL     1       1.597   5.707  20.624  0.00  0.00    +0.000 OA
ATOM      4  H   UNL     1       2.596   8.243  18.970  0.00  0.00    +0.000 HD
ENDROOT
BRANCH   1   9
ATOM      5  C   UNL     1      -1.191  11.207  22.974  0.00  0.00    +0.000 C 
ATOM      6  C   UNL     1      -0.355  10.319  22.101  0.00  0.00    +0.000 A 
ATOM      7  C   UNL     1      -0.433  10.406  20.708  0.00  0.00    +0.000 A 
ATOM      8  C   UNL     1       0.362   9.591  19.900  0.00  0.00    +0.000 A 
ATOM      9  C   UNL     1       1.249   8.677  20.467  0.00  0.00    +0.000 A 
ATOM     10  C   UNL     1       1.313   8.574  21.862  0.00  0.00    +0.000 A 
ATOM     11  C   UNL     1       0.520   9.390  22.672  0.00  0.00    +0.000 A 
ENDBRANCH   1   9
BRANCH   2  12
ATOM     12  C   UNL     1       3.422   5.925  19.124  0.00  0.00    +0.000 C 
BRANCH  12  13
ATOM     13  C   UNL     1       3.287   4.460  18.681  0.00  0.00    +0.000 C 
ATOM     14  C   UNL     1       4.293   3.603  19.454  0.00  0.00    +0.000 C 
ATOM     15  O   UNL     1       5.623   4.110  19.233  0.00  0.00    +0.000 OA
ATOM     16  C   UNL     1       5.851   4.333  17.897  0.00  0.00    +0.000 A 
ATOM     17  C   UNL     1       7.137   4.690  17.513  0.00  0.00    +0.000 A 
ATOM     18  C   UNL     1       7.438   4.836  16.157  0.00  0.00    +0.000 A 
ATOM     19  C   UNL     1       6.460   4.585  15.191  0.00  0.00    +0.000 A 
ATOM     20  C   UNL     1       5.150   4.310  15.582  0.00  0.00    +0.000 A 
ATOM     21  C   UNL     1       4.837   4.267  16.938  0.00  0.00    +0.000 A 
ATOM     22  O   UNL     1       3.507   4.248  17.272  0.00  0.00    +0.000 OA
ENDBRANCH  12  13
ENDBRANCH   2  12
TORSDOF 3
ENDMDL
