MODEL 1
REMARK VINA RESULT:      -7.9      0.000      0.000
REMARK  Name = 
REMARK  5 active torsions:
REMARK  status: ('A' for Active; 'I' for Inactive)
REMARK    1  A    between atoms: C_1  and  C_2
REMARK    2  A    between atoms: C_2  and  C_3
REMARK    3  A    between atoms: C_3  and  O_4
REMARK    4  A    between atoms: C_24  and  O_25
REMARK    5  A    between atoms: C_28  and  C_29
REMARK                            x       y       z     vdW  Elec       q    Type
REMARK                         _______ _______ _______ _____ _____    ______ ____
ROOT
ATOM      1  C   UNL     1       1.331  12.561  18.855  0.00  0.00    +0.000 C 
ATOM      2  C   UNL     1       0.752  12.806  20.343  0.00  0.00    +0.000 C 
ATOM      3  C   UNL     1      -0.716  13.050  20.405  0.00  0.00    +0.000 C 
ATOM      4  O   UNL     1      -1.267  14.159  20.530  0.00  0.00    +0.000 OA
ATOM      5  O   UNL     1      -1.444  11.888  20.456  0.00  0.00    +0.000 OA
ATOM      6  C   UNL     1      -1.201  11.006  19.363  0.00  0.00    +0.000 C 
ATOM      7  C   UNL     1       0.159  10.378  19.313  0.00  0.00    +0.000 A 
ATOM      8  C   UNL     1       1.310  10.897  18.785  0.00  0.00    +0.000 A 
ATOM      9  C   UNL     1       2.177   9.709  18.213  0.00  0.00    +0.000 A 
ATOM     10  C   UNL     1       2.075   8.424  18.737  0.00  0.00    +0.000 A 
ATOM     11  N   UNL     1       1.313   8.372  19.899  0.00  0.00    +0.000 N 
ATOM     12  C   UNL     1       0.313   9.242  20.219  0.00  0.00    +0.000 A 
ATOM     13  O   UNL     1      -0.386   9.110  21.216  0.00  0.00    +0.000 OA
ATOM     14  C   UNL     1       1.568   7.230  20.732  0.00  0.00    +0.000 C 
ATOM     15  C   UNL     1       2.322   6.322  19.840  0.00  0.00    +0.000 A 
ATOM     16  C   UNL     1       2.537   6.911  18.592  0.00  0.00    +0.000 A 
ATOM     17  N   UNL     1       2.845   6.090  17.551  0.00  0.00    +0.000 NA
ATOM     18  C   UNL     1       3.049   4.696  17.814  0.00  0.00    +0.000 A 
ATOM     19  C   UNL     1       3.269   3.700  16.820  0.00  0.00    +0.000 A 
ATOM     20  C   UNL     1       3.542   2.318  17.081  0.00  0.00    +0.000 A 
ATOM     21  C   UNL     1       3.613   1.874  18.381  0.00  0.00    +0.000 A 
ATOM     22  C   UNL     1       3.338   2.776  19.390  0.00  0.00    +0.000 A 
ATOM     23  C   UNL     1       3.030   4.148  19.130  0.00  0.00    +0.000 A 
ATOM     24  C   UNL     1       2.642   4.997  20.169  0.00  0.00    +0.000 A 
ATOM     25  C   UNL     1       2.473   4.571  21.606  0.00  0.00    +0.000 C 
ENDROOT
BRANCH   1  27
ATOM     26  C   UNL     1       2.223  15.212  18.640  0.00  0.00    +0.000 C 
ATOM     27  C   UNL     1       2.439  13.722  18.912  0.00  0.00    +0.000 C 
ENDBRANCH   1  27
BRANCH   1  28
ATOM     28  O   UNL     1       0.397  13.002  17.862  0.00  0.00    +0.000 OA
ATOM     29  H   UNL     1      -0.285  12.317  17.724  0.00  0.00    +0.000 HD
ENDBRANCH   1  28
BRANCH  21  30
ATOM     30  O   UNL     1       3.909   0.595  18.741  0.00  0.00    +0.000 OA
ATOM     31  H   UNL     1       4.788   0.346  18.409  0.00  0.00    +0.000 HD
ENDBRANCH  21  30
TORSDOF 3
ENDMDL
MODEL 2
REMARK VINA RESULT:      -6.9      8.873     10.934
REMARK  Name = 
REMARK  5 active torsions:
REMARK  status: ('A' for Active; 'I' for Inactive)
REMARK    1  A    between atoms: C_1  and  C_2
REMARK    2  A    between atoms: C_2  and  C_3
REMARK    3  A    between atoms: C_3  and  O_4
REMARK    4  A    between atoms: C_24  and  O_25
REMARK    5  A    between atoms: C_28  and  C_29
REMARK                            x       y       z     vdW  Elec       q    Type
REMARK                         _______ _______ _______ _____ _____    ______ ____
ROOT
ATOM      1  C   UNL     1       7.711  14.300  26.881  0.00  0.00    +0.000 C 
ATOM      2  C   UNL     1       7.038  12.863  27.180  0.00  0.00    +0.000 C 
ATOM      3  C   UNL     1       5.548  12.867  27.203  0.00  0.00    +0.000 C 
ATOM      4  O   UNL     1       4.834  12.872  28.222  0.00  0.00    +0.000 OA
ATOM      5  O   UNL     1       5.000  12.717  25.954  0.00  0.00    +0.000 OA
ATOM      6  C   UNL     1       5.417  13.707  25.017  0.00  0.00    +0.000 C 
ATOM      7  C   UNL     1       6.856  13.653  24.601  0.00  0.00    +0.000 A 
ATOM      8  C   UNL     1       7.939  14.200  25.235  0.00  0.00    +0.000 A 
ATOM      9  C   UNL     1       8.997  14.622  24.142  0.00  0.00    +0.000 A 
ATOM     10  C   UNL     1       9.064  13.972  22.914  0.00  0.00    +0.000 A 
ATOM     11  N   UNL     1       8.268  12.833  22.860  0.00  0.00    +0.000 N 
ATOM     12  C   UNL     1       7.137  12.631  23.596  0.00  0.00    +0.000 A 
ATOM     13  O   UNL     1       6.424  11.646  23.457  0.00  0.00    +0.000 OA
ATOM     14  C   UNL     1       8.654  11.879  21.857  0.00  0.00    +0.000 C 
ATOM     15  C   UNL     1       9.572  12.652  20.992  0.00  0.00    +0.000 A 
ATOM     16  C   UNL     1       9.751  13.948  21.482  0.00  0.00    +0.000 A 
ATOM     17  N   UNL     1      10.221  14.889  20.619  0.00  0.00    +0.000 NA
ATOM     18  C   UNL     1      10.618  14.479  19.305  0.00  0.00    +0.000 A 
ATOM     19  C   UNL     1      11.026  15.359  18.262  0.00  0.00    +0.000 A 
ATOM     20  C   UNL     1      11.490  14.949  16.969  0.00  0.00    +0.000 A 
ATOM     21  C   UNL     1      11.570  13.609  16.670  0.00  0.00    +0.000 A 
ATOM     22  C   UNL     1      11.121  12.706  17.615  0.00  0.00    +0.000 A 
ATOM     23  C   UNL     1      10.624  13.114  18.892  0.00  0.00    +0.000 A 
ATOM     24  C   UNL     1      10.070  12.179  19.769  0.00  0.00    +0.000 A 
ATOM     25  C   UNL     1       9.904  10.712  19.465  0.00  0.00    +0.000 C 
ENDROOT
BRANCH   1  27
ATOM     26  C   UNL     1       9.476  15.505  28.700  0.00  0.00    +0.000 C 
ATOM     27  C   UNL     1       8.630  14.332  28.197  0.00  0.00    +0.000 C 
ENDBRANCH   1  27
BRANCH   1  28
ATOM     28  O   UNL     1       6.765  15.359  27.077  0.00  0.00    +0.000 OA
ATOM     29  H   UNL     1       7.156  16.208  26.795  0.00  0.00    +0.000 HD
ENDBRANCH   1  28
BRANCH  21  30
ATOM     30  O   UNL     1      12.036  13.111  15.492  0.00  0.00    +0.000 OA
ATOM     31  H   UNL     1      11.923  13.764  14.782  0.00  0.00    +0.000 HD
ENDBRANCH  21  30
TORSDOF 3
ENDMDL
MODEL 3
REMARK VINA RESULT:      -6.9      9.340     10.712
REMARK  Name = 
REMARK  5 active torsions:
REMARK  status: ('A' for Active; 'I' for Inactive)
REMARK    1  A    between atoms: C_1  and  C_2
REMARK    2  A    between atoms: C_2  and  C_3
REMARK    3  A    between atoms: C_3  and  O_4
REMARK    4  A    between atoms: C_24  and  O_25
REMARK    5  A    between atoms: C_28  and  C_29
REMARK                            x       y       z     vdW  Elec       q    Type
REMARK                         _______ _______ _______ _____ _____    ______ ____
ROOT
ATOM      1  C   UNL     1       6.501  11.812  26.789  0.00  0.00    +0.000 C 
ATOM      2  C   UNL     1       5.190  12.755  26.742  0.00  0.00    +0.000 C 
ATOM      3  C   UNL     1       5.278  13.984  27.580  0.00  0.00    +0.000 C 
ATOM      4  O   UNL     1       4.759  14.142  28.700  0.00  0.00    +0.000 OA
ATOM      5  O   UNL     1       5.889  15.025  26.928  0.00  0.00    +0.000 OA
ATOM      6  C   UNL     1       7.204  14.726  26.465  0.00  0.00    +0.000 C 
ATOM      7  C   UNL     1       7.298  13.724  25.354  0.00  0.00    +0.000 A 
ATOM      8  C   UNL     1       7.323  12.358  25.448  0.00  0.00    +0.000 A 
ATOM      9  C   UNL     1       8.215  11.793  24.274  0.00  0.00    +0.000 A 
ATOM     10  C   UNL     1       8.360  12.491  23.079  0.00  0.00    +0.000 A 
ATOM     11  N   UNL     1       7.501  13.580  22.980  0.00  0.00    +0.000 N 
ATOM     12  C   UNL     1       6.997  14.280  24.037  0.00  0.00    +0.000 A 
ATOM     13  O   UNL     1       6.308  15.282  23.899  0.00  0.00    +0.000 OA
ATOM     14  C   UNL     1       7.249  14.023  21.637  0.00  0.00    +0.000 C 
ATOM     15  C   UNL     1       8.311  13.354  20.855  0.00  0.00    +0.000 A 
ATOM     16  C   UNL     1       9.096  12.537  21.672  0.00  0.00    +0.000 A 
ATOM     17  N   UNL     1      10.325  12.179  21.212  0.00  0.00    +0.000 NA
ATOM     18  C   UNL     1      10.696  12.553  19.880  0.00  0.00    +0.000 A 
ATOM     19  C   UNL     1      11.980  12.346  19.299  0.00  0.00    +0.000 A 
ATOM     20  C   UNL     1      12.333  12.655  17.945  0.00  0.00    +0.000 A 
ATOM     21  C   UNL     1      11.388  13.191  17.102  0.00  0.00    +0.000 A 
ATOM     22  C   UNL     1      10.144  13.483  17.625  0.00  0.00    +0.000 A 
ATOM     23  C   UNL     1       9.799  13.208  18.985  0.00  0.00    +0.000 A 
ATOM     24  C   UNL     1       8.572  13.627  19.504  0.00  0.00    +0.000 A 
ATOM     25  C   UNL     1       7.541  14.415  18.737  0.00  0.00    +0.000 C 
ENDROOT
BRANCH   1  27
ATOM     26  C   UNL     1       5.923   9.692  28.533  0.00  0.00    +0.000 C 
ATOM     27  C   UNL     1       5.731  10.475  27.233  0.00  0.00    +0.000 C 
ENDBRANCH   1  27
BRANCH   1  28
ATOM     28  O   UNL     1       7.328  12.141  27.912  0.00  0.00    +0.000 OA
ATOM     29  H   UNL     1       8.135  12.597  27.604  0.00  0.00    +0.000 HD
ENDBRANCH   1  28
BRANCH  21  30
ATOM     30  O   UNL     1      11.605  13.481  15.790  0.00  0.00    +0.000 OA
ATOM     31  H   UNL     1      10.796  13.833  15.384  0.00  0.00    +0.000 HD
ENDBRANCH  21  30
TORSDOF 3
ENDMDL
MODEL 4
REMARK VINA RESULT:      -6.9      2.017      8.694
REMARK  Name = 
REMARK  5 active torsions:
REMARK  status: ('A' for Active; 'I' for Inactive)
REMARK    1  A    between atoms: C_1  and  C_2
REMARK    2  A    between atoms: C_2  and  C_3
REMARK    3  A    between atoms: C_3  and  O_4
REMARK    4  A    between atoms: C_24  and  O_25
REMARK    5  A    between atoms: C_28  and  C_29
REMARK                            x       y       z     vdW  Elec       q    Type
REMARK                         _______ _______ _______ _____ _____    ______ ____
ROOT
ATOM      1  C   UNL     1       4.655   4.684  17.028  0.00  0.00    +0.000 C 
ATOM      2  C   UNL     1       3.589   3.612  17.595  0.00  0.00    +0.000 C 
ATOM      3  C   UNL     1       3.990   2.951  18.868  0.00  0.00    +0.000 C 
ATOM      4  O   UNL     1       4.469   1.808  18.977  0.00  0.00    +0.000 OA
ATOM      5  O   UNL     1       3.644   3.683  19.976  0.00  0.00    +0.000 OA
ATOM      6  C   UNL     1       4.185   5.003  19.989  0.00  0.00    +0.000 C 
ATOM      7  C   UNL     1       3.641   5.946  18.958  0.00  0.00    +0.000 A 
ATOM      8  C   UNL     1       4.039   6.097  17.657  0.00  0.00    +0.000 A 
ATOM      9  C   UNL     1       3.844   7.609  17.248  0.00  0.00    +0.000 A 
ATOM     10  C   UNL     1       2.880   8.404  17.861  0.00  0.00    +0.000 A 
ATOM     11  N   UNL     1       2.023   7.679  18.682  0.00  0.00    +0.000 N 
ATOM     12  C   UNL     1       2.341   6.511  19.311  0.00  0.00    +0.000 A 
ATOM     13  O   UNL     1       1.579   5.949  20.088  0.00  0.00    +0.000 OA
ATOM     14  C   UNL     1       0.759   8.314  18.937  0.00  0.00    +0.000 C 
ATOM     15  C   UNL     1       0.988   9.709  18.502  0.00  0.00    +0.000 A 
ATOM     16  C   UNL     1       2.275   9.867  17.982  0.00  0.00    +0.000 A 
ATOM     17  N   UNL     1       2.778  11.130  17.917  0.00  0.00    +0.000 NA
ATOM     18  C   UNL     1       1.926  12.228  18.265  0.00  0.00    +0.000 A 
ATOM     19  C   UNL     1       2.337  13.589  18.349  0.00  0.00    +0.000 A 
ATOM     20  C   UNL     1       1.474  14.697  18.629  0.00  0.00    +0.000 A 
ATOM     21  C   UNL     1       0.132  14.478  18.835  0.00  0.00    +0.000 A 
ATOM     22  C   UNL     1      -0.318  13.171  18.839  0.00  0.00    +0.000 A 
ATOM     23  C   UNL     1       0.548  12.060  18.595  0.00  0.00    +0.000 A 
ATOM     24  C   UNL     1       0.077  10.752  18.724  0.00  0.00    +0.000 A 
ATOM     25  C   UNL     1      -1.319  10.383  19.157  0.00  0.00    +0.000 C 
ENDROOT
BRANCH   1  27
ATOM     26  C   UNL     1       5.932   4.267  14.564  0.00  0.00    +0.000 C 
ATOM     27  C   UNL     1       4.813   4.013  15.578  0.00  0.00    +0.000 C 
ENDBRANCH   1  27
BRANCH   1  28
ATOM     28  O   UNL     1       5.935   4.510  17.647  0.00  0.00    +0.000 OA
ATOM     29  H   UNL     1       6.613   5.006  17.149  0.00  0.00    +0.000 HD
ENDBRANCH   1  28
BRANCH  21  30
ATOM     30  O   UNL     1      -0.781  15.460  19.065  0.00  0.00    +0.000 OA
ATOM     31  H   UNL     1      -1.668  15.078  19.178  0.00  0.00    +0.000 HD
ENDBRANCH  21  30
TORSDOF 3
ENDMDL
MODEL 5
REMARK VINA RESULT:      -6.9      3.648      6.363
REMARK  Name = 
REMARK  5 active torsions:
REMARK  status: ('A' for Active; 'I' for Inactive)
REMARK    1  A    between atoms: C_1  and  C_2
REMARK    2  A    between atoms: C_2  and  C_3
REMARK    3  A    between atoms: C_3  and  O_4
REMARK    4  A    between atoms: C_24  and  O_25
REMARK    5  A    between atoms: C_28  and  C_29
REMARK                            x       y       z     vdW  Elec       q    Type
REMARK                         _______ _______ _______ _____ _____    ______ ____
ROOT
ATOM      1  C   UNL     1      -3.823  14.236  24.096  0.00  0.00    +0.000 C 
ATOM      2  C   UNL     1      -3.487  15.674  23.443  0.00  0.00    +0.000 C 
ATOM      3  C   UNL     1      -2.697  16.585  24.319  0.00  0.00    +0.000 C 
ATOM      4  O   UNL     1      -3.152  17.533  24.983  0.00  0.00    +0.000 OA
ATOM      5  O   UNL     1      -1.345  16.372  24.220  0.00  0.00    +0.000 OA
ATOM      6  C   UNL     1      -0.947  15.035  24.521  0.00  0.00    +0.000 C 
ATOM      7  C   UNL     1      -1.378  13.986  23.542  0.00  0.00    +0.000 A 
ATOM      8  C   UNL     1      -2.573  13.320  23.488  0.00  0.00    +0.000 A 
ATOM      9  C   UNL     1      -2.309  11.864  22.938  0.00  0.00    +0.000 A 
ATOM     10  C   UNL     1      -1.233  11.594  22.098  0.00  0.00    +0.000 A 
ATOM     11  N   UNL     1      -0.584  12.745  21.663  0.00  0.00    +0.000 N 
ATOM     12  C   UNL     1      -0.546  13.928  22.342  0.00  0.00    +0.000 A 
ATOM     13  O   UNL     1       0.105  14.891  21.959  0.00  0.00    +0.000 OA
ATOM     14  C   UNL     1       0.179  12.582  20.456  0.00  0.00    +0.000 C 
ATOM     15  C   UNL     1       0.278  11.114  20.314  0.00  0.00    +0.000 A 
ATOM     16  C   UNL     1      -0.420  10.463  21.334  0.00  0.00    +0.000 A 
ATOM     17  N   UNL     1      -0.106   9.163  21.584  0.00  0.00    +0.000 NA
ATOM     18  C   UNL     1       0.825   8.503  20.718  0.00  0.00    +0.000 A 
ATOM     19  C   UNL     1       1.333   7.186  20.913  0.00  0.00    +0.000 A 
ATOM     20  C   UNL     1       2.209   6.497  20.013  0.00  0.00    +0.000 A 
ATOM     21  C   UNL     1       2.616   7.115  18.854  0.00  0.00    +0.000 A 
ATOM     22  C   UNL     1       2.217   8.421  18.642  0.00  0.00    +0.000 A 
ATOM     23  C   UNL     1       1.370   9.124  19.555  0.00  0.00    +0.000 A 
ATOM     24  C   UNL     1       1.088  10.477  19.362  0.00  0.00    +0.000 A 
ATOM     25  C   UNL     1       1.652  11.320  18.246  0.00  0.00    +0.000 C 
ENDROOT
BRANCH   1  27
ATOM     26  C   UNL     1      -6.396  13.165  23.775  0.00  0.00    +0.000 C 
ATOM     27  C   UNL     1      -5.414  14.331  23.902  0.00  0.00    +0.000 C 
ENDBRANCH   1  27
BRANCH   1  28
ATOM     28  O   UNL     1      -3.631  14.260  25.516  0.00  0.00    +0.000 OA
ATOM     29  H   UNL     1      -3.515  15.181  25.817  0.00  0.00    +0.000 HD
ENDBRANCH   1  28
BRANCH  21  30
ATOM     30  O   UNL     1       3.410   6.537  17.913  0.00  0.00    +0.000 OA
ATOM     31  H   UNL     1       2.909   6.390  17.093  0.00  0.00    +0.000 HD
ENDBRANCH  21  30
TORSDOF 3
ENDMDL
MODEL 6
REMARK VINA RESULT:      -6.9      1.632      3.232
REMARK  Name = 
REMARK  5 active torsions:
REMARK  status: ('A' for Active; 'I' for Inactive)
REMARK    1  A    between atoms: C_1  and  C_2
REMARK    2  A    between atoms: C_2  and  C_3
REMARK    3  A    between atoms: C_3  and  O_4
REMARK    4  A    between atoms: C_24  and  O_25
REMARK    5  A    between atoms: C_28  and  C_29
REMARK                            x       y       z     vdW  Elec       q    Type
REMARK                         _______ _______ _______ _____ _____    ______ ____
ROOT
ATOM      1  C   UNL     1      -1.486  12.258  19.668  0.00  0.00    +0.000 C 
ATOM      2  C   UNL     1      -0.871  13.105  18.438  0.00  0.00    +0.000 C 
ATOM      3  C   UNL     1      -0.018  14.258  18.842  0.00  0.00    +0.000 C 
ATOM      4  O   UNL     1      -0.366  15.453  18.859  0.00  0.00    +0.000 OA
ATOM      5  O   UNL     1       1.286  13.896  19.072  0.00  0.00    +0.000 OA
ATOM      6  C   UNL     1       1.438  12.881  20.062  0.00  0.00    +0.000 C 
ATOM      7  C   UNL     1       0.924  11.522  19.695  0.00  0.00    +0.000 A 
ATOM      8  C   UNL     1      -0.355  11.044  19.804  0.00  0.00    +0.000 A 
ATOM      9  C   UNL     1      -0.285   9.497  20.111  0.00  0.00    +0.000 A 
ATOM     10  C   UNL     1       0.798   8.728  19.697  0.00  0.00    +0.000 A 
ATOM     11  N   UNL     1       1.656   9.415  18.846  0.00  0.00    +0.000 N 
ATOM     12  C   UNL     1       1.829  10.768  18.831  0.00  0.00    +0.000 A 
ATOM     13  O   UNL     1       2.656  11.322  18.118  0.00  0.00    +0.000 OA
ATOM     14  C   UNL     1       2.478   8.575  18.018  0.00  0.00    +0.000 C 
ATOM     15  C   UNL     1       2.350   7.246  18.654  0.00  0.00    +0.000 A 
ATOM     16  C   UNL     1       1.477   7.293  19.743  0.00  0.00    +0.000 A 
ATOM     17  N   UNL     1       1.557   6.290  20.660  0.00  0.00    +0.000 NA
ATOM     18  C   UNL     1       2.436   5.190  20.399  0.00  0.00    +0.000 A 
ATOM     19  C   UNL     1       2.708   4.126  21.306  0.00  0.00    +0.000 A 
ATOM     20  C   UNL     1       3.532   2.988  21.023  0.00  0.00    +0.000 A 
ATOM     21  C   UNL     1       4.124   2.869  19.787  0.00  0.00    +0.000 A 
ATOM     22  C   UNL     1       3.959   3.904  18.887  0.00  0.00    +0.000 A 
ATOM     23  C   UNL     1       3.166   5.058  19.180  0.00  0.00    +0.000 A 
ATOM     24  C   UNL     1       3.122   6.132  18.290  0.00  0.00    +0.000 A 
ATOM     25  C   UNL     1       3.901   6.211  17.002  0.00  0.00    +0.000 C 
ENDROOT
BRANCH   1  27
ATOM     26  C   UNL     1      -3.730  11.581  18.126  0.00  0.00    +0.000 C 
ATOM     27  C   UNL     1      -3.020  12.391  19.213  0.00  0.00    +0.000 C 
ENDBRANCH   1  27
BRANCH   1  28
ATOM     28  O   UNL     1      -1.407  13.000  20.891  0.00  0.00    +0.000 OA
ATOM     29  H   UNL     1      -1.949  13.808  20.822  0.00  0.00    +0.000 HD
ENDBRANCH   1  28
BRANCH  21  30
ATOM     30  O   UNL     1       4.889   1.812  19.400  0.00  0.00    +0.000 OA
ATOM     31  H   UNL     1       4.869   1.718  18.433  0.00  0.00    +0.000 HD
ENDBRANCH  21  30
TORSDOF 3
ENDMDL
MODEL 7
REMARK VINA RESULT:      -6.7      3.954      6.270
REMARK  Name = 
REMARK  5 active torsions:
REMARK  status: ('A' for Active; 'I' for Inactive)
REMARK    1  A    between atoms: C_1  and  C_2
REMARK    2  A    between atoms: C_2  and  C_3
REMARK    3  A    between atoms: C_3  and  O_4
REMARK    4  A    between atoms: C_24  and  O_25
REMARK    5  A    between atoms: C_28  and  C_29
REMARK                            x       y       z     vdW  Elec       q    Type
REMARK                         _______ _______ _______ _____ _____    ______ ____
ROOT
ATOM      1  C   UNL     1      -4.154  16.348  21.462  0.00  0.00    +0.000 C 
ATOM      2  C   UNL     1      -4.724  16.164  22.962  0.00  0.00    +0.000 C 
ATOM      3  C   UNL     1      -6.163  15.786  23.038  0.00  0.00    +0.000 C 
ATOM      4  O   UNL     1      -7.107  16.555  23.292  0.00  0.00    +0.000 OA
ATOM      5  O   UNL     1      -6.359  14.431  22.940  0.00  0.00    +0.000 OA
ATOM      6  C   UNL     1      -5.826  13.855  21.749  0.00  0.00    +0.000 C 
ATOM      7  C   UNL     1      -4.331  13.841  21.637  0.00  0.00    +0.000 A 
ATOM      8  C   UNL     1      -3.508  14.838  21.189  0.00  0.00    +0.000 A 
ATOM      9  C   UNL     1      -2.260  14.176  20.485  0.00  0.00    +0.000 A 
ATOM     10  C   UNL     1      -1.816  12.908  20.847  0.00  0.00    +0.000 A 
ATOM     11  N   UNL     1      -2.446  12.418  21.985  0.00  0.00    +0.000 N 
ATOM     12  C   UNL     1      -3.698  12.767  22.400  0.00  0.00    +0.000 A 
ATOM     13  O   UNL     1      -4.244  12.249  23.365  0.00  0.00    +0.000 OA
ATOM     14  C   UNL     1      -1.720  11.388  22.675  0.00  0.00    +0.000 C 
ATOM     15  C   UNL     1      -0.701  10.972  21.687  0.00  0.00    +0.000 A 
ATOM     16  C   UNL     1      -0.791  11.738  20.523  0.00  0.00    +0.000 A 
ATOM     17  N   UNL     1      -0.221  11.238  19.393  0.00  0.00    +0.000 NA
ATOM     18  C   UNL     1       0.536  10.025  19.485  0.00  0.00    +0.000 A 
ATOM     19  C   UNL     1       1.098   9.325  18.379  0.00  0.00    +0.000 A 
ATOM     20  C   UNL     1       1.915   8.151  18.473  0.00  0.00    +0.000 A 
ATOM     21  C   UNL     1       2.210   7.626  19.709  0.00  0.00    +0.000 A 
ATOM     22  C   UNL     1       1.635   8.217  20.818  0.00  0.00    +0.000 A 
ATOM     23  C   UNL     1       0.791   9.368  20.725  0.00  0.00    +0.000 A 
ATOM     24  C   UNL     1       0.137   9.861  21.855  0.00  0.00    +0.000 A 
ATOM     25  C   UNL     1       0.210   9.239  23.227  0.00  0.00    +0.000 C 
ENDROOT
BRANCH   1  27
ATOM     26  C   UNL     1      -2.180  18.341  21.424  0.00  0.00    +0.000 C 
ATOM     27  C   UNL     1      -3.606  17.842  21.672  0.00  0.00    +0.000 C 
ENDBRANCH   1  27
BRANCH   1  28
ATOM     28  O   UNL     1      -5.226  16.486  20.521  0.00  0.00    +0.000 OA
ATOM     29  H   UNL     1      -5.730  17.299  20.712  0.00  0.00    +0.000 HD
ENDBRANCH   1  28
BRANCH  21  30
ATOM     30  O   UNL     1       3.008   6.543  19.914  0.00  0.00    +0.000 OA
ATOM     31  H   UNL     1       3.532   6.355  19.117  0.00  0.00    +0.000 HD
ENDBRANCH  21  30
TORSDOF 3
ENDMDL
MODEL 8
REMARK VINA RESULT:      -6.5      1.937      3.748
REMARK  Name = 
REMARK  5 active torsions:
REMARK  status: ('A' for Active; 'I' for Inactive)
REMARK    1  A    between atoms: C_1  and  C_2
REMARK    2  A    between atoms: C_2  and  C_3
REMARK    3  A    between atoms: C_3  and  O_4
REMARK    4  A    between atoms: C_24  and  O_25
REMARK    5  A    between atoms: C_28  and  C_29
REMARK                            x       y       z     vdW  Elec       q    Type
REMARK                         _______ _______ _______ _____ _____    ______ ____
ROOT
ATOM      1  C   UNL     1      -1.717  13.304  21.102  0.00  0.00    +0.000 C 
ATOM      2  C   UNL     1      -1.193  14.332  19.972  0.00  0.00    +0.000 C 
ATOM      3  C   UNL     1      -0.271  15.389  20.474  0.00  0.00    +0.000 C 
ATOM      4  O   UNL     1      -0.579  16.570  20.718  0.00  0.00    +0.000 OA
ATOM      5  O   UNL     1       1.036  14.975  20.515  0.00  0.00    +0.000 OA
ATOM      6  C   UNL     1       1.248  13.809  21.308  0.00  0.00    +0.000 C 
ATOM      7  C   UNL     1       0.661  12.536  20.776  0.00  0.00    +0.000 A 
ATOM      8  C   UNL     1      -0.616  12.067  20.929  0.00  0.00    +0.000 A 
ATOM      9  C   UNL     1      -0.566  10.489  20.974  0.00  0.00    +0.000 A 
ATOM     10  C   UNL     1       0.449   9.782  20.337  0.00  0.00    +0.000 A 
ATOM     11  N   UNL     1       1.245  10.587  19.530  0.00  0.00    +0.000 N 
ATOM     12  C   UNL     1       1.458  11.921  19.718  0.00  0.00    +0.000 A 
ATOM     13  O   UNL     1       2.231  12.572  19.028  0.00  0.00    +0.000 OA
ATOM     14  C   UNL     1       1.960   9.882  18.501  0.00  0.00    +0.000 C 
ATOM     15  C   UNL     1       1.851   8.468  18.922  0.00  0.00    +0.000 A 
ATOM     16  C   UNL     1       1.085   8.348  20.084  0.00  0.00    +0.000 A 
ATOM     17  N   UNL     1       1.218   7.208  20.813  0.00  0.00    +0.000 NA
ATOM     18  C   UNL     1       2.035   6.152  20.293  0.00  0.00    +0.000 A 
ATOM     19  C   UNL     1       2.357   4.949  20.985  0.00  0.00    +0.000 A 
ATOM     20  C   UNL     1       3.115   3.861  20.443  0.00  0.00    +0.000 A 
ATOM     21  C   UNL     1       3.586   3.938  19.153  0.00  0.00    +0.000 A 
ATOM     22  C   UNL     1       3.370   5.109  18.453  0.00  0.00    +0.000 A 
ATOM     23  C   UNL     1       2.644   6.211  19.005  0.00  0.00    +0.000 A 
ATOM     24  C   UNL     1       2.550   7.418  18.309  0.00  0.00    +0.000 A 
ATOM     25  C   UNL     1       3.209   7.696  16.982  0.00  0.00    +0.000 C 
ENDROOT
BRANCH   1  27
ATOM     26  C   UNL     1      -4.450  12.803  21.493  0.00  0.00    +0.000 C 
ATOM     27  C   UNL     1      -3.282  13.533  20.826  0.00  0.00    +0.000 C 
ENDBRANCH   1  27
BRANCH   1  28
ATOM     28  O   UNL     1      -1.502  13.833  22.416  0.00  0.00    +0.000 OA
ATOM     29  H   UNL     1      -1.167  13.130  23.004  0.00  0.00    +0.000 HD
ENDBRANCH   1  28
BRANCH  21  30
ATOM     30  O   UNL     1       4.278   2.947  18.527  0.00  0.00    +0.000 OA
ATOM     31  H   UNL     1       5.097   3.300  18.141  0.00  0.00    +0.000 HD
ENDBRANCH  21  30
TORSDOF 3
ENDMDL
MODEL 9
REMARK VINA RESULT:      -6.5      8.167     11.095
REMARK  Name = 
REMARK  5 active torsions:
REMARK  status: ('A' for Active; 'I' for Inactive)
REMARK    1  A    between atoms: C_1  and  C_2
REMARK    2  A    between atoms: C_2  and  C_3
REMARK    3  A    between atoms: C_3  and  O_4
REMARK    4  A    between atoms: C_24  and  O_25
REMARK    5  A    between atoms: C_28  and  C_29
REMARK                            x       y       z     vdW  Elec       q    Type
REMARK                         _______ _______ _______ _____ _____    ______ ____
ROOT
ATOM      1  C   UNL     1       8.835  13.844  18.336  0.00  0.00    +0.000 C 
ATOM      2  C   UNL     1       8.981  13.119  19.772  0.00  0.00    +0.000 C 
ATOM      3  C   UNL     1       9.851  13.836  20.745  0.00  0.00    +0.000 C 
ATOM      4  O   UNL     1      11.029  13.547  21.021  0.00  0.00    +0.000 OA
ATOM      5  O   UNL     1       9.174  14.800  21.449  0.00  0.00    +0.000 OA
ATOM      6  C   UNL     1       8.548  15.783  20.627  0.00  0.00    +0.000 C 
ATOM      7  C   UNL     1       7.395  15.308  19.796  0.00  0.00    +0.000 A 
ATOM      8  C   UNL     1       7.430  14.707  18.566  0.00  0.00    +0.000 A 
ATOM      9  C   UNL     1       6.138  15.133  17.766  0.00  0.00    +0.000 A 
ATOM     10  C   UNL     1       4.963  15.480  18.425  0.00  0.00    +0.000 A 
ATOM     11  N   UNL     1       5.010  15.217  19.789  0.00  0.00    +0.000 N 
ATOM     12  C   UNL     1       6.145  15.186  20.544  0.00  0.00    +0.000 A 
ATOM     13  O   UNL     1       6.130  15.028  21.758  0.00  0.00    +0.000 OA
ATOM     14  C   UNL     1       3.724  15.084  20.417  0.00  0.00    +0.000 C 
ATOM     15  C   UNL     1       2.796  15.645  19.411  0.00  0.00    +0.000 A 
ATOM     16  C   UNL     1       3.482  16.031  18.257  0.00  0.00    +0.000 A 
ATOM     17  N   UNL     1       2.867  16.912  17.422  0.00  0.00    +0.000 NA
ATOM     18  C   UNL     1       1.517  17.297  17.705  0.00  0.00    +0.000 A 
ATOM     19  C   UNL     1       0.781  18.285  16.989  0.00  0.00    +0.000 A 
ATOM     20  C   UNL     1      -0.592  18.624  17.224  0.00  0.00    +0.000 A 
ATOM     21  C   UNL     1      -1.296  17.964  18.204  0.00  0.00    +0.000 A 
ATOM     22  C   UNL     1      -0.619  17.045  18.982  0.00  0.00    +0.000 A 
ATOM     23  C   UNL     1       0.761  16.731  18.773  0.00  0.00    +0.000 A 
ATOM     24  C   UNL     1       1.436  15.886  19.656  0.00  0.00    +0.000 A 
ATOM     25  C   UNL     1       0.828  15.273  20.892  0.00  0.00    +0.000 C 
ENDROOT
BRANCH   1  27
ATOM     26  C   UNL     1      10.317  11.507  17.875  0.00  0.00    +0.000 C 
ATOM     27  C   UNL     1       9.313  12.585  17.462  0.00  0.00    +0.000 C 
ENDBRANCH   1  27
BRANCH   1  28
ATOM     28  O   UNL     1       9.865  14.823  18.151  0.00  0.00    +0.000 OA
ATOM     29  H   UNL     1       9.649  15.630  18.656  0.00  0.00    +0.000 HD
ENDBRANCH   1  28
BRANCH  21  30
ATOM     30  O   UNL     1      -2.612  18.177  18.480  0.00  0.00    +0.000 OA
ATOM     31  H   UNL     1      -3.010  18.750  17.804  0.00  0.00    +0.000 HD
ENDBRANCH  21  30
TORSDOF 3
ENDMDL
