MODEL 1
REMARK VINA RESULT:      -7.6      0.000      0.000
REMARK  Name = 
REMARK  4 active torsions:
REMARK  status: ('A' for Active; 'I' for Inactive)
REMARK    1  A    between atoms: C_1  and  C_2
REMARK    2  A    between atoms: C_11  and  C_12
REMARK    3  A    between atoms: C_17  and  C_18
REMARK    4  A    between atoms: C_21  and  C_22
REMARK                            x       y       z     vdW  Elec       q    Type
REMARK                         _______ _______ _______ _____ _____    ______ ____
ROOT
ATOM      1  C   UNL     1      -0.067  12.470  19.618  0.00  0.00    +0.000 C 
ATOM      2  C   UNL     1       0.127  11.280  20.514  0.00  0.00    +0.000 A 
ATOM      3  C   UNL     1      -0.288  11.276  21.790  0.00  0.00    +0.000 A 
ATOM      4  C   UNL     1      -0.085  10.057  22.593  0.00  0.00    +0.000 A 
ATOM      5  O   UNL     1      -0.414  10.010  23.773  0.00  0.00    +0.000 OA
ATOM      6  N   UNL     1       0.488   9.017  21.930  0.00  0.00    +0.000 N 
ATOM      7  C   UNL     1       0.901   9.145  20.635  0.00  0.00    +0.000 A 
ATOM      8  N   UNL     1       1.533   7.974  20.159  0.00  0.00    +0.000 N 
ATOM      9  N   UNL     1       1.566   6.852  20.945  0.00  0.00    +0.000 NA
ATOM     10  C   UNL     1       2.215   5.952  20.203  0.00  0.00    +0.000 A 
ATOM     11  C   UNL     1       2.638   6.452  18.952  0.00  0.00    +0.000 A 
ATOM     12  C   UNL     1       2.172   7.764  18.948  0.00  0.00    +0.000 A 
ATOM     13  C   UNL     1       2.288   8.850  17.929  0.00  0.00    +0.000 C 
ATOM     14  N   UNL     1       0.750  10.214  19.917  0.00  0.00    +0.000 NA
ATOM     15  H   UNL     1       0.661   8.148  22.423  0.00  0.00    +0.000 HD
ENDROOT
BRANCH  11  16
ATOM     16  C   UNL     1       3.407   5.829  17.873  0.00  0.00    +0.000 C 
ATOM     17  O   UNL     1       2.898   4.939  17.202  0.00  0.00    +0.000 OA
ATOM     18  N   UNL     1       4.699   6.285  17.713  0.00  0.00    +0.000 N 
ATOM     19  C   UNL     1       5.485   5.730  16.736  0.00  0.00    +0.000 A 
ATOM     20  N   UNL     1       5.120   4.941  15.761  0.00  0.00    +0.000 NA
ATOM     21  C   UNL     1       6.220   4.495  15.062  0.00  0.00    +0.000 A 
ATOM     22  C   UNL     1       5.998   3.536  13.951  0.00  0.00    +0.000 C 
ATOM     23  C   UNL     1       7.425   4.996  15.521  0.00  0.00    +0.000 A 
ATOM     24  S   UNL     1       7.148   6.085  16.826  0.00  0.00    +0.000 S 
ATOM     25  H   UNL     1       5.139   6.915  18.361  0.00  0.00    +0.000 HD
ENDBRANCH  11  16
TORSDOF 1
ENDMDL
MODEL 2
REMARK VINA RESULT:      -7.4      3.104      8.630
REMARK  Name = 
REMARK  4 active torsions:
REMARK  status: ('A' for Active; 'I' for Inactive)
REMARK    1  A    between atoms: C_1  and  C_2
REMARK    2  A    between atoms: C_11  and  C_12
REMARK    3  A    between atoms: C_17  and  C_18
REMARK    4  A    between atoms: C_21  and  C_22
REMARK                            x       y       z     vdW  Elec       q    Type
REMARK                         _______ _______ _______ _____ _____    ______ ____
ROOT
ATOM      1  C   UNL     1       4.313   3.425  19.337  0.00  0.00    +0.000 C 
ATOM      2  C   UNL     1       4.357   4.626  18.436  0.00  0.00    +0.000 A 
ATOM      3  C   UNL     1       5.153   4.676  17.358  0.00  0.00    +0.000 A 
ATOM      4  C   UNL     1       5.115   5.881  16.510  0.00  0.00    +0.000 A 
ATOM      5  O   UNL     1       5.847   5.995  15.532  0.00  0.00    +0.000 OA
ATOM      6  N   UNL     1       4.226   6.834  16.899  0.00  0.00    +0.000 N 
ATOM      7  C   UNL     1       3.486   6.688  18.037  0.00  0.00    +0.000 A 
ATOM      8  N   UNL     1       2.679   7.820  18.296  0.00  0.00    +0.000 N 
ATOM      9  N   UNL     1       2.626   8.839  17.383  0.00  0.00    +0.000 NA
ATOM     10  C   UNL     1       1.784   9.722  17.928  0.00  0.00    +0.000 A 
ATOM     11  C   UNL     1       1.295   9.328  19.192  0.00  0.00    +0.000 A 
ATOM     12  C   UNL     1       1.886   8.085  19.400  0.00  0.00    +0.000 A 
ATOM     13  C   UNL     1       1.798   7.129  20.545  0.00  0.00    +0.000 C 
ATOM     14  N   UNL     1       3.519   5.646  18.807  0.00  0.00    +0.000 NA
ATOM     15  H   UNL     1       4.150   7.692  16.363  0.00  0.00    +0.000 HD
ENDROOT
BRANCH  11  16
ATOM     16  C   UNL     1       0.406  10.006  20.137  0.00  0.00    +0.000 C 
ATOM     17  O   UNL     1      -0.630   9.460  20.494  0.00  0.00    +0.000 OA
ATOM     18  N   UNL     1       0.803  11.265  20.540  0.00  0.00    +0.000 N 
ATOM     19  C   UNL     1       0.007  11.968  21.407  0.00  0.00    +0.000 A 
ATOM     20  N   UNL     1      -1.013  11.532  22.097  0.00  0.00    +0.000 NA
ATOM     21  C   UNL     1      -1.631  12.572  22.757  0.00  0.00    +0.000 A 
ATOM     22  C   UNL     1      -2.851  12.270  23.546  0.00  0.00    +0.000 C 
ATOM     23  C   UNL     1      -1.025  13.801  22.570  0.00  0.00    +0.000 A 
ATOM     24  S   UNL     1       0.373  13.622  21.580  0.00  0.00    +0.000 S 
ATOM     25  H   UNL     1       1.582  11.748  20.130  0.00  0.00    +0.000 HD
ENDBRANCH  11  16
TORSDOF 1
ENDMDL
MODEL 3
REMARK VINA RESULT:      -7.3      3.270      3.923
REMARK  Name = 
REMARK  4 active torsions:
REMARK  status: ('A' for Active; 'I' for Inactive)
REMARK    1  A    between atoms: C_1  and  C_2
REMARK    2  A    between atoms: C_11  and  C_12
REMARK    3  A    between atoms: C_17  and  C_18
REMARK    4  A    between atoms: C_21  and  C_22
REMARK                            x       y       z     vdW  Elec       q    Type
REMARK                         _______ _______ _______ _____ _____    ______ ____
ROOT
ATOM      1  C   UNL     1      -0.946  11.898  22.410  0.00  0.00    +0.000 C 
ATOM      2  C   UNL     1      -0.533  11.781  20.970  0.00  0.00    +0.000 A 
ATOM      3  C   UNL     1      -0.859  12.711  20.060  0.00  0.00    +0.000 A 
ATOM      4  C   UNL     1      -0.390  12.534  18.674  0.00  0.00    +0.000 A 
ATOM      5  O   UNL     1      -0.686  13.336  17.794  0.00  0.00    +0.000 OA
ATOM      6  N   UNL     1       0.376  11.432  18.459  0.00  0.00    +0.000 N 
ATOM      7  C   UNL     1       0.618  10.533  19.458  0.00  0.00    +0.000 A 
ATOM      8  N   UNL     1       1.373   9.426  19.007  0.00  0.00    +0.000 N 
ATOM      9  N   UNL     1       1.863   9.413  17.728  0.00  0.00    +0.000 NA
ATOM     10  C   UNL     1       2.519   8.253  17.641  0.00  0.00    +0.000 A 
ATOM     11  C   UNL     1       2.459   7.481  18.821  0.00  0.00    +0.000 A 
ATOM     12  C   UNL     1       1.716   8.273  19.693  0.00  0.00    +0.000 A 
ATOM     13  C   UNL     1       1.276   8.044  21.103  0.00  0.00    +0.000 C 
ATOM     14  N   UNL     1       0.199  10.658  20.678  0.00  0.00    +0.000 NA
ATOM     15  H   UNL     1       0.730  11.245  17.527  0.00  0.00    +0.000 HD
ENDROOT
BRANCH  11  16
ATOM     16  C   UNL     1       2.989   6.153  19.134  0.00  0.00    +0.000 C 
ATOM     17  O   UNL     1       3.920   6.043  19.922  0.00  0.00    +0.000 OA
ATOM     18  N   UNL     1       2.400   5.098  18.470  0.00  0.00    +0.000 N 
ATOM     19  C   UNL     1       2.861   3.826  18.697  0.00  0.00    +0.000 A 
ATOM     20  N   UNL     1       3.675   3.421  19.636  0.00  0.00    +0.000 NA
ATOM     21  C   UNL     1       3.999   2.095  19.456  0.00  0.00    +0.000 A 
ATOM     22  C   UNL     1       4.965   1.479  20.399  0.00  0.00    +0.000 C 
ATOM     23  C   UNL     1       3.380   1.502  18.370  0.00  0.00    +0.000 A 
ATOM     24  S   UNL     1       2.337   2.636  17.599  0.00  0.00    +0.000 S 
ATOM     25  H   UNL     1       1.734   5.224  17.727  0.00  0.00    +0.000 HD
ENDBRANCH  11  16
TORSDOF 1
ENDMDL
MODEL 4
REMARK VINA RESULT:      -7.1      5.368      7.401
REMARK  Name = 
REMARK  4 active torsions:
REMARK  status: ('A' for Active; 'I' for Inactive)
REMARK    1  A    between atoms: C_1  and  C_2
REMARK    2  A    between atoms: C_11  and  C_12
REMARK    3  A    between atoms: C_17  and  C_18
REMARK    4  A    between atoms: C_21  and  C_22
REMARK                            x       y       z     vdW  Elec       q    Type
REMARK                         _______ _______ _______ _____ _____    ______ ____
ROOT
ATOM      1  C   UNL     1       1.535   4.392  17.451  0.00  0.00    +0.000 C 
ATOM      2  C   UNL     1       2.814   3.917  18.081  0.00  0.00    +0.000 A 
ATOM      3  C   UNL     1       2.916   2.710  18.658  0.00  0.00    +0.000 A 
ATOM      4  C   UNL     1       4.215   2.310  19.228  0.00  0.00    +0.000 A 
ATOM      5  O   UNL     1       4.356   1.233  19.798  0.00  0.00    +0.000 OA
ATOM      6  N   UNL     1       5.216   3.217  19.077  0.00  0.00    +0.000 N 
ATOM      7  C   UNL     1       4.989   4.432  18.498  0.00  0.00    +0.000 A 
ATOM      8  N   UNL     1       6.142   5.249  18.504  0.00  0.00    +0.000 N 
ATOM      9  N   UNL     1       7.333   4.741  18.950  0.00  0.00    +0.000 NA
ATOM     10  C   UNL     1       8.193   5.754  18.813  0.00  0.00    +0.000 A 
ATOM     11  C   UNL     1       7.600   6.933  18.311  0.00  0.00    +0.000 A 
ATOM     12  C   UNL     1       6.271   6.571  18.110  0.00  0.00    +0.000 A 
ATOM     13  C   UNL     1       5.101   7.352  17.606  0.00  0.00    +0.000 C 
ATOM     14  N   UNL     1       3.850   4.812  18.008  0.00  0.00    +0.000 NA
ATOM     15  H   UNL     1       6.137   3.009  19.450  0.00  0.00    +0.000 HD
ENDROOT
BRANCH  11  16
ATOM     16  C   UNL     1       8.159   8.262  18.058  0.00  0.00    +0.000 C 
ATOM     17  O   UNL     1       8.246   8.674  16.908  0.00  0.00    +0.000 OA
ATOM     18  N   UNL     1       8.588   8.956  19.170  0.00  0.00    +0.000 N 
ATOM     19  C   UNL     1       9.144  10.199  19.006  0.00  0.00    +0.000 A 
ATOM     20  N   UNL     1       9.147  10.944  17.933  0.00  0.00    +0.000 NA
ATOM     21  C   UNL     1       9.914  12.070  18.128  0.00  0.00    +0.000 A 
ATOM     22  C   UNL     1      10.082  13.006  16.988  0.00  0.00    +0.000 C 
ATOM     23  C   UNL     1      10.465  12.169  19.393  0.00  0.00    +0.000 A 
ATOM     24  S   UNL     1       9.959  10.835  20.358  0.00  0.00    +0.000 S 
ATOM     25  H   UNL     1       8.635   8.544  20.086  0.00  0.00    +0.000 HD
ENDBRANCH  11  16
TORSDOF 1
ENDMDL
MODEL 5
REMARK VINA RESULT:      -7.1      3.514      4.748
REMARK  Name = 
REMARK  4 active torsions:
REMARK  status: ('A' for Active; 'I' for Inactive)
REMARK    1  A    between atoms: C_1  and  C_2
REMARK    2  A    between atoms: C_11  and  C_12
REMARK    3  A    between atoms: C_17  and  C_18
REMARK    4  A    between atoms: C_21  and  C_22
REMARK                            x       y       z     vdW  Elec       q    Type
REMARK                         _______ _______ _______ _____ _____    ______ ____
ROOT
ATOM      1  C   UNL     1      -5.815  11.611  17.703  0.00  0.00    +0.000 C 
ATOM      2  C   UNL     1      -4.816  12.107  18.710  0.00  0.00    +0.000 A 
ATOM      3  C   UNL     1      -5.119  13.068  19.596  0.00  0.00    +0.000 A 
ATOM      4  C   UNL     1      -4.090  13.477  20.570  0.00  0.00    +0.000 A 
ATOM      5  O   UNL     1      -4.301  14.373  21.380  0.00  0.00    +0.000 OA
ATOM      6  N   UNL     1      -2.917  12.795  20.491  0.00  0.00    +0.000 N 
ATOM      7  C   UNL     1      -2.708  11.854  19.523  0.00  0.00    +0.000 A 
ATOM      8  N   UNL     1      -1.401  11.319  19.574  0.00  0.00    +0.000 N 
ATOM      9  N   UNL     1      -0.558  11.678  20.592  0.00  0.00    +0.000 NA
ATOM     10  C   UNL     1       0.564  10.998  20.343  0.00  0.00    +0.000 A 
ATOM     11  C   UNL     1       0.499  10.213  19.171  0.00  0.00    +0.000 A 
ATOM     12  C   UNL     1      -0.791  10.434  18.700  0.00  0.00    +0.000 A 
ATOM     13  C   UNL     1      -1.504   9.914  17.493  0.00  0.00    +0.000 C 
ATOM     14  N   UNL     1      -3.591  11.494  18.646  0.00  0.00    +0.000 NA
ATOM     15  H   UNL     1      -2.162  13.027  21.128  0.00  0.00    +0.000 HD
ENDROOT
BRANCH  11  16
ATOM     16  C   UNL     1       1.501   9.367  18.520  0.00  0.00    +0.000 C 
ATOM     17  O   UNL     1       1.977   9.711  17.445  0.00  0.00    +0.000 OA
ATOM     18  N   UNL     1       1.816   8.195  19.174  0.00  0.00    +0.000 N 
ATOM     19  C   UNL     1       2.730   7.342  18.610  0.00  0.00    +0.000 A 
ATOM     20  N   UNL     1       3.532   7.573  17.604  0.00  0.00    +0.000 NA
ATOM     21  C   UNL     1       4.211   6.427  17.254  0.00  0.00    +0.000 A 
ATOM     22  C   UNL     1       5.126   6.488  16.087  0.00  0.00    +0.000 C 
ATOM     23  C   UNL     1       3.920   5.331  18.046  0.00  0.00    +0.000 A 
ATOM     24  S   UNL     1       2.806   5.780  19.281  0.00  0.00    +0.000 S 
ATOM     25  H   UNL     1       1.314   7.868  19.981  0.00  0.00    +0.000 HD
ENDBRANCH  11  16
TORSDOF 1
ENDMDL
MODEL 6
REMARK VINA RESULT:      -7.1      3.240      7.795
REMARK  Name = 
REMARK  4 active torsions:
REMARK  status: ('A' for Active; 'I' for Inactive)
REMARK    1  A    between atoms: C_1  and  C_2
REMARK    2  A    between atoms: C_11  and  C_12
REMARK    3  A    between atoms: C_17  and  C_18
REMARK    4  A    between atoms: C_21  and  C_22
REMARK                            x       y       z     vdW  Elec       q    Type
REMARK                         _______ _______ _______ _____ _____    ______ ____
ROOT
ATOM      1  C   UNL     1       3.785   5.151  17.287  0.00  0.00    +0.000 C 
ATOM      2  C   UNL     1       3.083   5.365  18.598  0.00  0.00    +0.000 A 
ATOM      3  C   UNL     1       2.897   4.367  19.475  0.00  0.00    +0.000 A 
ATOM      4  C   UNL     1       2.223   4.668  20.752  0.00  0.00    +0.000 A 
ATOM      5  O   UNL     1       1.997   3.788  21.575  0.00  0.00    +0.000 OA
ATOM      6  N   UNL     1       1.880   5.972  20.930  0.00  0.00    +0.000 N 
ATOM      7  C   UNL     1       2.091   6.900  19.951  0.00  0.00    +0.000 A 
ATOM      8  N   UNL     1       1.598   8.175  20.310  0.00  0.00    +0.000 N 
ATOM      9  N   UNL     1       1.095   8.379  21.568  0.00  0.00    +0.000 NA
ATOM     10  C   UNL     1       0.734   9.665  21.571  0.00  0.00    +0.000 A 
ATOM     11  C   UNL     1       0.960  10.317  20.339  0.00  0.00    +0.000 A 
ATOM     12  C   UNL     1       1.530   9.327  19.544  0.00  0.00    +0.000 A 
ATOM     13  C   UNL     1       1.999   9.347  18.125  0.00  0.00    +0.000 C 
ATOM     14  N   UNL     1       2.663   6.652  18.815  0.00  0.00    +0.000 NA
ATOM     15  H   UNL     1       1.409   6.250  21.785  0.00  0.00    +0.000 HD
ENDROOT
BRANCH  11  16
ATOM     16  C   UNL     1       0.672  11.684  19.903  0.00  0.00    +0.000 C 
ATOM     17  O   UNL     1      -0.445  11.963  19.482  0.00  0.00    +0.000 OA
ATOM     18  N   UNL     1       1.724  12.573  19.972  0.00  0.00    +0.000 N 
ATOM     19  C   UNL     1       1.532  13.866  19.558  0.00  0.00    +0.000 A 
ATOM     20  N   UNL     1       0.403  14.464  19.285  0.00  0.00    +0.000 NA
ATOM     21  C   UNL     1       0.634  15.726  18.782  0.00  0.00    +0.000 A 
ATOM     22  C   UNL     1      -0.538  16.532  18.357  0.00  0.00    +0.000 C 
ATOM     23  C   UNL     1       1.971  16.073  18.714  0.00  0.00    +0.000 A 
ATOM     24  S   UNL     1       2.941  14.797  19.343  0.00  0.00    +0.000 S 
ATOM     25  H   UNL     1       2.664  12.290  20.188  0.00  0.00    +0.000 HD
ENDBRANCH  11  16
TORSDOF 1
ENDMDL
MODEL 7
REMARK VINA RESULT:      -7.1      2.856      8.152
REMARK  Name = 
REMARK  4 active torsions:
REMARK  status: ('A' for Active; 'I' for Inactive)
REMARK    1  A    between atoms: C_1  and  C_2
REMARK    2  A    between atoms: C_11  and  C_12
REMARK    3  A    between atoms: C_17  and  C_18
REMARK    4  A    between atoms: C_21  and  C_22
REMARK                            x       y       z     vdW  Elec       q    Type
REMARK                         _______ _______ _______ _____ _____    ______ ____
ROOT
ATOM      1  C   UNL     1       5.305   5.579  15.538  0.00  0.00    +0.000 C 
ATOM      2  C   UNL     1       4.541   4.988  16.688  0.00  0.00    +0.000 A 
ATOM      3  C   UNL     1       4.523   3.668  16.926  0.00  0.00    +0.000 A 
ATOM      4  C   UNL     1       3.772   3.173  18.094  0.00  0.00    +0.000 A 
ATOM      5  O   UNL     1       3.694   1.974  18.339  0.00  0.00    +0.000 OA
ATOM      6  N   UNL     1       3.184   4.136  18.853  0.00  0.00    +0.000 N 
ATOM      7  C   UNL     1       3.242   5.452  18.496  0.00  0.00    +0.000 A 
ATOM      8  N   UNL     1       2.507   6.276  19.379  0.00  0.00    +0.000 N 
ATOM      9  N   UNL     1       1.942   5.734  20.503  0.00  0.00    +0.000 NA
ATOM     10  C   UNL     1       1.345   6.769  21.100  0.00  0.00    +0.000 A 
ATOM     11  C   UNL     1       1.477   7.982  20.390  0.00  0.00    +0.000 A 
ATOM     12  C   UNL     1       2.244   7.633  19.283  0.00  0.00    +0.000 A 
ATOM     13  C   UNL     1       2.737   8.443  18.128  0.00  0.00    +0.000 C 
ATOM     14  N   UNL     1       3.880   5.906  17.463  0.00  0.00    +0.000 NA
ATOM     15  H   UNL     1       2.646   3.866  19.670  0.00  0.00    +0.000 HD
ENDROOT
BRANCH  11  16
ATOM     16  C   UNL     1       0.947   9.320  20.659  0.00  0.00    +0.000 C 
ATOM     17  O   UNL     1       1.291   9.915  21.673  0.00  0.00    +0.000 OA
ATOM     18  N   UNL     1       0.046   9.808  19.735  0.00  0.00    +0.000 N 
ATOM     19  C   UNL     1      -0.508  11.046  19.935  0.00  0.00    +0.000 A 
ATOM     20  N   UNL     1      -0.149  11.959  20.799  0.00  0.00    +0.000 NA
ATOM     21  C   UNL     1      -1.030  13.017  20.778  0.00  0.00    +0.000 A 
ATOM     22  C   UNL     1      -0.812  14.125  21.742  0.00  0.00    +0.000 C 
ATOM     23  C   UNL     1      -2.048  12.890  19.850  0.00  0.00    +0.000 A 
ATOM     24  S   UNL     1      -1.852  11.427  18.962  0.00  0.00    +0.000 S 
ATOM     25  H   UNL     1      -0.325   9.249  18.988  0.00  0.00    +0.000 HD
ENDBRANCH  11  16
TORSDOF 1
ENDMDL
MODEL 8
REMARK VINA RESULT:      -7.0      3.159      8.661
REMARK  Name = 
REMARK  4 active torsions:
REMARK  status: ('A' for Active; 'I' for Inactive)
REMARK    1  A    between atoms: C_1  and  C_2
REMARK    2  A    between atoms: C_11  and  C_12
REMARK    3  A    between atoms: C_17  and  C_18
REMARK    4  A    between atoms: C_21  and  C_22
REMARK                            x       y       z     vdW  Elec       q    Type
REMARK                         _______ _______ _______ _____ _____    ______ ____
ROOT
ATOM      1  C   UNL     1       4.262   3.055  19.342  0.00  0.00    +0.000 C 
ATOM      2  C   UNL     1       4.366   4.241  18.426  0.00  0.00    +0.000 A 
ATOM      3  C   UNL     1       5.180   4.246  17.360  0.00  0.00    +0.000 A 
ATOM      4  C   UNL     1       5.201   5.441  16.496  0.00  0.00    +0.000 A 
ATOM      5  O   UNL     1       5.950   5.513  15.528  0.00  0.00    +0.000 OA
ATOM      6  N   UNL     1       4.343   6.431  16.859  0.00  0.00    +0.000 N 
ATOM      7  C   UNL     1       3.581   6.330  17.987  0.00  0.00    +0.000 A 
ATOM      8  N   UNL     1       2.815   7.495  18.219  0.00  0.00    +0.000 N 
ATOM      9  N   UNL     1       2.814   8.504  17.293  0.00  0.00    +0.000 NA
ATOM     10  C   UNL     1       2.000   9.425  17.813  0.00  0.00    +0.000 A 
ATOM     11  C   UNL     1       1.477   9.067  19.075  0.00  0.00    +0.000 A 
ATOM     12  C   UNL     1       2.016   7.805  19.307  0.00  0.00    +0.000 A 
ATOM     13  C   UNL     1       1.874   6.869  20.463  0.00  0.00    +0.000 C 
ATOM     14  N   UNL     1       3.562   5.298  18.771  0.00  0.00    +0.000 NA
ATOM     15  H   UNL     1       4.308   7.285  16.311  0.00  0.00    +0.000 HD
ENDROOT
BRANCH  11  16
ATOM     16  C   UNL     1       0.601   9.792  19.997  0.00  0.00    +0.000 C 
ATOM     17  O   UNL     1       0.627   9.526  21.193  0.00  0.00    +0.000 OA
ATOM     18  N   UNL     1      -0.236  10.726  19.424  0.00  0.00    +0.000 N 
ATOM     19  C   UNL     1      -1.100  11.427  20.226  0.00  0.00    +0.000 A 
ATOM     20  N   UNL     1      -1.114  11.492  21.531  0.00  0.00    +0.000 NA
ATOM     21  C   UNL     1      -2.213  12.198  21.968  0.00  0.00    +0.000 A 
ATOM     22  C   UNL     1      -2.424  12.323  23.432  0.00  0.00    +0.000 C 
ATOM     23  C   UNL     1      -3.011  12.692  20.952  0.00  0.00    +0.000 A 
ATOM     24  S   UNL     1      -2.327  12.291  19.422  0.00  0.00    +0.000 S 
ATOM     25  H   UNL     1      -0.339  10.829  18.430  0.00  0.00    +0.000 HD
ENDBRANCH  11  16
TORSDOF 1
ENDMDL
MODEL 9
REMARK VINA RESULT:      -6.9      2.878      4.202
REMARK  Name = 
REMARK  4 active torsions:
REMARK  status: ('A' for Active; 'I' for Inactive)
REMARK    1  A    between atoms: C_1  and  C_2
REMARK    2  A    between atoms: C_11  and  C_12
REMARK    3  A    between atoms: C_17  and  C_18
REMARK    4  A    between atoms: C_21  and  C_22
REMARK                            x       y       z     vdW  Elec       q    Type
REMARK                         _______ _______ _______ _____ _____    ______ ____
ROOT
ATOM      1  C   UNL     1      -3.930  13.233  19.978  0.00  0.00    +0.000 C 
ATOM      2  C   UNL     1      -2.950  13.004  21.094  0.00  0.00    +0.000 A 
ATOM      3  C   UNL     1      -2.936  13.771  22.194  0.00  0.00    +0.000 A 
ATOM      4  C   UNL     1      -1.961  13.461  23.256  0.00  0.00    +0.000 A 
ATOM      5  O   UNL     1      -1.880  14.149  24.267  0.00  0.00    +0.000 OA
ATOM      6  N   UNL     1      -1.175  12.377  23.019  0.00  0.00    +0.000 N 
ATOM      7  C   UNL     1      -1.256  11.687  21.844  0.00  0.00    +0.000 A 
ATOM      8  N   UNL     1      -0.306  10.643  21.773  0.00  0.00    +0.000 N 
ATOM      9  N   UNL     1       0.476  10.360  22.861  0.00  0.00    +0.000 NA
ATOM     10  C   UNL     1       1.237   9.338  22.461  0.00  0.00    +0.000 A 
ATOM     11  C   UNL     1       1.000   8.948  21.124  0.00  0.00    +0.000 A 
ATOM     12  C   UNL     1      -0.013   9.807  20.707  0.00  0.00    +0.000 A 
ATOM     13  C   UNL     1      -0.721   9.937  19.398  0.00  0.00    +0.000 C 
ATOM     14  N   UNL     1      -2.092  11.955  20.890  0.00  0.00    +0.000 NA
ATOM     15  H   UNL     1      -0.478  12.108  23.706  0.00  0.00    +0.000 HD
ENDROOT
BRANCH  11  16
ATOM     16  C   UNL     1       1.633   7.926  20.290  0.00  0.00    +0.000 C 
ATOM     17  O   UNL     1       1.998   8.210  19.156  0.00  0.00    +0.000 OA
ATOM     18  N   UNL     1       1.744   6.672  20.854  0.00  0.00    +0.000 N 
ATOM     19  C   UNL     1       2.307   5.659  20.121  0.00  0.00    +0.000 A 
ATOM     20  N   UNL     1       2.966   5.750  18.996  0.00  0.00    +0.000 NA
ATOM     21  C   UNL     1       3.265   4.497  18.508  0.00  0.00    +0.000 A 
ATOM     22  C   UNL     1       3.962   4.406  17.201  0.00  0.00    +0.000 C 
ATOM     23  C   UNL     1       2.840   3.458  19.316  0.00  0.00    +0.000 A 
ATOM     24  S   UNL     1       2.093   4.086  20.735  0.00  0.00    +0.000 S 
ATOM     25  H   UNL     1       1.314   6.428  21.729  0.00  0.00    +0.000 HD
ENDBRANCH  11  16
TORSDOF 1
ENDMDL
