MODEL 1
REMARK VINA RESULT:      -7.0      0.000      0.000
REMARK  Name = 
REMARK  5 active torsions:
REMARK  status: ('A' for Active; 'I' for Inactive)
REMARK    1  A    between atoms: O_1  and  C_2
REMARK    2  A    between atoms: C_6  and  O_7
REMARK    3  A    between atoms: C_8  and  C_9
REMARK    4  A    between atoms: C_10  and  O_11
REMARK    5  A    between atoms: C_15  and  O_16
REMARK                            x       y       z     vdW  Elec       q    Type
REMARK                         _______ _______ _______ _____ _____    ______ ____
ROOT
ATOM      1  C   UNL     1       3.975   2.843  20.135  0.00  0.00    +0.000 A 
ATOM      2  C   UNL     1       2.996   2.589  21.110  0.00  0.00    +0.000 A 
ATOM      3  C   UNL     1       2.096   3.581  21.475  0.00  0.00    +0.000 A 
ATOM      4  C   UNL     1       2.169   4.822  20.860  0.00  0.00    +0.000 A 
ATOM      5  C   UNL     1       3.127   5.057  19.858  0.00  0.00    +0.000 A 
ATOM      6  C   UNL     1       4.066   4.079  19.444  0.00  0.00    +0.000 A 
ENDROOT
BRANCH   6   7
ATOM      7  C   UNL     1       5.091   4.322  18.361  0.00  0.00    +0.000 A 
ATOM      8  C   UNL     1       6.384   4.845  18.614  0.00  0.00    +0.000 A 
ATOM      9  C   UNL     1       7.351   5.013  17.613  0.00  0.00    +0.000 A 
ATOM     10  C   UNL     1       7.076   4.641  16.305  0.00  0.00    +0.000 A 
ATOM     11  C   UNL     1       5.824   4.130  15.998  0.00  0.00    +0.000 A 
ATOM     12  C   UNL     1       4.844   3.995  16.998  0.00  0.00    +0.000 A 
BRANCH   8  13
ATOM     13  O   UNL     1       6.815   5.238  19.856  0.00  0.00    +0.000 OA
ATOM     14  H   UNL     1       6.153   5.887  20.163  0.00  0.00    +0.000 HD
ENDBRANCH   8  13
BRANCH  12  15
ATOM     15  O   UNL     1       3.605   3.573  16.584  0.00  0.00    +0.000 OA
ATOM     16  H   UNL     1       2.985   3.832  17.286  0.00  0.00    +0.000 HD
ENDBRANCH  12  15
ENDBRANCH   6   7
BRANCH   1  17
ATOM     17  O   UNL     1       4.889   1.840  19.911  0.00  0.00    +0.000 OA
ATOM     18  H   UNL     1       5.425   1.734  20.713  0.00  0.00    +0.000 HD
ENDBRANCH   1  17
BRANCH   5  19
ATOM     19  O   UNL     1       3.151   6.316  19.304  0.00  0.00    +0.000 OA
ATOM     20  H   UNL     1       3.283   6.972  20.014  0.00  0.00    +0.000 HD
ENDBRANCH   5  19
TORSDOF 5
ENDMDL
MODEL 2
REMARK VINA RESULT:      -7.0      0.051      4.795
REMARK  Name = 
REMARK  5 active torsions:
REMARK  status: ('A' for Active; 'I' for Inactive)
REMARK    1  A    between atoms: O_1  and  C_2
REMARK    2  A    between atoms: C_6  and  O_7
REMARK    3  A    between atoms: C_8  and  C_9
REMARK    4  A    between atoms: C_10  and  O_11
REMARK    5  A    between atoms: C_15  and  O_16
REMARK                            x       y       z     vdW  Elec       q    Type
REMARK                         _______ _______ _______ _____ _____    ______ ____
ROOT
ATOM      1  C   UNL     1       4.824   4.016  16.983  0.00  0.00    +0.000 A 
ATOM      2  C   UNL     1       5.772   4.167  15.957  0.00  0.00    +0.000 A 
ATOM      3  C   UNL     1       7.033   4.676  16.238  0.00  0.00    +0.000 A 
ATOM      4  C   UNL     1       7.347   5.026  17.543  0.00  0.00    +0.000 A 
ATOM      5  C   UNL     1       6.406   4.836  18.570  0.00  0.00    +0.000 A 
ATOM      6  C   UNL     1       5.107   4.316  18.340  0.00  0.00    +0.000 A 
ENDROOT
BRANCH   6   7
ATOM      7  C   UNL     1       4.095   4.100  19.441  0.00  0.00    +0.000 A 
ATOM      8  C   UNL     1       3.153   5.082  19.837  0.00  0.00    +0.000 A 
ATOM      9  C   UNL     1       2.179   4.856  20.818  0.00  0.00    +0.000 A 
ATOM     10  C   UNL     1       2.085   3.618  21.439  0.00  0.00    +0.000 A 
ATOM     11  C   UNL     1       2.986   2.622  21.096  0.00  0.00    +0.000 A 
ATOM     12  C   UNL     1       3.985   2.864  20.136  0.00  0.00    +0.000 A 
BRANCH   8  13
ATOM     13  O   UNL     1       3.102   6.345  19.303  0.00  0.00    +0.000 OA
ATOM     14  H   UNL     1       2.633   6.885  19.969  0.00  0.00    +0.000 HD
ENDBRANCH   8  13
BRANCH  12  15
ATOM     15  O   UNL     1       4.891   1.853  19.931  0.00  0.00    +0.000 OA
ATOM     16  H   UNL     1       5.530   1.914  20.661  0.00  0.00    +0.000 HD
ENDBRANCH  12  15
ENDBRANCH   6   7
BRANCH   1  17
ATOM     17  O   UNL     1       3.568   3.604  16.598  0.00  0.00    +0.000 OA
ATOM     18  H   UNL     1       2.936   3.885  17.278  0.00  0.00    +0.000 HD
ENDBRANCH   1  17
BRANCH   5  19
ATOM     19  O   UNL     1       6.782   5.221  19.837  0.00  0.00    +0.000 OA
ATOM     20  H   UNL     1       7.106   6.140  19.805  0.00  0.00    +0.000 HD
ENDBRANCH   5  19
TORSDOF 5
ENDMDL
MODEL 3
REMARK VINA RESULT:      -6.9      0.077      2.088
REMARK  Name = 
REMARK  5 active torsions:
REMARK  status: ('A' for Active; 'I' for Inactive)
REMARK    1  A    between atoms: O_1  and  C_2
REMARK    2  A    between atoms: C_6  and  O_7
REMARK    3  A    between atoms: C_8  and  C_9
REMARK    4  A    between atoms: C_10  and  O_11
REMARK    5  A    between atoms: C_15  and  O_16
REMARK                            x       y       z     vdW  Elec       q    Type
REMARK                         _______ _______ _______ _____ _____    ______ ____
ROOT
ATOM      1  C   UNL     1       3.098   5.016  19.815  0.00  0.00    +0.000 A 
ATOM      2  C   UNL     1       2.168   4.800  20.848  0.00  0.00    +0.000 A 
ATOM      3  C   UNL     1       2.136   3.585  21.518  0.00  0.00    +0.000 A 
ATOM      4  C   UNL     1       3.035   2.591  21.162  0.00  0.00    +0.000 A 
ATOM      5  C   UNL     1       3.986   2.828  20.154  0.00  0.00    +0.000 A 
ATOM      6  C   UNL     1       4.067   4.051  19.442  0.00  0.00    +0.000 A 
ENDROOT
BRANCH   6   7
ATOM      7  C   UNL     1       5.094   4.315  18.365  0.00  0.00    +0.000 A 
ATOM      8  C   UNL     1       6.381   4.844  18.629  0.00  0.00    +0.000 A 
ATOM      9  C   UNL     1       7.351   5.032  17.634  0.00  0.00    +0.000 A 
ATOM     10  C   UNL     1       7.083   4.674  16.321  0.00  0.00    +0.000 A 
ATOM     11  C   UNL     1       5.837   4.157  16.003  0.00  0.00    +0.000 A 
ATOM     12  C   UNL     1       4.854   4.003  16.998  0.00  0.00    +0.000 A 
BRANCH   8  13
ATOM     13  O   UNL     1       6.805   5.226  19.877  0.00  0.00    +0.000 OA
ATOM     14  H   UNL     1       7.549   4.629  20.088  0.00  0.00    +0.000 HD
ENDBRANCH   8  13
BRANCH  12  15
ATOM     15  O   UNL     1       3.620   3.576  16.575  0.00  0.00    +0.000 OA
ATOM     16  H   UNL     1       3.019   3.703  17.328  0.00  0.00    +0.000 HD
ENDBRANCH  12  15
ENDBRANCH   6   7
BRANCH   1  17
ATOM     17  O   UNL     1       2.990   6.208  19.136  0.00  0.00    +0.000 OA
ATOM     18  H   UNL     1       2.071   6.512  19.202  0.00  0.00    +0.000 HD
ENDBRANCH   1  17
BRANCH   5  19
ATOM     19  O   UNL     1       4.835   1.790  19.845  0.00  0.00    +0.000 OA
ATOM     20  H   UNL     1       5.195   1.931  18.949  0.00  0.00    +0.000 HD
ENDBRANCH   5  19
TORSDOF 5
ENDMDL
MODEL 4
REMARK VINA RESULT:      -6.9      0.141      4.797
REMARK  Name = 
REMARK  5 active torsions:
REMARK  status: ('A' for Active; 'I' for Inactive)
REMARK    1  A    between atoms: O_1  and  C_2
REMARK    2  A    between atoms: C_6  and  O_7
REMARK    3  A    between atoms: C_8  and  C_9
REMARK    4  A    between atoms: C_10  and  O_11
REMARK    5  A    between atoms: C_15  and  O_16
REMARK                            x       y       z     vdW  Elec       q    Type
REMARK                         _______ _______ _______ _____ _____    ______ ____
ROOT
ATOM      1  C   UNL     1       6.377   4.961  18.587  0.00  0.00    +0.000 A 
ATOM      2  C   UNL     1       7.302   5.247  17.567  0.00  0.00    +0.000 A 
ATOM      3  C   UNL     1       7.002   4.945  16.246  0.00  0.00    +0.000 A 
ATOM      4  C   UNL     1       5.778   4.367  15.943  0.00  0.00    +0.000 A 
ATOM      5  C   UNL     1       4.844   4.120  16.964  0.00  0.00    +0.000 A 
ATOM      6  C   UNL     1       5.096   4.412  18.328  0.00  0.00    +0.000 A 
ENDROOT
BRANCH   6   7
ATOM      7  C   UNL     1       4.091   4.158  19.428  0.00  0.00    +0.000 A 
ATOM      8  C   UNL     1       3.136   5.117  19.848  0.00  0.00    +0.000 A 
ATOM      9  C   UNL     1       2.169   4.856  20.828  0.00  0.00    +0.000 A 
ATOM     10  C   UNL     1       2.095   3.604  21.422  0.00  0.00    +0.000 A 
ATOM     11  C   UNL     1       3.010   2.629  21.054  0.00  0.00    +0.000 A 
ATOM     12  C   UNL     1       4.001   2.906  20.096  0.00  0.00    +0.000 A 
BRANCH   8  13
ATOM     13  O   UNL     1       3.064   6.391  19.342  0.00  0.00    +0.000 OA
ATOM     14  H   UNL     1       2.855   6.278  18.395  0.00  0.00    +0.000 HD
ENDBRANCH   8  13
BRANCH  12  15
ATOM     15  O   UNL     1       4.921   1.913  19.867  0.00  0.00    +0.000 OA
ATOM     16  H   UNL     1       4.796   1.261  20.577  0.00  0.00    +0.000 HD
ENDBRANCH  12  15
ENDBRANCH   6   7
BRANCH   1  17
ATOM     17  O   UNL     1       6.798   5.196  19.876  0.00  0.00    +0.000 OA
ATOM     18  H   UNL     1       6.031   5.114  20.464  0.00  0.00    +0.000 HD
ENDBRANCH   1  17
BRANCH   5  19
ATOM     19  O   UNL     1       3.657   3.530  16.591  0.00  0.00    +0.000 OA
ATOM     20  H   UNL     1       3.606   3.512  15.617  0.00  0.00    +0.000 HD
ENDBRANCH   5  19
TORSDOF 5
ENDMDL
MODEL 5
REMARK VINA RESULT:      -6.8      0.121      4.788
REMARK  Name = 
REMARK  5 active torsions:
REMARK  status: ('A' for Active; 'I' for Inactive)
REMARK    1  A    between atoms: O_1  and  C_2
REMARK    2  A    between atoms: C_6  and  O_7
REMARK    3  A    between atoms: C_8  and  C_9
REMARK    4  A    between atoms: C_10  and  O_11
REMARK    5  A    between atoms: C_15  and  O_16
REMARK                            x       y       z     vdW  Elec       q    Type
REMARK                         _______ _______ _______ _____ _____    ______ ____
ROOT
ATOM      1  C   UNL     1       4.864   4.039  16.925  0.00  0.00    +0.000 A 
ATOM      2  C   UNL     1       5.835   4.236  15.929  0.00  0.00    +0.000 A 
ATOM      3  C   UNL     1       7.079   4.758  16.258  0.00  0.00    +0.000 A 
ATOM      4  C   UNL     1       7.353   5.075  17.580  0.00  0.00    +0.000 A 
ATOM      5  C   UNL     1       6.389   4.840  18.576  0.00  0.00    +0.000 A 
ATOM      6  C   UNL     1       5.106   4.305  18.297  0.00  0.00    +0.000 A 
ENDROOT
BRANCH   6   7
ATOM      7  C   UNL     1       4.070   4.040  19.365  0.00  0.00    +0.000 A 
ATOM      8  C   UNL     1       4.003   2.833  20.103  0.00  0.00    +0.000 A 
ATOM      9  C   UNL     1       3.077   2.616  21.133  0.00  0.00    +0.000 A 
ATOM     10  C   UNL     1       2.182   3.614  21.491  0.00  0.00    +0.000 A 
ATOM     11  C   UNL     1       2.198   4.814  20.797  0.00  0.00    +0.000 A 
ATOM     12  C   UNL     1       3.105   5.015  19.741  0.00  0.00    +0.000 A 
BRANCH   8  13
ATOM     13  O   UNL     1       4.831   1.761  19.885  0.00  0.00    +0.000 OA
ATOM     14  H   UNL     1       4.593   1.109  20.572  0.00  0.00    +0.000 HD
ENDBRANCH   8  13
BRANCH  12  15
ATOM     15  O   UNL     1       2.983   6.195  19.050  0.00  0.00    +0.000 OA
ATOM     16  H   UNL     1       2.169   6.614  19.375  0.00  0.00    +0.000 HD
ENDBRANCH  12  15
ENDBRANCH   6   7
BRANCH   1  17
ATOM     17  O   UNL     1       3.626   3.617  16.496  0.00  0.00    +0.000 OA
ATOM     18  H   UNL     1       2.970   4.279  16.766  0.00  0.00    +0.000 HD
ENDBRANCH   1  17
BRANCH   5  19
ATOM     19  O   UNL     1       6.726   5.194  19.863  0.00  0.00    +0.000 OA
ATOM     20  H   UNL     1       7.008   4.396  20.347  0.00  0.00    +0.000 HD
ENDBRANCH   5  19
TORSDOF 5
ENDMDL
MODEL 6
REMARK VINA RESULT:      -6.8      0.163      2.103
REMARK  Name = 
REMARK  5 active torsions:
REMARK  status: ('A' for Active; 'I' for Inactive)
REMARK    1  A    between atoms: O_1  and  C_2
REMARK    2  A    between atoms: C_6  and  O_7
REMARK    3  A    between atoms: C_8  and  C_9
REMARK    4  A    between atoms: C_10  and  O_11
REMARK    5  A    between atoms: C_15  and  O_16
REMARK                            x       y       z     vdW  Elec       q    Type
REMARK                         _______ _______ _______ _____ _____    ______ ____
ROOT
ATOM      1  C   UNL     1       3.988   2.886  20.093  0.00  0.00    +0.000 A 
ATOM      2  C   UNL     1       3.015   2.617  21.070  0.00  0.00    +0.000 A 
ATOM      3  C   UNL     1       2.117   3.603  21.454  0.00  0.00    +0.000 A 
ATOM      4  C   UNL     1       2.185   4.853  20.856  0.00  0.00    +0.000 A 
ATOM      5  C   UNL     1       3.137   5.102  19.852  0.00  0.00    +0.000 A 
ATOM      6  C   UNL     1       4.075   4.131  19.419  0.00  0.00    +0.000 A 
ENDROOT
BRANCH   6   7
ATOM      7  C   UNL     1       5.093   4.390  18.333  0.00  0.00    +0.000 A 
ATOM      8  C   UNL     1       4.859   4.115  16.963  0.00  0.00    +0.000 A 
ATOM      9  C   UNL     1       5.784   4.411  15.953  0.00  0.00    +0.000 A 
ATOM     10  C   UNL     1       6.988   5.025  16.266  0.00  0.00    +0.000 A 
ATOM     11  C   UNL     1       7.274   5.312  17.592  0.00  0.00    +0.000 A 
ATOM     12  C   UNL     1       6.358   4.980  18.606  0.00  0.00    +0.000 A 
BRANCH   8  13
ATOM     13  O   UNL     1       3.710   3.531  16.490  0.00  0.00    +0.000 OA
ATOM     14  H   UNL     1       3.237   3.218  17.285  0.00  0.00    +0.000 HD
ENDBRANCH   8  13
BRANCH  12  15
ATOM     15  O   UNL     1       6.767   5.213  19.897  0.00  0.00    +0.000 OA
ATOM     16  H   UNL     1       6.895   6.174  19.968  0.00  0.00    +0.000 HD
ENDBRANCH  12  15
ENDBRANCH   6   7
BRANCH   1  17
ATOM     17  O   UNL     1       4.903   1.887  19.850  0.00  0.00    +0.000 OA
ATOM     18  H   UNL     1       5.716   2.096  20.336  0.00  0.00    +0.000 HD
ENDBRANCH   1  17
BRANCH   5  19
ATOM     19  O   UNL     1       3.157   6.370  19.315  0.00  0.00    +0.000 OA
ATOM     20  H   UNL     1       2.587   6.387  18.524  0.00  0.00    +0.000 HD
ENDBRANCH   5  19
TORSDOF 5
ENDMDL
MODEL 7
REMARK VINA RESULT:      -6.8      0.203      4.793
REMARK  Name = 
REMARK  5 active torsions:
REMARK  status: ('A' for Active; 'I' for Inactive)
REMARK    1  A    between atoms: O_1  and  C_2
REMARK    2  A    between atoms: C_6  and  O_7
REMARK    3  A    between atoms: C_8  and  C_9
REMARK    4  A    between atoms: C_10  and  O_11
REMARK    5  A    between atoms: C_15  and  O_16
REMARK                            x       y       z     vdW  Elec       q    Type
REMARK                         _______ _______ _______ _____ _____    ______ ____
ROOT
ATOM      1  C   UNL     1       6.345   5.001  18.621  0.00  0.00    +0.000 A 
ATOM      2  C   UNL     1       7.287   5.341  17.635  0.00  0.00    +0.000 A 
ATOM      3  C   UNL     1       7.027   5.077  16.297  0.00  0.00    +0.000 A 
ATOM      4  C   UNL     1       5.824   4.483  15.945  0.00  0.00    +0.000 A 
ATOM      5  C   UNL     1       4.871   4.180  16.933  0.00  0.00    +0.000 A 
ATOM      6  C   UNL     1       5.083   4.432  18.312  0.00  0.00    +0.000 A 
ENDROOT
BRANCH   6   7
ATOM      7  C   UNL     1       4.059   4.119  19.378  0.00  0.00    +0.000 A 
ATOM      8  C   UNL     1       4.008   2.884  20.071  0.00  0.00    +0.000 A 
ATOM      9  C   UNL     1       3.092   2.621  21.099  0.00  0.00    +0.000 A 
ATOM     10  C   UNL     1       2.192   3.597  21.502  0.00  0.00    +0.000 A 
ATOM     11  C   UNL     1       2.193   4.823  20.854  0.00  0.00    +0.000 A 
ATOM     12  C   UNL     1       3.089   5.071  19.799  0.00  0.00    +0.000 A 
BRANCH   8  13
ATOM     13  O   UNL     1       4.843   1.828  19.806  0.00  0.00    +0.000 OA
ATOM     14  H   UNL     1       5.026   1.881  18.848  0.00  0.00    +0.000 HD
ENDBRANCH   8  13
BRANCH  12  15
ATOM     15  O   UNL     1       2.951   6.275  19.153  0.00  0.00    +0.000 OA
ATOM     16  H   UNL     1       2.364   6.813  19.710  0.00  0.00    +0.000 HD
ENDBRANCH  12  15
ENDBRANCH   6   7
BRANCH   1  17
ATOM     17  O   UNL     1       6.729   5.201  19.927  0.00  0.00    +0.000 OA
ATOM     18  H   UNL     1       6.551   4.387  20.423  0.00  0.00    +0.000 HD
ENDBRANCH   1  17
BRANCH   5  19
ATOM     19  O   UNL     1       3.708   3.577  16.512  0.00  0.00    +0.000 OA
ATOM     20  H   UNL     1       3.897   2.646  16.291  0.00  0.00    +0.000 HD
ENDBRANCH   5  19
TORSDOF 5
ENDMDL
MODEL 8
REMARK VINA RESULT:      -6.7      0.208      2.965
REMARK  Name = 
REMARK  5 active torsions:
REMARK  status: ('A' for Active; 'I' for Inactive)
REMARK    1  A    between atoms: O_1  and  C_2
REMARK    2  A    between atoms: C_6  and  O_7
REMARK    3  A    between atoms: C_8  and  C_9
REMARK    4  A    between atoms: C_10  and  O_11
REMARK    5  A    between atoms: C_15  and  O_16
REMARK                            x       y       z     vdW  Elec       q    Type
REMARK                         _______ _______ _______ _____ _____    ______ ____
ROOT
ATOM      1  C   UNL     1       3.097   5.055  19.816  0.00  0.00    +0.000 A 
ATOM      2  C   UNL     1       2.176   4.808  20.848  0.00  0.00    +0.000 A 
ATOM      3  C   UNL     1       2.162   3.580  21.495  0.00  0.00    +0.000 A 
ATOM      4  C   UNL     1       3.072   2.604  21.117  0.00  0.00    +0.000 A 
ATOM      5  C   UNL     1       4.015   2.872  20.109  0.00  0.00    +0.000 A 
ATOM      6  C   UNL     1       4.077   4.109  19.420  0.00  0.00    +0.000 A 
ENDROOT
BRANCH   6   7
ATOM      7  C   UNL     1       5.095   4.407  18.344  0.00  0.00    +0.000 A 
ATOM      8  C   UNL     1       4.866   4.164  16.966  0.00  0.00    +0.000 A 
ATOM      9  C   UNL     1       5.791   4.496  15.967  0.00  0.00    +0.000 A 
ATOM     10  C   UNL     1       6.988   5.114  16.299  0.00  0.00    +0.000 A 
ATOM     11  C   UNL     1       7.268   5.369  17.633  0.00  0.00    +0.000 A 
ATOM     12  C   UNL     1       6.353   5.002  18.636  0.00  0.00    +0.000 A 
BRANCH   8  13
ATOM     13  O   UNL     1       3.724   3.582  16.476  0.00  0.00    +0.000 OA
ATOM     14  H   UNL     1       3.852   3.544  15.509  0.00  0.00    +0.000 HD
ENDBRANCH   8  13
BRANCH  12  15
ATOM     15  O   UNL     1       6.757   5.205  19.932  0.00  0.00    +0.000 OA
ATOM     16  H   UNL     1       7.664   4.860  19.988  0.00  0.00    +0.000 HD
ENDBRANCH  12  15
ENDBRANCH   6   7
BRANCH   1  17
ATOM     17  O   UNL     1       2.971   6.258  19.160  0.00  0.00    +0.000 OA
ATOM     18  H   UNL     1       3.230   6.965  19.773  0.00  0.00    +0.000 HD
ENDBRANCH   1  17
BRANCH   5  19
ATOM     19  O   UNL     1       4.875   1.851  19.776  0.00  0.00    +0.000 OA
ATOM     20  H   UNL     1       4.484   1.332  19.050  0.00  0.00    +0.000 HD
ENDBRANCH   5  19
TORSDOF 5
ENDMDL
MODEL 9
REMARK VINA RESULT:      -6.6      1.939      2.752
REMARK  Name = 
REMARK  5 active torsions:
REMARK  status: ('A' for Active; 'I' for Inactive)
REMARK    1  A    between atoms: O_1  and  C_2
REMARK    2  A    between atoms: C_6  and  O_7
REMARK    3  A    between atoms: C_8  and  C_9
REMARK    4  A    between atoms: C_10  and  O_11
REMARK    5  A    between atoms: C_15  and  O_16
REMARK                            x       y       z     vdW  Elec       q    Type
REMARK                         _______ _______ _______ _____ _____    ______ ____
ROOT
ATOM      1  C   UNL     1       2.231   4.505  20.214  0.00  0.00    +0.000 A 
ATOM      2  C   UNL     1       1.171   3.749  20.741  0.00  0.00    +0.000 A 
ATOM      3  C   UNL     1       0.538   2.791  19.961  0.00  0.00    +0.000 A 
ATOM      4  C   UNL     1       0.970   2.584  18.659  0.00  0.00    +0.000 A 
ATOM      5  C   UNL     1       2.056   3.318  18.151  0.00  0.00    +0.000 A 
ATOM      6  C   UNL     1       2.740   4.304  18.906  0.00  0.00    +0.000 A 
ENDROOT
BRANCH   6   7
ATOM      7  C   UNL     1       3.915   5.089  18.369  0.00  0.00    +0.000 A 
ATOM      8  C   UNL     1       5.246   4.603  18.377  0.00  0.00    +0.000 A 
ATOM      9  C   UNL     1       6.323   5.310  17.825  0.00  0.00    +0.000 A 
ATOM     10  C   UNL     1       6.113   6.537  17.212  0.00  0.00    +0.000 A 
ATOM     11  C   UNL     1       4.831   7.065  17.181  0.00  0.00    +0.000 A 
ATOM     12  C   UNL     1       3.759   6.368  17.767  0.00  0.00    +0.000 A 
BRANCH   8  13
ATOM     13  O   UNL     1       5.613   3.400  18.925  0.00  0.00    +0.000 OA
ATOM     14  H   UNL     1       6.255   3.623  19.626  0.00  0.00    +0.000 HD
ENDBRANCH   8  13
BRANCH  12  15
ATOM     15  O   UNL     1       2.546   7.011  17.774  0.00  0.00    +0.000 OA
ATOM     16  H   UNL     1       2.456   7.407  18.657  0.00  0.00    +0.000 HD
ENDBRANCH  12  15
ENDBRANCH   6   7
BRANCH   1  17
ATOM     17  O   UNL     1       2.730   5.503  21.020  0.00  0.00    +0.000 OA
ATOM     18  H   UNL     1       2.300   5.434  21.887  0.00  0.00    +0.000 HD
ENDBRANCH   1  17
BRANCH   5  19
ATOM     19  O   UNL     1       2.418   3.071  16.847  0.00  0.00    +0.000 OA
ATOM     20  H   UNL     1       3.341   2.758  16.829  0.00  0.00    +0.000 HD
ENDBRANCH   5  19
TORSDOF 5
ENDMDL
