MODEL 1
REMARK VINA RESULT:      -7.8      0.000      0.000
REMARK  Name = 
REMARK  4 active torsions:
REMARK  status: ('A' for Active; 'I' for Inactive)
REMARK    1  A    between atoms: C_1  and  O_2
REMARK    2  A    between atoms: O_2  and  C_3
REMARK    3  A    between atoms: C_6  and  N_7
REMARK    4  A    between atoms: C_9  and  C_10
REMARK                            x       y       z     vdW  Elec       q    Type
REMARK                         _______ _______ _______ _____ _____    ______ ____
ROOT
ATOM      1  N   UNL     1       2.285   7.376  19.464  0.00  0.00    +0.000 N 
ATOM      2  C   UNL     1       3.521   7.399  18.852  0.00  0.00    +0.000 A 
ATOM      3  C   UNL     1       3.512   6.289  18.023  0.00  0.00    +0.000 A 
ATOM      4  C   UNL     1       2.167   5.735  18.105  0.00  0.00    +0.000 A 
ATOM      5  C   UNL     1       2.003   6.006  19.478  0.00  0.00    +0.000 A 
ATOM      6  C   UNL     1       2.504   4.934  20.393  0.00  0.00    +0.000 C 
ATOM      7  O   UNL     1       2.746   5.068  21.586  0.00  0.00    +0.000 OA
ATOM      8  C   UNL     1       2.882   3.603  19.652  0.00  0.00    +0.000 A 
ATOM      9  C   UNL     1       3.883   2.720  20.089  0.00  0.00    +0.000 A 
ATOM     10  C   UNL     1       4.240   1.605  19.297  0.00  0.00    +0.000 A 
ATOM     11  C   UNL     1       3.584   1.331  18.084  0.00  0.00    +0.000 A 
ATOM     12  C   UNL     1       2.597   2.186  17.632  0.00  0.00    +0.000 A 
ATOM     13  C   UNL     1       2.322   3.341  18.385  0.00  0.00    +0.000 A 
ATOM     14  C   UNL     1       1.642   4.447  17.698  0.00  0.00    +0.000 C 
ATOM     15  O   UNL     1       0.666   4.278  16.984  0.00  0.00    +0.000 OA
ENDROOT
BRANCH   1  19
ATOM     16  C   UNL     1      -0.472  10.622  19.554  0.00  0.00    +0.000 A 
ATOM     17  C   UNL     1      -0.232   9.859  20.703  0.00  0.00    +0.000 A 
ATOM     18  C   UNL     1       0.711   8.814  20.707  0.00  0.00    +0.000 A 
ATOM     19  C   UNL     1       1.410   8.507  19.536  0.00  0.00    +0.000 A 
ATOM     20  C   UNL     1       1.128   9.245  18.371  0.00  0.00    +0.000 A 
ATOM     21  C   UNL     1       0.198  10.293  18.381  0.00  0.00    +0.000 A 
BRANCH  16  23
ATOM     22  C   UNL     1      -2.365  11.694  18.617  0.00  0.00    +0.000 C 
ATOM     23  O   UNL     1      -1.402  11.619  19.670  0.00  0.00    +0.000 OA
ENDBRANCH  16  23
ENDBRANCH   1  19
BRANCH   3  24
ATOM     24  C   UNL     1       4.807   5.658  17.647  0.00  0.00    +0.000 A 
ATOM     25  C   UNL     1       5.168   4.964  16.511  0.00  0.00    +0.000 A 
ATOM     26  C   UNL     1       6.433   4.371  16.782  0.00  0.00    +0.000 A 
ATOM     27  C   UNL     1       6.754   4.715  18.070  0.00  0.00    +0.000 A 
ATOM     28  O   UNL     1       5.807   5.534  18.580  0.00  0.00    +0.000 OA
ENDBRANCH   3  24
TORSDOF 3
ENDMDL
MODEL 2
REMARK VINA RESULT:      -7.1      2.570      8.709
REMARK  Name = 
REMARK  4 active torsions:
REMARK  status: ('A' for Active; 'I' for Inactive)
REMARK    1  A    between atoms: C_1  and  O_2
REMARK    2  A    between atoms: O_2  and  C_3
REMARK    3  A    between atoms: C_6  and  N_7
REMARK    4  A    between atoms: C_9  and  C_10
REMARK                            x       y       z     vdW  Elec       q    Type
REMARK                         _______ _______ _______ _____ _____    ______ ____
ROOT
ATOM      1  N   UNL     1       1.118   9.710  19.024  0.00  0.00    +0.000 N 
ATOM      2  C   UNL     1       1.665  10.954  18.790  0.00  0.00    +0.000 A 
ATOM      3  C   UNL     1       1.313  11.697  19.905  0.00  0.00    +0.000 A 
ATOM      4  C   UNL     1       0.667  10.767  20.821  0.00  0.00    +0.000 A 
ATOM      5  C   UNL     1       0.010  10.033  19.814  0.00  0.00    +0.000 A 
ATOM      6  C   UNL     1      -1.327  10.573  19.415  0.00  0.00    +0.000 C 
ATOM      7  O   UNL     1      -1.929  10.302  18.385  0.00  0.00    +0.000 OA
ATOM      8  C   UNL     1      -1.857  11.702  20.369  0.00  0.00    +0.000 A 
ATOM      9  C   UNL     1      -2.690  12.753  19.953  0.00  0.00    +0.000 A 
ATOM     10  C   UNL     1      -3.024  13.792  20.851  0.00  0.00    +0.000 A 
ATOM     11  C   UNL     1      -2.568  13.782  22.181  0.00  0.00    +0.000 A 
ATOM     12  C   UNL     1      -1.746  12.759  22.614  0.00  0.00    +0.000 A 
ATOM     13  C   UNL     1      -1.347  11.786  21.680  0.00  0.00    +0.000 A 
ATOM     14  C   UNL     1      -0.146  11.001  21.997  0.00  0.00    +0.000 C 
ATOM     15  O   UNL     1       0.043  10.502  23.096  0.00  0.00    +0.000 OA
ENDROOT
BRANCH   1  19
ATOM     16  C   UNL     1       3.473   6.176  18.686  0.00  0.00    +0.000 A 
ATOM     17  C   UNL     1       2.663   6.388  19.809  0.00  0.00    +0.000 A 
ATOM     18  C   UNL     1       1.841   7.525  19.916  0.00  0.00    +0.000 A 
ATOM     19  C   UNL     1       1.844   8.482  18.898  0.00  0.00    +0.000 A 
ATOM     20  C   UNL     1       2.698   8.289  17.795  0.00  0.00    +0.000 A 
ATOM     21  C   UNL     1       3.502   7.146  17.690  0.00  0.00    +0.000 A 
BRANCH  16  23
ATOM     22  C   UNL     1       5.627   5.209  18.878  0.00  0.00    +0.000 C 
ATOM     23  O   UNL     1       4.222   5.031  18.686  0.00  0.00    +0.000 OA
ENDBRANCH  16  23
ENDBRANCH   1  19
BRANCH   3  24
ATOM     24  C   UNL     1       1.214  13.178  19.785  0.00  0.00    +0.000 A 
ATOM     25  C   UNL     1       1.441  14.168  20.717  0.00  0.00    +0.000 A 
ATOM     26  C   UNL     1       0.959  15.380  20.147  0.00  0.00    +0.000 A 
ATOM     27  C   UNL     1       0.444  15.053  18.919  0.00  0.00    +0.000 A 
ATOM     28  O   UNL     1       0.642  13.739  18.670  0.00  0.00    +0.000 OA
ENDBRANCH   3  24
TORSDOF 3
ENDMDL
MODEL 3
REMARK VINA RESULT:      -7.0      3.081      9.050
REMARK  Name = 
REMARK  4 active torsions:
REMARK  status: ('A' for Active; 'I' for Inactive)
REMARK    1  A    between atoms: C_1  and  O_2
REMARK    2  A    between atoms: O_2  and  C_3
REMARK    3  A    between atoms: C_6  and  N_7
REMARK    4  A    between atoms: C_9  and  C_10
REMARK                            x       y       z     vdW  Elec       q    Type
REMARK                         _______ _______ _______ _____ _____    ______ ____
ROOT
ATOM      1  N   UNL     1       0.824  10.378  19.453  0.00  0.00    +0.000 N 
ATOM      2  C   UNL     1       1.494  11.580  19.543  0.00  0.00    +0.000 A 
ATOM      3  C   UNL     1       1.064  12.122  20.744  0.00  0.00    +0.000 A 
ATOM      4  C   UNL     1       0.235  11.102  21.372  0.00  0.00    +0.000 A 
ATOM      5  C   UNL     1      -0.345  10.653  20.169  0.00  0.00    +0.000 A 
ATOM      6  C   UNL     1      -1.574  11.396  19.749  0.00  0.00    +0.000 C 
ATOM      7  O   UNL     1      -2.061  11.397  18.626  0.00  0.00    +0.000 OA
ATOM      8  C   UNL     1      -2.129  12.364  20.853  0.00  0.00    +0.000 A 
ATOM      9  C   UNL     1      -2.817  13.556  20.577  0.00  0.00    +0.000 A 
ATOM     10  C   UNL     1      -3.178  14.427  21.630  0.00  0.00    +0.000 A 
ATOM     11  C   UNL     1      -2.897  14.108  22.971  0.00  0.00    +0.000 A 
ATOM     12  C   UNL     1      -2.220  12.941  23.268  0.00  0.00    +0.000 A 
ATOM     13  C   UNL     1      -1.784  12.135  22.201  0.00  0.00    +0.000 A 
ATOM     14  C   UNL     1      -0.700  11.182  22.475  0.00  0.00    +0.000 C 
ATOM     15  O   UNL     1      -0.692  10.461  23.461  0.00  0.00    +0.000 OA
ENDROOT
BRANCH   1  19
ATOM     16  C   UNL     1       2.922   6.776  18.577  0.00  0.00    +0.000 A 
ATOM     17  C   UNL     1       2.298   6.953  19.819  0.00  0.00    +0.000 A 
ATOM     18  C   UNL     1       1.560   8.115  20.109  0.00  0.00    +0.000 A 
ATOM     19  C   UNL     1       1.461   9.131  19.154  0.00  0.00    +0.000 A 
ATOM     20  C   UNL     1       2.132   8.969  17.927  0.00  0.00    +0.000 A 
ATOM     21  C   UNL     1       2.853   7.802  17.641  0.00  0.00    +0.000 A 
BRANCH  16  23
ATOM     22  C   UNL     1       4.772   5.438  19.210  0.00  0.00    +0.000 C 
ATOM     23  O   UNL     1       3.604   5.602  18.404  0.00  0.00    +0.000 OA
ENDBRANCH  16  23
ENDBRANCH   1  19
BRANCH   3  24
ATOM     24  C   UNL     1       1.098  13.600  20.924  0.00  0.00    +0.000 A 
ATOM     25  C   UNL     1       0.792  14.615  20.042  0.00  0.00    +0.000 A 
ATOM     26  C   UNL     1       1.237  15.825  20.647  0.00  0.00    +0.000 A 
ATOM     27  C   UNL     1       1.810  15.473  21.842  0.00  0.00    +0.000 A 
ATOM     28  O   UNL     1       1.682  14.142  22.042  0.00  0.00    +0.000 OA
ENDBRANCH   3  24
TORSDOF 3
ENDMDL
MODEL 4
REMARK VINA RESULT:      -6.9      2.498      8.696
REMARK  Name = 
REMARK  4 active torsions:
REMARK  status: ('A' for Active; 'I' for Inactive)
REMARK    1  A    between atoms: C_1  and  O_2
REMARK    2  A    between atoms: O_2  and  C_3
REMARK    3  A    between atoms: C_6  and  N_7
REMARK    4  A    between atoms: C_9  and  C_10
REMARK                            x       y       z     vdW  Elec       q    Type
REMARK                         _______ _______ _______ _____ _____    ______ ____
ROOT
ATOM      1  N   UNL     1       1.214   9.659  18.999  0.00  0.00    +0.000 N 
ATOM      2  C   UNL     1       1.697  10.918  18.713  0.00  0.00    +0.000 A 
ATOM      3  C   UNL     1       1.319  11.685  19.803  0.00  0.00    +0.000 A 
ATOM      4  C   UNL     1       0.728  10.760  20.761  0.00  0.00    +0.000 A 
ATOM      5  C   UNL     1       0.099   9.957  19.789  0.00  0.00    +0.000 A 
ATOM      6  C   UNL     1      -1.266  10.415  19.384  0.00  0.00    +0.000 C 
ATOM      7  O   UNL     1      -1.865  10.076  18.372  0.00  0.00    +0.000 OA
ATOM      8  C   UNL     1      -1.843  11.552  20.301  0.00  0.00    +0.000 A 
ATOM      9  C   UNL     1      -2.731  12.544  19.855  0.00  0.00    +0.000 A 
ATOM     10  C   UNL     1      -3.108  13.599  20.717  0.00  0.00    +0.000 A 
ATOM     11  C   UNL     1      -2.640  13.662  22.042  0.00  0.00    +0.000 A 
ATOM     12  C   UNL     1      -1.764  12.698  22.504  0.00  0.00    +0.000 A 
ATOM     13  C   UNL     1      -1.326  11.711  21.603  0.00  0.00    +0.000 A 
ATOM     14  C   UNL     1      -0.085  10.998  21.935  0.00  0.00    +0.000 C 
ATOM     15  O   UNL     1       0.138  10.552  23.050  0.00  0.00    +0.000 OA
ENDROOT
BRANCH   1  19
ATOM     16  C   UNL     1       3.357   5.990  18.696  0.00  0.00    +0.000 A 
ATOM     17  C   UNL     1       3.464   6.962  17.693  0.00  0.00    +0.000 A 
ATOM     18  C   UNL     1       2.803   8.200  17.799  0.00  0.00    +0.000 A 
ATOM     19  C   UNL     1       1.999   8.464  18.911  0.00  0.00    +0.000 A 
ATOM     20  C   UNL     1       1.856   7.464  19.891  0.00  0.00    +0.000 A 
ATOM     21  C   UNL     1       2.530   6.240  19.785  0.00  0.00    +0.000 A 
BRANCH  16  23
ATOM     22  C   UNL     1       4.493   4.597  17.152  0.00  0.00    +0.000 C 
ATOM     23  O   UNL     1       4.051   4.828  18.491  0.00  0.00    +0.000 OA
ENDBRANCH  16  23
ENDBRANCH   1  19
BRANCH   3  24
ATOM     24  C   UNL     1       1.145  13.153  19.629  0.00  0.00    +0.000 A 
ATOM     25  C   UNL     1       1.565  14.204  20.418  0.00  0.00    +0.000 A 
ATOM     26  C   UNL     1       0.917  15.369  19.919  0.00  0.00    +0.000 A 
ATOM     27  C   UNL     1       0.125  14.957  18.878  0.00  0.00    +0.000 A 
ATOM     28  O   UNL     1       0.297  13.634  18.662  0.00  0.00    +0.000 OA
ENDBRANCH   3  24
TORSDOF 3
ENDMDL
MODEL 5
REMARK VINA RESULT:      -6.9      9.245     10.499
REMARK  Name = 
REMARK  4 active torsions:
REMARK  status: ('A' for Active; 'I' for Inactive)
REMARK    1  A    between atoms: C_1  and  O_2
REMARK    2  A    between atoms: O_2  and  C_3
REMARK    3  A    between atoms: C_6  and  N_7
REMARK    4  A    between atoms: C_9  and  C_10
REMARK                            x       y       z     vdW  Elec       q    Type
REMARK                         _______ _______ _______ _____ _____    ______ ____
ROOT
ATOM      1  N   UNL     1       6.803  15.803  19.124  0.00  0.00    +0.000 N 
ATOM      2  C   UNL     1       7.879  16.525  18.653  0.00  0.00    +0.000 A 
ATOM      3  C   UNL     1       8.640  15.594  17.964  0.00  0.00    +0.000 A 
ATOM      4  C   UNL     1       7.865  14.361  17.963  0.00  0.00    +0.000 A 
ATOM      5  C   UNL     1       7.360  14.528  19.268  0.00  0.00    +0.000 A 
ATOM      6  C   UNL     1       8.233  13.981  20.353  0.00  0.00    +0.000 C 
ATOM      7  O   UNL     1       8.163  14.268  21.541  0.00  0.00    +0.000 OA
ATOM      8  C   UNL     1       9.418  13.100  19.819  0.00  0.00    +0.000 A 
ATOM      9  C   UNL     1      10.660  12.983  20.464  0.00  0.00    +0.000 A 
ATOM     10  C   UNL     1      11.712  12.264  19.853  0.00  0.00    +0.000 A 
ATOM     11  C   UNL     1      11.534  11.620  18.615  0.00  0.00    +0.000 A 
ATOM     12  C   UNL     1      10.322  11.721  17.960  0.00  0.00    +0.000 A 
ATOM     13  C   UNL     1       9.319  12.521  18.538  0.00  0.00    +0.000 A 
ATOM     14  C   UNL     1       8.246  12.998  17.655  0.00  0.00    +0.000 C 
ATOM     15  O   UNL     1       7.671  12.267  16.863  0.00  0.00    +0.000 OA
ENDROOT
BRANCH   1  19
ATOM     16  C   UNL     1       2.683  16.797  18.704  0.00  0.00    +0.000 A 
ATOM     17  C   UNL     1       3.417  17.253  19.806  0.00  0.00    +0.000 A 
ATOM     18  C   UNL     1       4.790  16.976  19.938  0.00  0.00    +0.000 A 
ATOM     19  C   UNL     1       5.439  16.210  18.966  0.00  0.00    +0.000 A 
ATOM     20  C   UNL     1       4.685  15.713  17.886  0.00  0.00    +0.000 A 
ATOM     21  C   UNL     1       3.321  16.005  17.756  0.00  0.00    +0.000 A 
BRANCH  16  23
ATOM     22  C   UNL     1       0.947  17.950  17.576  0.00  0.00    +0.000 C 
ATOM     23  O   UNL     1       1.357  17.135  18.676  0.00  0.00    +0.000 OA
ENDBRANCH  16  23
ENDBRANCH   1  19
BRANCH   3  24
ATOM     24  C   UNL     1      10.103  15.829  17.810  0.00  0.00    +0.000 A 
ATOM     25  C   UNL     1      10.960  15.487  16.785  0.00  0.00    +0.000 A 
ATOM     26  C   UNL     1      12.279  15.725  17.264  0.00  0.00    +0.000 A 
ATOM     27  C   UNL     1      12.149  16.169  18.555  0.00  0.00    +0.000 A 
ATOM     28  O   UNL     1      10.841  16.286  18.874  0.00  0.00    +0.000 OA
ENDBRANCH   3  24
TORSDOF 3
ENDMDL
MODEL 6
REMARK VINA RESULT:      -6.9      3.087      9.086
REMARK  Name = 
REMARK  4 active torsions:
REMARK  status: ('A' for Active; 'I' for Inactive)
REMARK    1  A    between atoms: C_1  and  O_2
REMARK    2  A    between atoms: O_2  and  C_3
REMARK    3  A    between atoms: C_6  and  N_7
REMARK    4  A    between atoms: C_9  and  C_10
REMARK                            x       y       z     vdW  Elec       q    Type
REMARK                         _______ _______ _______ _____ _____    ______ ____
ROOT
ATOM      1  N   UNL     1       0.820  10.422  19.482  0.00  0.00    +0.000 N 
ATOM      2  C   UNL     1       1.442  11.650  19.565  0.00  0.00    +0.000 A 
ATOM      3  C   UNL     1       0.994  12.178  20.766  0.00  0.00    +0.000 A 
ATOM      4  C   UNL     1       0.210  11.128  21.400  0.00  0.00    +0.000 A 
ATOM      5  C   UNL     1      -0.357  10.652  20.202  0.00  0.00    +0.000 A 
ATOM      6  C   UNL     1      -1.615  11.344  19.784  0.00  0.00    +0.000 C 
ATOM      7  O   UNL     1      -2.106  11.321  18.663  0.00  0.00    +0.000 OA
ATOM      8  C   UNL     1      -2.205  12.292  20.887  0.00  0.00    +0.000 A 
ATOM      9  C   UNL     1      -2.941  13.455  20.610  0.00  0.00    +0.000 A 
ATOM     10  C   UNL     1      -3.333  14.315  21.661  0.00  0.00    +0.000 A 
ATOM     11  C   UNL     1      -3.034  14.012  23.002  0.00  0.00    +0.000 A 
ATOM     12  C   UNL     1      -2.310  12.874  23.300  0.00  0.00    +0.000 A 
ATOM     13  C   UNL     1      -1.846  12.082  22.234  0.00  0.00    +0.000 A 
ATOM     14  C   UNL     1      -0.724  11.175  22.507  0.00  0.00    +0.000 C 
ATOM     15  O   UNL     1      -0.683  10.458  23.495  0.00  0.00    +0.000 OA
ENDROOT
BRANCH   1  19
ATOM     16  C   UNL     1       2.657   6.678  18.612  0.00  0.00    +0.000 A 
ATOM     17  C   UNL     1       2.513   7.650  17.614  0.00  0.00    +0.000 A 
ATOM     18  C   UNL     1       1.953   8.910  17.893  0.00  0.00    +0.000 A 
ATOM     19  C   UNL     1       1.505   9.200  19.185  0.00  0.00    +0.000 A 
ATOM     20  C   UNL     1       1.607   8.202  20.172  0.00  0.00    +0.000 A 
ATOM     21  C   UNL     1       2.179   6.954  19.888  0.00  0.00    +0.000 A 
BRANCH  16  23
ATOM     22  C   UNL     1       2.310   4.470  17.826  0.00  0.00    +0.000 C 
ATOM     23  O   UNL     1       3.223   5.493  18.228  0.00  0.00    +0.000 OA
ENDBRANCH  16  23
ENDBRANCH   1  19
BRANCH   3  24
ATOM     24  C   UNL     1       0.970  13.657  20.941  0.00  0.00    +0.000 A 
ATOM     25  C   UNL     1       0.619  14.656  20.057  0.00  0.00    +0.000 A 
ATOM     26  C   UNL     1       1.018  15.884  20.655  0.00  0.00    +0.000 A 
ATOM     27  C   UNL     1       1.611  15.560  21.849  0.00  0.00    +0.000 A 
ATOM     28  O   UNL     1       1.538  14.226  22.053  0.00  0.00    +0.000 OA
ENDBRANCH   3  24
TORSDOF 3
ENDMDL
MODEL 7
REMARK VINA RESULT:      -6.7      9.233     10.587
REMARK  Name = 
REMARK  4 active torsions:
REMARK  status: ('A' for Active; 'I' for Inactive)
REMARK    1  A    between atoms: C_1  and  O_2
REMARK    2  A    between atoms: O_2  and  C_3
REMARK    3  A    between atoms: C_6  and  N_7
REMARK    4  A    between atoms: C_9  and  C_10
REMARK                            x       y       z     vdW  Elec       q    Type
REMARK                         _______ _______ _______ _____ _____    ______ ____
ROOT
ATOM      1  N   UNL     1       6.600  15.819  19.222  0.00  0.00    +0.000 N 
ATOM      2  C   UNL     1       7.614  16.619  18.738  0.00  0.00    +0.000 A 
ATOM      3  C   UNL     1       8.407  15.755  18.000  0.00  0.00    +0.000 A 
ATOM      4  C   UNL     1       7.708  14.477  17.987  0.00  0.00    +0.000 A 
ATOM      5  C   UNL     1       7.238  14.578  19.311  0.00  0.00    +0.000 A 
ATOM      6  C   UNL     1       8.177  14.057  20.353  0.00  0.00    +0.000 C 
ATOM      7  O   UNL     1       8.129  14.307  21.550  0.00  0.00    +0.000 OA
ATOM      8  C   UNL     1       9.396  13.265  19.758  0.00  0.00    +0.000 A 
ATOM      9  C   UNL     1      10.663  13.208  20.360  0.00  0.00    +0.000 A 
ATOM     10  C   UNL     1      11.736  12.570  19.696  0.00  0.00    +0.000 A 
ATOM     11  C   UNL     1      11.557  11.950  18.447  0.00  0.00    +0.000 A 
ATOM     12  C   UNL     1      10.319  11.994  17.833  0.00  0.00    +0.000 A 
ATOM     13  C   UNL     1       9.289  12.715  18.464  0.00  0.00    +0.000 A 
ATOM     14  C   UNL     1       8.161  13.149  17.629  0.00  0.00    +0.000 C 
ATOM     15  O   UNL     1       7.607  12.405  16.834  0.00  0.00    +0.000 OA
ENDROOT
BRANCH   1  19
ATOM     16  C   UNL     1       2.524  17.009  18.884  0.00  0.00    +0.000 A 
ATOM     17  C   UNL     1       3.144  16.289  17.855  0.00  0.00    +0.000 A 
ATOM     18  C   UNL     1       4.474  15.845  17.969  0.00  0.00    +0.000 A 
ATOM     19  C   UNL     1       5.210  16.145  19.118  0.00  0.00    +0.000 A 
ATOM     20  C   UNL     1       4.598  16.912  20.128  0.00  0.00    +0.000 A 
ATOM     21  C   UNL     1       3.267  17.338  20.012  0.00  0.00    +0.000 A 
BRANCH  16  23
ATOM     22  C   UNL     1       0.233  16.432  19.067  0.00  0.00    +0.000 C 
ATOM     23  O   UNL     1       1.225  17.381  18.668  0.00  0.00    +0.000 OA
ENDBRANCH  16  23
ENDBRANCH   1  19
BRANCH   3  24
ATOM     24  C   UNL     1       9.847  16.083  17.807  0.00  0.00    +0.000 A 
ATOM     25  C   UNL     1      10.714  15.742  16.789  0.00  0.00    +0.000 A 
ATOM     26  C   UNL     1      12.018  16.101  17.230  0.00  0.00    +0.000 A 
ATOM     27  C   UNL     1      11.873  16.612  18.495  0.00  0.00    +0.000 A 
ATOM     28  O   UNL     1      10.564  16.654  18.829  0.00  0.00    +0.000 OA
ENDBRANCH   3  24
TORSDOF 3
ENDMDL
MODEL 8
REMARK VINA RESULT:      -6.7      9.476     11.363
REMARK  Name = 
REMARK  4 active torsions:
REMARK  status: ('A' for Active; 'I' for Inactive)
REMARK    1  A    between atoms: C_1  and  O_2
REMARK    2  A    between atoms: O_2  and  C_3
REMARK    3  A    between atoms: C_6  and  N_7
REMARK    4  A    between atoms: C_9  and  C_10
REMARK                            x       y       z     vdW  Elec       q    Type
REMARK                         _______ _______ _______ _____ _____    ______ ____
ROOT
ATOM      1  N   UNL     1       7.796  12.959  22.315  0.00  0.00    +0.000 N 
ATOM      2  C   UNL     1       8.556  11.980  21.710  0.00  0.00    +0.000 A 
ATOM      3  C   UNL     1       9.736  12.624  21.374  0.00  0.00    +0.000 A 
ATOM      4  C   UNL     1       9.643  13.961  21.945  0.00  0.00    +0.000 A 
ATOM      5  C   UNL     1       8.267  14.114  21.682  0.00  0.00    +0.000 A 
ATOM      6  C   UNL     1       7.943  14.665  20.330  0.00  0.00    +0.000 C 
ATOM      7  O   UNL     1       6.855  14.600  19.772  0.00  0.00    +0.000 OA
ATOM      8  C   UNL     1       9.198  15.207  19.557  0.00  0.00    +0.000 A 
ATOM      9  C   UNL     1       9.321  15.199  18.159  0.00  0.00    +0.000 A 
ATOM     10  C   UNL     1      10.534  15.598  17.551  0.00  0.00    +0.000 A 
ATOM     11  C   UNL     1      11.623  16.045  18.320  0.00  0.00    +0.000 A 
ATOM     12  C   UNL     1      11.527  16.061  19.698  0.00  0.00    +0.000 A 
ATOM     13  C   UNL     1      10.348  15.570  20.288  0.00  0.00    +0.000 A 
ATOM     14  C   UNL     1      10.420  15.158  21.696  0.00  0.00    +0.000 C 
ATOM     15  O   UNL     1      10.961  15.838  22.554  0.00  0.00    +0.000 OA
ENDROOT
BRANCH   1  19
ATOM     16  C   UNL     1       5.636  12.463  25.953  0.00  0.00    +0.000 A 
ATOM     17  C   UNL     1       6.375  11.402  25.413  0.00  0.00    +0.000 A 
ATOM     18  C   UNL     1       7.134  11.561  24.239  0.00  0.00    +0.000 A 
ATOM     19  C   UNL     1       7.137  12.791  23.575  0.00  0.00    +0.000 A 
ATOM     20  C   UNL     1       6.353  13.838  24.095  0.00  0.00    +0.000 A 
ATOM     21  C   UNL     1       5.612  13.675  25.274  0.00  0.00    +0.000 A 
BRANCH  16  23
ATOM     22  C   UNL     1       4.354  10.897  27.186  0.00  0.00    +0.000 C 
ATOM     23  O   UNL     1       4.944  12.196  27.103  0.00  0.00    +0.000 OA
ENDBRANCH  16  23
ENDBRANCH   1  19
BRANCH   3  24
ATOM     24  C   UNL     1      10.548  12.100  20.241  0.00  0.00    +0.000 A 
ATOM     25  C   UNL     1      11.914  12.086  20.051  0.00  0.00    +0.000 A 
ATOM     26  C   UNL     1      12.131  11.700  18.698  0.00  0.00    +0.000 A 
ATOM     27  C   UNL     1      10.890  11.528  18.140  0.00  0.00    +0.000 A 
ATOM     28  O   UNL     1       9.933  11.715  19.076  0.00  0.00    +0.000 OA
ENDBRANCH   3  24
TORSDOF 3
ENDMDL
MODEL 9
REMARK VINA RESULT:      -6.5      9.224     10.624
REMARK  Name = 
REMARK  4 active torsions:
REMARK  status: ('A' for Active; 'I' for Inactive)
REMARK    1  A    between atoms: C_1  and  O_2
REMARK    2  A    between atoms: O_2  and  C_3
REMARK    3  A    between atoms: C_6  and  N_7
REMARK    4  A    between atoms: C_9  and  C_10
REMARK                            x       y       z     vdW  Elec       q    Type
REMARK                         _______ _______ _______ _____ _____    ______ ____
ROOT
ATOM      1  N   UNL     1       7.079  15.690  19.720  0.00  0.00    +0.000 N 
ATOM      2  C   UNL     1       8.085  16.482  19.208  0.00  0.00    +0.000 A 
ATOM      3  C   UNL     1       8.768  15.646  18.340  0.00  0.00    +0.000 A 
ATOM      4  C   UNL     1       8.009  14.404  18.295  0.00  0.00    +0.000 A 
ATOM      5  C   UNL     1       7.660  14.420  19.659  0.00  0.00    +0.000 A 
ATOM      6  C   UNL     1       8.660  13.779  20.570  0.00  0.00    +0.000 C 
ATOM      7  O   UNL     1       8.727  13.937  21.782  0.00  0.00    +0.000 OA
ATOM      8  C   UNL     1       9.782  12.986  19.811  0.00  0.00    +0.000 A 
ATOM      9  C   UNL     1      11.092  12.828  20.291  0.00  0.00    +0.000 A 
ATOM     10  C   UNL     1      12.071  12.201  19.487  0.00  0.00    +0.000 A 
ATOM     11  C   UNL     1      11.755  11.689  18.217  0.00  0.00    +0.000 A 
ATOM     12  C   UNL     1      10.473  11.833  17.721  0.00  0.00    +0.000 A 
ATOM     13  C   UNL     1       9.537  12.545  18.495  0.00  0.00    +0.000 A 
ATOM     14  C   UNL     1       8.364  13.090  17.799  0.00  0.00    +0.000 C 
ATOM     15  O   UNL     1       7.707  12.435  17.004  0.00  0.00    +0.000 OA
ENDROOT
BRANCH   1  19
ATOM     16  C   UNL     1       2.957  16.718  20.040  0.00  0.00    +0.000 A 
ATOM     17  C   UNL     1       3.951  17.643  20.384  0.00  0.00    +0.000 A 
ATOM     18  C   UNL     1       5.317  17.339  20.239  0.00  0.00    +0.000 A 
ATOM     19  C   UNL     1       5.702  16.082  19.767  0.00  0.00    +0.000 A 
ATOM     20  C   UNL     1       4.700  15.139  19.470  0.00  0.00    +0.000 A 
ATOM     21  C   UNL     1       3.341  15.455  19.604  0.00  0.00    +0.000 A 
BRANCH  16  23
ATOM     22  C   UNL     1       1.353  17.681  21.493  0.00  0.00    +0.000 C 
ATOM     23  O   UNL     1       1.662  17.125  20.214  0.00  0.00    +0.000 OA
ENDBRANCH  16  23
ENDBRANCH   1  19
BRANCH   3  24
ATOM     24  C   UNL     1      10.201  15.927  18.043  0.00  0.00    +0.000 A 
ATOM     25  C   UNL     1      10.939  15.700  16.901  0.00  0.00    +0.000 A 
ATOM     26  C   UNL     1      12.301  15.924  17.247  0.00  0.00    +0.000 A 
ATOM     27  C   UNL     1      12.315  16.246  18.580  0.00  0.00    +0.000 A 
ATOM     28  O   UNL     1      11.050  16.303  19.054  0.00  0.00    +0.000 OA
ENDBRANCH   3  24
TORSDOF 3
ENDMDL
