MODEL 1
REMARK VINA RESULT:      -9.1      0.000      0.000
REMARK  Name = 
REMARK  6 active torsions:
REMARK  status: ('A' for Active; 'I' for Inactive)
REMARK    1  A    between atoms: C_2  and  C_3
REMARK    2  A    between atoms: C_3  and  O_4
REMARK    3  A    between atoms: O_4  and  C_5
REMARK    4  A    between atoms: C_16  and  C_17
REMARK    5  A    between atoms: C_20  and  C_21
REMARK    6  A    between atoms: C_24  and  C_25
REMARK                            x       y       z     vdW  Elec       q    Type
REMARK                         _______ _______ _______ _____ _____    ______ ____
ROOT
ATOM      1  O   UNL     1       4.956   6.903  17.377  0.00  0.00    +0.000 OA
ATOM      2  C   UNL     1       5.028   5.677  17.277  0.00  0.00    +0.000 C 
ATOM      3  N   UNL     1       4.004   4.789  17.655  0.00  0.00    +0.000 N 
ATOM      4  C   UNL     1       4.237   3.343  17.621  0.00  0.00    +0.000 C 
ATOM      5  C   UNL     1       2.970   2.543  17.363  0.00  0.00    +0.000 C 
ATOM      6  C   UNL     1       1.889   2.889  18.372  0.00  0.00    +0.000 C 
ATOM      7  C   UNL     1       1.630   4.390  18.375  0.00  0.00    +0.000 C 
ATOM      8  C   UNL     1       2.919   5.211  18.590  0.00  0.00    +0.000 C 
ENDROOT
BRANCH   8   9
ATOM      9  C   UNL     1       2.588   6.683  18.588  0.00  0.00    +0.000 A 
ATOM     10  C   UNL     1       2.723   7.541  17.509  0.00  0.00    +0.000 A 
ATOM     11  S   UNL     1       2.071   9.076  17.888  0.00  0.00    +0.000 S 
ATOM     12  C   UNL     1       1.665   8.503  19.459  0.00  0.00    +0.000 A 
ATOM     13  N   UNL     1       2.111   7.290  19.741  0.00  0.00    +0.000 NA
BRANCH  12  14
ATOM     14  C   UNL     1       0.905   9.340  20.397  0.00  0.00    +0.000 A 
ATOM     15  C   UNL     1       0.242   8.755  21.472  0.00  0.00    +0.000 A 
ATOM     16  C   UNL     1      -0.559   9.556  22.281  0.00  0.00    +0.000 A 
ATOM     17  C   UNL     1      -0.704  10.911  21.988  0.00  0.00    +0.000 A 
ATOM     18  C   UNL     1      -0.002  11.414  20.899  0.00  0.00    +0.000 A 
ATOM     19  N   UNL     1       0.805  10.665  20.113  0.00  0.00    +0.000 NA
BRANCH  17  20
ATOM     20  C   UNL     1      -1.590  11.824  22.779  0.00  0.00    +0.000 C 
ATOM     21  F   UNL     1      -2.509  12.479  22.014  0.00  0.00    +0.000 F 
ATOM     22  F   UNL     1      -2.300  11.171  23.736  0.00  0.00    +0.000 F 
ATOM     23  F   UNL     1      -0.891  12.795  23.428  0.00  0.00    +0.000 F 
ENDBRANCH  17  20
ENDBRANCH  12  14
ENDBRANCH   8   9
BRANCH   2  24
ATOM     24  C   UNL     1       6.368   5.085  16.812  0.00  0.00    +0.000 C 
BRANCH  24  25
ATOM     25  O   UNL     1       6.960   5.729  15.694  0.00  0.00    +0.000 OA
BRANCH  25  26
ATOM     26  C   UNL     1       6.811   5.062  14.503  0.00  0.00    +0.000 A 
ATOM     27  C   UNL     1       5.682   4.247  14.404  0.00  0.00    +0.000 A 
ATOM     28  C   UNL     1       5.455   3.491  13.250  0.00  0.00    +0.000 A 
ATOM     29  C   UNL     1       6.350   3.560  12.185  0.00  0.00    +0.000 A 
ATOM     30  C   UNL     1       7.464   4.391  12.266  0.00  0.00    +0.000 A 
ATOM     31  C   UNL     1       7.690   5.146  13.419  0.00  0.00    +0.000 A 
ENDBRANCH  25  26
ENDBRANCH  24  25
ENDBRANCH   2  24
TORSDOF 6
ENDMDL
MODEL 2
REMARK VINA RESULT:      -8.8      1.123      1.588
REMARK  Name = 
REMARK  6 active torsions:
REMARK  status: ('A' for Active; 'I' for Inactive)
REMARK    1  A    between atoms: C_2  and  C_3
REMARK    2  A    between atoms: C_3  and  O_4
REMARK    3  A    between atoms: O_4  and  C_5
REMARK    4  A    between atoms: C_16  and  C_17
REMARK    5  A    between atoms: C_20  and  C_21
REMARK    6  A    between atoms: C_24  and  C_25
REMARK                            x       y       z     vdW  Elec       q    Type
REMARK                         _______ _______ _______ _____ _____    ______ ____
ROOT
ATOM      1  O   UNL     1       4.928   6.285  18.812  0.00  0.00    +0.000 OA
ATOM      2  C   UNL     1       4.969   5.056  18.884  0.00  0.00    +0.000 C 
ATOM      3  N   UNL     1       3.847   4.237  19.101  0.00  0.00    +0.000 N 
ATOM      4  C   UNL     1       4.018   2.796  19.304  0.00  0.00    +0.000 C 
ATOM      5  C   UNL     1       2.820   1.983  18.839  0.00  0.00    +0.000 C 
ATOM      6  C   UNL     1       1.541   2.470  19.497  0.00  0.00    +0.000 C 
ATOM      7  C   UNL     1       1.353   3.962  19.251  0.00  0.00    +0.000 C 
ATOM      8  C   UNL     1       2.584   4.789  19.678  0.00  0.00    +0.000 C 
ENDROOT
BRANCH   8   9
ATOM      9  C   UNL     1       2.328   6.252  19.413  0.00  0.00    +0.000 A 
ATOM     10  C   UNL     1       2.521   6.900  18.204  0.00  0.00    +0.000 A 
ATOM     11  S   UNL     1       1.941   8.508  18.297  0.00  0.00    +0.000 S 
ATOM     12  C   UNL     1       1.486   8.237  19.935  0.00  0.00    +0.000 A 
ATOM     13  N   UNL     1       1.866   7.073  20.432  0.00  0.00    +0.000 NA
BRANCH  12  14
ATOM     14  C   UNL     1       0.757   9.260  20.696  0.00  0.00    +0.000 A 
ATOM     15  C   UNL     1       0.550   9.095  22.063  0.00  0.00    +0.000 A 
ATOM     16  C   UNL     1      -0.237  10.024  22.737  0.00  0.00    +0.000 A 
ATOM     17  C   UNL     1      -0.822  11.077  22.036  0.00  0.00    +0.000 A 
ATOM     18  C   UNL     1      -0.559  11.169  20.674  0.00  0.00    +0.000 A 
ATOM     19  N   UNL     1       0.224  10.297  19.998  0.00  0.00    +0.000 NA
BRANCH  17  20
ATOM     20  C   UNL     1      -1.724  12.083  22.682  0.00  0.00    +0.000 C 
ATOM     21  F   UNL     1      -2.418  12.839  21.784  0.00  0.00    +0.000 F 
ATOM     22  F   UNL     1      -2.657  11.513  23.489  0.00  0.00    +0.000 F 
ATOM     23  F   UNL     1      -1.045  12.968  23.462  0.00  0.00    +0.000 F 
ENDBRANCH  17  20
ENDBRANCH  12  14
ENDBRANCH   8   9
BRANCH   2  24
ATOM     24  C   UNL     1       6.355   4.394  18.843  0.00  0.00    +0.000 C 
BRANCH  24  25
ATOM     25  O   UNL     1       7.218   4.856  17.815  0.00  0.00    +0.000 OA
BRANCH  25  26
ATOM     26  C   UNL     1       6.804   4.557  16.540  0.00  0.00    +0.000 A 
ATOM     27  C   UNL     1       7.451   5.252  15.517  0.00  0.00    +0.000 A 
ATOM     28  C   UNL     1       7.079   5.054  14.184  0.00  0.00    +0.000 A 
ATOM     29  C   UNL     1       6.067   4.149  13.870  0.00  0.00    +0.000 A 
ATOM     30  C   UNL     1       5.437   3.433  14.883  0.00  0.00    +0.000 A 
ATOM     31  C   UNL     1       5.809   3.631  16.215  0.00  0.00    +0.000 A 
ENDBRANCH  25  26
ENDBRANCH  24  25
ENDBRANCH   2  24
TORSDOF 6
ENDMDL
MODEL 3
REMARK VINA RESULT:      -8.6      4.681      8.553
REMARK  Name = 
REMARK  6 active torsions:
REMARK  status: ('A' for Active; 'I' for Inactive)
REMARK    1  A    between atoms: C_2  and  C_3
REMARK    2  A    between atoms: C_3  and  O_4
REMARK    3  A    between atoms: O_4  and  C_5
REMARK    4  A    between atoms: C_16  and  C_17
REMARK    5  A    between atoms: C_20  and  C_21
REMARK    6  A    between atoms: C_24  and  C_25
REMARK                            x       y       z     vdW  Elec       q    Type
REMARK                         _______ _______ _______ _____ _____    ______ ____
ROOT
ATOM      1  O   UNL     1       3.190   7.014  18.733  0.00  0.00    +0.000 OA
ATOM      2  C   UNL     1       2.521   6.441  19.595  0.00  0.00    +0.000 C 
ATOM      3  N   UNL     1       2.669   5.087  19.943  0.00  0.00    +0.000 N 
ATOM      4  C   UNL     1       1.735   4.465  20.886  0.00  0.00    +0.000 C 
ATOM      5  C   UNL     1       2.360   3.327  21.678  0.00  0.00    +0.000 C 
ATOM      6  C   UNL     1       2.963   2.284  20.753  0.00  0.00    +0.000 C 
ATOM      7  C   UNL     1       3.958   2.934  19.800  0.00  0.00    +0.000 C 
ATOM      8  C   UNL     1       3.344   4.120  19.026  0.00  0.00    +0.000 C 
ENDROOT
BRANCH   8   9
ATOM      9  C   UNL     1       4.379   4.710  18.100  0.00  0.00    +0.000 A 
ATOM     10  C   UNL     1       4.455   4.500  16.733  0.00  0.00    +0.000 A 
ATOM     11  S   UNL     1       5.667   5.495  16.049  0.00  0.00    +0.000 S 
ATOM     12  C   UNL     1       6.016   6.126  17.612  0.00  0.00    +0.000 A 
ATOM     13  N   UNL     1       5.374   5.537  18.605  0.00  0.00    +0.000 NA
BRANCH  12  14
ATOM     14  C   UNL     1       6.983   7.217  17.788  0.00  0.00    +0.000 A 
ATOM     15  C   UNL     1       8.028   7.082  18.698  0.00  0.00    +0.000 A 
ATOM     16  C   UNL     1       8.863   8.171  18.924  0.00  0.00    +0.000 A 
ATOM     17  C   UNL     1       8.628   9.376  18.265  0.00  0.00    +0.000 A 
ATOM     18  C   UNL     1       7.566   9.422  17.369  0.00  0.00    +0.000 A 
ATOM     19  N   UNL     1       6.754   8.372  17.108  0.00  0.00    +0.000 NA
BRANCH  17  20
ATOM     20  C   UNL     1       9.450  10.606  18.496  0.00  0.00    +0.000 C 
ATOM     21  F   UNL     1       8.708  11.749  18.541  0.00  0.00    +0.000 F 
ATOM     22  F   UNL     1      10.141  10.565  19.667  0.00  0.00    +0.000 F 
ATOM     23  F   UNL     1      10.378  10.805  17.521  0.00  0.00    +0.000 F 
ENDBRANCH  17  20
ENDBRANCH  12  14
ENDBRANCH   8   9
BRANCH   2  24
ATOM     24  C   UNL     1       1.381   7.239  20.247  0.00  0.00    +0.000 C 
BRANCH  24  25
ATOM     25  O   UNL     1       1.415   8.640  20.024  0.00  0.00    +0.000 OA
BRANCH  25  26
ATOM     26  C   UNL     1       0.680   9.382  20.916  0.00  0.00    +0.000 A 
ATOM     27  C   UNL     1       0.641   8.889  22.222  0.00  0.00    +0.000 A 
ATOM     28  C   UNL     1      -0.112   9.544  23.201  0.00  0.00    +0.000 A 
ATOM     29  C   UNL     1      -0.816  10.703  22.881  0.00  0.00    +0.000 A 
ATOM     30  C   UNL     1      -0.759  11.214  21.587  0.00  0.00    +0.000 A 
ATOM     31  C   UNL     1      -0.006  10.560  20.609  0.00  0.00    +0.000 A 
ENDBRANCH  25  26
ENDBRANCH  24  25
ENDBRANCH   2  24
TORSDOF 6
ENDMDL
MODEL 4
REMARK VINA RESULT:      -8.6      5.441     10.209
REMARK  Name = 
REMARK  6 active torsions:
REMARK  status: ('A' for Active; 'I' for Inactive)
REMARK    1  A    between atoms: C_2  and  C_3
REMARK    2  A    between atoms: C_3  and  O_4
REMARK    3  A    between atoms: O_4  and  C_5
REMARK    4  A    between atoms: C_16  and  C_17
REMARK    5  A    between atoms: C_20  and  C_21
REMARK    6  A    between atoms: C_24  and  C_25
REMARK                            x       y       z     vdW  Elec       q    Type
REMARK                         _______ _______ _______ _____ _____    ______ ____
ROOT
ATOM      1  O   UNL     1      -1.340   9.965  18.832  0.00  0.00    +0.000 OA
ATOM      2  C   UNL     1      -1.346  11.147  18.483  0.00  0.00    +0.000 C 
ATOM      3  N   UNL     1      -0.486  12.131  19.001  0.00  0.00    +0.000 N 
ATOM      4  C   UNL     1      -0.661  13.535  18.619  0.00  0.00    +0.000 C 
ATOM      5  C   UNL     1       0.637  14.326  18.646  0.00  0.00    +0.000 C 
ATOM      6  C   UNL     1       1.314  14.219  20.001  0.00  0.00    +0.000 C 
ATOM      7  C   UNL     1       1.524  12.757  20.374  0.00  0.00    +0.000 C 
ATOM      8  C   UNL     1       0.218  11.937  20.304  0.00  0.00    +0.000 C 
ENDROOT
BRANCH   8   9
ATOM      9  C   UNL     1       0.498  10.506  20.691  0.00  0.00    +0.000 A 
ATOM     10  C   UNL     1      -0.108   9.815  21.727  0.00  0.00    +0.000 A 
ATOM     11  S   UNL     1       0.371   8.173  21.703  0.00  0.00    +0.000 S 
ATOM     12  C   UNL     1       1.357   8.493  20.329  0.00  0.00    +0.000 A 
ATOM     13  N   UNL     1       1.441   9.768  19.989  0.00  0.00    +0.000 NA
BRANCH  12  14
ATOM     14  C   UNL     1       2.059   7.407  19.632  0.00  0.00    +0.000 A 
ATOM     15  C   UNL     1       2.658   7.644  18.398  0.00  0.00    +0.000 A 
ATOM     16  C   UNL     1       3.221   6.573  17.711  0.00  0.00    +0.000 A 
ATOM     17  C   UNL     1       3.153   5.289  18.249  0.00  0.00    +0.000 A 
ATOM     18  C   UNL     1       2.541   5.143  19.489  0.00  0.00    +0.000 A 
ATOM     19  N   UNL     1       2.010   6.170  20.193  0.00  0.00    +0.000 NA
BRANCH  17  20
ATOM     20  C   UNL     1       3.687   4.081  17.545  0.00  0.00    +0.000 C 
ATOM     21  F   UNL     1       4.538   4.386  16.523  0.00  0.00    +0.000 F 
ATOM     22  F   UNL     1       4.379   3.253  18.371  0.00  0.00    +0.000 F 
ATOM     23  F   UNL     1       2.703   3.322  16.991  0.00  0.00    +0.000 F 
ENDBRANCH  17  20
ENDBRANCH  12  14
ENDBRANCH   8   9
BRANCH   2  24
ATOM     24  C   UNL     1      -2.442  11.584  17.499  0.00  0.00    +0.000 C 
BRANCH  24  25
ATOM     25  O   UNL     1      -3.518  10.672  17.343  0.00  0.00    +0.000 OA
BRANCH  25  26
ATOM     26  C   UNL     1      -4.762  11.207  17.573  0.00  0.00    +0.000 A 
ATOM     27  C   UNL     1      -5.526  10.562  18.548  0.00  0.00    +0.000 A 
ATOM     28  C   UNL     1      -6.823  10.999  18.832  0.00  0.00    +0.000 A 
ATOM     29  C   UNL     1      -7.354  12.093  18.153  0.00  0.00    +0.000 A 
ATOM     30  C   UNL     1      -6.588  12.757  17.200  0.00  0.00    +0.000 A 
ATOM     31  C   UNL     1      -5.292  12.320  16.916  0.00  0.00    +0.000 A 
ENDBRANCH  25  26
ENDBRANCH  24  25
ENDBRANCH   2  24
TORSDOF 6
ENDMDL
MODEL 5
REMARK VINA RESULT:      -8.6      0.569      1.381
REMARK  Name = 
REMARK  6 active torsions:
REMARK  status: ('A' for Active; 'I' for Inactive)
REMARK    1  A    between atoms: C_2  and  C_3
REMARK    2  A    between atoms: C_3  and  O_4
REMARK    3  A    between atoms: O_4  and  C_5
REMARK    4  A    between atoms: C_16  and  C_17
REMARK    5  A    between atoms: C_20  and  C_21
REMARK    6  A    between atoms: C_24  and  C_25
REMARK                            x       y       z     vdW  Elec       q    Type
REMARK                         _______ _______ _______ _____ _____    ______ ____
ROOT
ATOM      1  O   UNL     1       4.961   7.061  17.380  0.00  0.00    +0.000 OA
ATOM      2  C   UNL     1       5.047   5.834  17.302  0.00  0.00    +0.000 C 
ATOM      3  N   UNL     1       4.028   4.943  17.682  0.00  0.00    +0.000 N 
ATOM      4  C   UNL     1       4.277   3.499  17.678  0.00  0.00    +0.000 C 
ATOM      5  C   UNL     1       3.022   2.679  17.417  0.00  0.00    +0.000 C 
ATOM      6  C   UNL     1       1.924   3.032  18.404  0.00  0.00    +0.000 C 
ATOM      7  C   UNL     1       1.648   4.530  18.376  0.00  0.00    +0.000 C 
ATOM      8  C   UNL     1       2.925   5.369  18.594  0.00  0.00    +0.000 C 
ENDROOT
BRANCH   8   9
ATOM      9  C   UNL     1       2.578   6.837  18.560  0.00  0.00    +0.000 A 
ATOM     10  C   UNL     1       2.847   7.708  17.518  0.00  0.00    +0.000 A 
ATOM     11  S   UNL     1       2.129   9.231  17.819  0.00  0.00    +0.000 S 
ATOM     12  C   UNL     1       1.522   8.636  19.315  0.00  0.00    +0.000 A 
ATOM     13  N   UNL     1       1.941   7.426  19.644  0.00  0.00    +0.000 NA
BRANCH  12  14
ATOM     14  C   UNL     1       0.630   9.454  20.149  0.00  0.00    +0.000 A 
ATOM     15  C   UNL     1      -0.218  10.384  19.556  0.00  0.00    +0.000 A 
ATOM     16  C   UNL     1      -0.971  11.220  20.375  0.00  0.00    +0.000 A 
ATOM     17  C   UNL     1      -0.844  11.134  21.760  0.00  0.00    +0.000 A 
ATOM     18  C   UNL     1       0.023  10.173  22.268  0.00  0.00    +0.000 A 
ATOM     19  N   UNL     1       0.746   9.328  21.498  0.00  0.00    +0.000 NA
BRANCH  17  20
ATOM     20  C   UNL     1      -1.579  12.035  22.704  0.00  0.00    +0.000 C 
ATOM     21  F   UNL     1      -0.758  12.879  23.392  0.00  0.00    +0.000 F 
ATOM     22  F   UNL     1      -2.485  12.829  22.075  0.00  0.00    +0.000 F 
ATOM     23  F   UNL     1      -2.276  11.346  23.648  0.00  0.00    +0.000 F 
ENDBRANCH  17  20
ENDBRANCH  12  14
ENDBRANCH   8   9
BRANCH   2  24
ATOM     24  C   UNL     1       6.399   5.249  16.867  0.00  0.00    +0.000 C 
BRANCH  24  25
ATOM     25  O   UNL     1       6.967   5.833  15.704  0.00  0.00    +0.000 OA
BRANCH  25  26
ATOM     26  C   UNL     1       6.815   5.092  14.558  0.00  0.00    +0.000 A 
ATOM     27  C   UNL     1       7.720   5.374  13.532  0.00  0.00    +0.000 A 
ATOM     28  C   UNL     1       7.629   4.707  12.307  0.00  0.00    +0.000 A 
ATOM     29  C   UNL     1       6.642   3.745  12.109  0.00  0.00    +0.000 A 
ATOM     30  C   UNL     1       5.754   3.440  13.136  0.00  0.00    +0.000 A 
ATOM     31  C   UNL     1       5.844   4.106  14.361  0.00  0.00    +0.000 A 
ENDBRANCH  25  26
ENDBRANCH  24  25
ENDBRANCH   2  24
TORSDOF 6
ENDMDL
MODEL 6
REMARK VINA RESULT:      -8.6      1.248      1.714
REMARK  Name = 
REMARK  6 active torsions:
REMARK  status: ('A' for Active; 'I' for Inactive)
REMARK    1  A    between atoms: C_2  and  C_3
REMARK    2  A    between atoms: C_3  and  O_4
REMARK    3  A    between atoms: O_4  and  C_5
REMARK    4  A    between atoms: C_16  and  C_17
REMARK    5  A    between atoms: C_20  and  C_21
REMARK    6  A    between atoms: C_24  and  C_25
REMARK                            x       y       z     vdW  Elec       q    Type
REMARK                         _______ _______ _______ _____ _____    ______ ____
ROOT
ATOM      1  O   UNL     1       4.984   6.493  19.158  0.00  0.00    +0.000 OA
ATOM      2  C   UNL     1       5.048   5.266  19.079  0.00  0.00    +0.000 C 
ATOM      3  N   UNL     1       3.935   4.423  18.908  0.00  0.00    +0.000 N 
ATOM      4  C   UNL     1       4.101   2.968  18.959  0.00  0.00    +0.000 C 
ATOM      5  C   UNL     1       3.079   2.222  18.116  0.00  0.00    +0.000 C 
ATOM      6  C   UNL     1       1.663   2.614  18.499  0.00  0.00    +0.000 C 
ATOM      7  C   UNL     1       1.490   4.126  18.409  0.00  0.00    +0.000 C 
ATOM      8  C   UNL     1       2.553   4.891  19.226  0.00  0.00    +0.000 C 
ENDROOT
BRANCH   8   9
ATOM      9  C   UNL     1       2.318   6.376  19.098  0.00  0.00    +0.000 A 
ATOM     10  C   UNL     1       2.530   7.132  17.957  0.00  0.00    +0.000 A 
ATOM     11  S   UNL     1       1.971   8.731  18.196  0.00  0.00    +0.000 S 
ATOM     12  C   UNL     1       1.498   8.314  19.797  0.00  0.00    +0.000 A 
ATOM     13  N   UNL     1       1.858   7.104  20.186  0.00  0.00    +0.000 NA
BRANCH  12  14
ATOM     14  C   UNL     1       0.775   9.272  20.646  0.00  0.00    +0.000 A 
ATOM     15  C   UNL     1       0.502   8.956  21.974  0.00  0.00    +0.000 A 
ATOM     16  C   UNL     1      -0.278   9.833  22.722  0.00  0.00    +0.000 A 
ATOM     17  C   UNL     1      -0.790  10.986  22.130  0.00  0.00    +0.000 A 
ATOM     18  C   UNL     1      -0.463  11.226  20.800  0.00  0.00    +0.000 A 
ATOM     19  N   UNL     1       0.315  10.406  20.056  0.00  0.00    +0.000 NA
BRANCH  17  20
ATOM     20  C   UNL     1      -1.680  11.948  22.855  0.00  0.00    +0.000 C 
ATOM     21  F   UNL     1      -0.992  12.874  23.582  0.00  0.00    +0.000 F 
ATOM     22  F   UNL     1      -2.484  12.655  22.017  0.00  0.00    +0.000 F 
ATOM     23  F   UNL     1      -2.510  11.328  23.737  0.00  0.00    +0.000 F 
ENDBRANCH  17  20
ENDBRANCH  12  14
ENDBRANCH   8   9
BRANCH   2  24
ATOM     24  C   UNL     1       6.425   4.617  19.291  0.00  0.00    +0.000 C 
BRANCH  24  25
ATOM     25  O   UNL     1       7.327   4.737  18.202  0.00  0.00    +0.000 OA
BRANCH  25  26
ATOM     26  C   UNL     1       6.728   4.869  16.973  0.00  0.00    +0.000 A 
ATOM     27  C   UNL     1       6.566   3.685  16.251  0.00  0.00    +0.000 A 
ATOM     28  C   UNL     1       6.005   3.710  14.971  0.00  0.00    +0.000 A 
ATOM     29  C   UNL     1       5.590   4.918  14.415  0.00  0.00    +0.000 A 
ATOM     30  C   UNL     1       5.724   6.098  15.141  0.00  0.00    +0.000 A 
ATOM     31  C   UNL     1       6.285   6.073  16.420  0.00  0.00    +0.000 A 
ENDBRANCH  25  26
ENDBRANCH  24  25
ENDBRANCH   2  24
TORSDOF 6
ENDMDL
MODEL 7
REMARK VINA RESULT:      -8.5      0.730      1.295
REMARK  Name = 
REMARK  6 active torsions:
REMARK  status: ('A' for Active; 'I' for Inactive)
REMARK    1  A    between atoms: C_2  and  C_3
REMARK    2  A    between atoms: C_3  and  O_4
REMARK    3  A    between atoms: O_4  and  C_5
REMARK    4  A    between atoms: C_16  and  C_17
REMARK    5  A    between atoms: C_20  and  C_21
REMARK    6  A    between atoms: C_24  and  C_25
REMARK                            x       y       z     vdW  Elec       q    Type
REMARK                         _______ _______ _______ _____ _____    ______ ____
ROOT
ATOM      1  O   UNL     1       4.365   6.304  17.335  0.00  0.00    +0.000 OA
ATOM      2  C   UNL     1       4.416   5.080  17.462  0.00  0.00    +0.000 C 
ATOM      3  N   UNL     1       3.562   4.332  18.291  0.00  0.00    +0.000 N 
ATOM      4  C   UNL     1       3.789   2.896  18.476  0.00  0.00    +0.000 C 
ATOM      5  C   UNL     1       2.512   2.124  18.766  0.00  0.00    +0.000 C 
ATOM      6  C   UNL     1       1.778   2.709  19.959  0.00  0.00    +0.000 C 
ATOM      7  C   UNL     1       1.515   4.194  19.743  0.00  0.00    +0.000 C 
ATOM      8  C   UNL     1       2.801   4.977  19.403  0.00  0.00    +0.000 C 
ENDROOT
BRANCH   8   9
ATOM      9  C   UNL     1       2.468   6.436  19.208  0.00  0.00    +0.000 A 
ATOM     10  C   UNL     1       2.577   7.138  18.019  0.00  0.00    +0.000 A 
ATOM     11  S   UNL     1       1.932   8.713  18.202  0.00  0.00    +0.000 S 
ATOM     12  C   UNL     1       1.564   8.359  19.845  0.00  0.00    +0.000 A 
ATOM     13  N   UNL     1       2.018   7.195  20.279  0.00  0.00    +0.000 NA
BRANCH  12  14
ATOM     14  C   UNL     1       0.826   9.318  20.678  0.00  0.00    +0.000 A 
ATOM     15  C   UNL     1       0.383   8.943  21.944  0.00  0.00    +0.000 A 
ATOM     16  C   UNL     1      -0.407   9.833  22.666  0.00  0.00    +0.000 A 
ATOM     17  C   UNL     1      -0.761  11.059  22.106  0.00  0.00    +0.000 A 
ATOM     18  C   UNL     1      -0.271  11.354  20.840  0.00  0.00    +0.000 A 
ATOM     19  N   UNL     1       0.522  10.521  20.126  0.00  0.00    +0.000 NA
BRANCH  17  20
ATOM     20  C   UNL     1      -1.651  12.044  22.800  0.00  0.00    +0.000 C 
ATOM     21  F   UNL     1      -2.545  11.459  23.648  0.00  0.00    +0.000 F 
ATOM     22  F   UNL     1      -0.959  12.942  23.550  0.00  0.00    +0.000 F 
ATOM     23  F   UNL     1      -2.395  12.778  21.929  0.00  0.00    +0.000 F 
ENDBRANCH  17  20
ENDBRANCH  12  14
ENDBRANCH   8   9
BRANCH   2  24
ATOM     24  C   UNL     1       5.563   4.345  16.749  0.00  0.00    +0.000 C 
BRANCH  24  25
ATOM     25  O   UNL     1       6.362   5.151  15.896  0.00  0.00    +0.000 OA
BRANCH  25  26
ATOM     26  C   UNL     1       6.442   4.709  14.598  0.00  0.00    +0.000 A 
ATOM     27  C   UNL     1       7.548   5.160  13.874  0.00  0.00    +0.000 A 
ATOM     28  C   UNL     1       7.705   4.804  12.532  0.00  0.00    +0.000 A 
ATOM     29  C   UNL     1       6.765   3.983  11.913  0.00  0.00    +0.000 A 
ATOM     30  C   UNL     1       5.675   3.509  12.637  0.00  0.00    +0.000 A 
ATOM     31  C   UNL     1       5.518   3.864  13.979  0.00  0.00    +0.000 A 
ENDBRANCH  25  26
ENDBRANCH  24  25
ENDBRANCH   2  24
TORSDOF 6
ENDMDL
MODEL 8
REMARK VINA RESULT:      -8.5      5.265     10.273
REMARK  Name = 
REMARK  6 active torsions:
REMARK  status: ('A' for Active; 'I' for Inactive)
REMARK    1  A    between atoms: C_2  and  C_3
REMARK    2  A    between atoms: C_3  and  O_4
REMARK    3  A    between atoms: O_4  and  C_5
REMARK    4  A    between atoms: C_16  and  C_17
REMARK    5  A    between atoms: C_20  and  C_21
REMARK    6  A    between atoms: C_24  and  C_25
REMARK                            x       y       z     vdW  Elec       q    Type
REMARK                         _______ _______ _______ _____ _____    ______ ____
ROOT
ATOM      1  O   UNL     1      -1.050  10.020  17.464  0.00  0.00    +0.000 OA
ATOM      2  C   UNL     1      -1.500  11.049  17.970  0.00  0.00    +0.000 C 
ATOM      3  N   UNL     1      -0.836  11.805  18.953  0.00  0.00    +0.000 N 
ATOM      4  C   UNL     1      -1.513  12.939  19.588  0.00  0.00    +0.000 C 
ATOM      5  C   UNL     1      -0.552  14.024  20.048  0.00  0.00    +0.000 C 
ATOM      6  C   UNL     1       0.517  13.455  20.964  0.00  0.00    +0.000 C 
ATOM      7  C   UNL     1       1.239  12.300  20.282  0.00  0.00    +0.000 C 
ATOM      8  C   UNL     1       0.265  11.216  19.771  0.00  0.00    +0.000 C 
ENDROOT
BRANCH   8   9
ATOM      9  C   UNL     1       1.046  10.104  19.115  0.00  0.00    +0.000 A 
ATOM     10  C   UNL     1       1.842  10.230  17.989  0.00  0.00    +0.000 A 
ATOM     11  S   UNL     1       2.679   8.767  17.690  0.00  0.00    +0.000 S 
ATOM     12  C   UNL     1       1.920   8.065  19.066  0.00  0.00    +0.000 A 
ATOM     13  N   UNL     1       0.993   8.817  19.634  0.00  0.00    +0.000 NA
BRANCH  12  14
ATOM     14  C   UNL     1       2.281   6.717  19.523  0.00  0.00    +0.000 A 
ATOM     15  C   UNL     1       3.172   5.946  18.782  0.00  0.00    +0.000 A 
ATOM     16  C   UNL     1       3.412   4.634  19.179  0.00  0.00    +0.000 A 
ATOM     17  C   UNL     1       2.744   4.109  20.284  0.00  0.00    +0.000 A 
ATOM     18  C   UNL     1       1.875   4.951  20.970  0.00  0.00    +0.000 A 
ATOM     19  N   UNL     1       1.643   6.238  20.624  0.00  0.00    +0.000 NA
BRANCH  17  20
ATOM     20  C   UNL     1       2.909   2.692  20.739  0.00  0.00    +0.000 C 
ATOM     21  F   UNL     1       2.102   1.816  20.075  0.00  0.00    +0.000 F 
ATOM     22  F   UNL     1       4.177   2.230  20.572  0.00  0.00    +0.000 F 
ATOM     23  F   UNL     1       2.622   2.531  22.059  0.00  0.00    +0.000 F 
ENDBRANCH  17  20
ENDBRANCH  12  14
ENDBRANCH   8   9
BRANCH   2  24
ATOM     24  C   UNL     1      -2.926  11.463  17.574  0.00  0.00    +0.000 C 
BRANCH  24  25
ATOM     25  O   UNL     1      -3.962  10.898  18.363  0.00  0.00    +0.000 OA
BRANCH  25  26
ATOM     26  C   UNL     1      -5.161  11.567  18.298  0.00  0.00    +0.000 A 
ATOM     27  C   UNL     1      -5.947  11.509  19.451  0.00  0.00    +0.000 A 
ATOM     28  C   UNL     1      -7.203  12.120  19.480  0.00  0.00    +0.000 A 
ATOM     29  C   UNL     1      -7.672  12.804  18.360  0.00  0.00    +0.000 A 
ATOM     30  C   UNL     1      -6.882  12.888  17.218  0.00  0.00    +0.000 A 
ATOM     31  C   UNL     1      -5.626  12.278  17.189  0.00  0.00    +0.000 A 
ENDBRANCH  25  26
ENDBRANCH  24  25
ENDBRANCH   2  24
TORSDOF 6
ENDMDL
MODEL 9
REMARK VINA RESULT:      -8.5      0.544      1.104
REMARK  Name = 
REMARK  6 active torsions:
REMARK  status: ('A' for Active; 'I' for Inactive)
REMARK    1  A    between atoms: C_2  and  C_3
REMARK    2  A    between atoms: C_3  and  O_4
REMARK    3  A    between atoms: O_4  and  C_5
REMARK    4  A    between atoms: C_16  and  C_17
REMARK    5  A    between atoms: C_20  and  C_21
REMARK    6  A    between atoms: C_24  and  C_25
REMARK                            x       y       z     vdW  Elec       q    Type
REMARK                         _______ _______ _______ _____ _____    ______ ____
ROOT
ATOM      1  O   UNL     1       5.082   6.921  17.390  0.00  0.00    +0.000 OA
ATOM      2  C   UNL     1       5.188   5.694  17.369  0.00  0.00    +0.000 C 
ATOM      3  N   UNL     1       4.196   4.804  17.819  0.00  0.00    +0.000 N 
ATOM      4  C   UNL     1       4.470   3.366  17.877  0.00  0.00    +0.000 C 
ATOM      5  C   UNL     1       3.224   2.515  17.691  0.00  0.00    +0.000 C 
ATOM      6  C   UNL     1       2.147   2.896  18.690  0.00  0.00    +0.000 C 
ATOM      7  C   UNL     1       1.843   4.387  18.598  0.00  0.00    +0.000 C 
ATOM      8  C   UNL     1       3.110   5.256  18.740  0.00  0.00    +0.000 C 
ENDROOT
BRANCH   8   9
ATOM      9  C   UNL     1       2.737   6.715  18.646  0.00  0.00    +0.000 A 
ATOM     10  C   UNL     1       2.990   7.547  17.567  0.00  0.00    +0.000 A 
ATOM     11  S   UNL     1       2.243   9.068  17.806  0.00  0.00    +0.000 S 
ATOM     12  C   UNL     1       1.647   8.524  19.326  0.00  0.00    +0.000 A 
ATOM     13  N   UNL     1       2.089   7.337  19.705  0.00  0.00    +0.000 NA
BRANCH  12  14
ATOM     14  C   UNL     1       0.741   9.359  20.126  0.00  0.00    +0.000 A 
ATOM     15  C   UNL     1       0.278  10.569  19.616  0.00  0.00    +0.000 A 
ATOM     16  C   UNL     1      -0.490  11.390  20.437  0.00  0.00    +0.000 A 
ATOM     17  C   UNL     1      -0.756  11.006  21.750  0.00  0.00    +0.000 A 
ATOM     18  C   UNL     1      -0.258   9.780  22.176  0.00  0.00    +0.000 A 
ATOM     19  N   UNL     1       0.467   8.948  21.392  0.00  0.00    +0.000 NA
BRANCH  17  20
ATOM     20  C   UNL     1      -1.528  11.860  22.708  0.00  0.00    +0.000 C 
ATOM     21  F   UNL     1      -2.198  11.140  23.653  0.00  0.00    +0.000 F 
ATOM     22  F   UNL     1      -0.739  12.729  23.393  0.00  0.00    +0.000 F 
ATOM     23  F   UNL     1      -2.471  12.620  22.086  0.00  0.00    +0.000 F 
ENDBRANCH  17  20
ENDBRANCH  12  14
ENDBRANCH   8   9
BRANCH   2  24
ATOM     24  C   UNL     1       6.539   5.111  16.925  0.00  0.00    +0.000 C 
BRANCH  24  25
ATOM     25  O   UNL     1       7.141   5.754  15.811  0.00  0.00    +0.000 OA
BRANCH  25  26
ATOM     26  C   UNL     1       6.946   5.120  14.608  0.00  0.00    +0.000 A 
ATOM     27  C   UNL     1       5.842   4.268  14.547  0.00  0.00    +0.000 A 
ATOM     28  C   UNL     1       5.574   3.542  13.383  0.00  0.00    +0.000 A 
ATOM     29  C   UNL     1       6.402   3.678  12.271  0.00  0.00    +0.000 A 
ATOM     30  C   UNL     1       7.488   4.546  12.317  0.00  0.00    +0.000 A 
ATOM     31  C   UNL     1       7.756   5.272  13.480  0.00  0.00    +0.000 A 
ENDBRANCH  25  26
ENDBRANCH  24  25
ENDBRANCH   2  24
TORSDOF 6
ENDMDL
