MODEL 1
REMARK VINA RESULT:      -8.8      0.000      0.000
REMARK  Name = 
REMARK  8 active torsions:
REMARK  status: ('A' for Active; 'I' for Inactive)
REMARK    1  A    between atoms: C_2  and  C_5
REMARK    2  A    between atoms: N_3  and  O_4
REMARK    3  A    between atoms: C_5  and  O_6
REMARK    4  A    between atoms: C_11  and  S_12
REMARK    5  A    between atoms: S_12  and  C_15
REMARK    6  A    between atoms: C_18  and  O_19
REMARK    7  A    between atoms: O_19  and  C_20
REMARK    8  A    between atoms: C_20  and  C_21
REMARK                            x       y       z     vdW  Elec       q    Type
REMARK                         _______ _______ _______ _____ _____    ______ ____
ROOT
ATOM      1  S   UNL     1       3.246   5.904  18.699  0.00  0.00    +0.000 S 
ATOM      2  O   UNL     1       4.152   5.754  19.827  0.00  0.00    +0.000 OA
ATOM      3  O   UNL     1       3.771   5.792  17.356  0.00  0.00    +0.000 OA
ENDROOT
BRANCH   1   9
ATOM      4  C   UNL     1       2.227   3.354  18.188  0.00  0.00    +0.000 C 
ATOM      5  C   UNL     1       1.183   2.320  18.646  0.00  0.00    +0.000 C 
ATOM      6  O   UNL     1       1.171   2.187  20.069  0.00  0.00    +0.000 OA
ATOM      7  C   UNL     1       0.736   3.385  20.709  0.00  0.00    +0.000 C 
ATOM      8  C   UNL     1       1.709   4.512  20.418  0.00  0.00    +0.000 C 
ATOM      9  C   UNL     1       1.971   4.680  18.911  0.00  0.00    +0.000 C 
BRANCH   4  11
ATOM     10  O   UNL     1       4.427   2.641  17.462  0.00  0.00    +0.000 OA
ATOM     11  C   UNL     1       3.628   2.733  18.398  0.00  0.00    +0.000 C 
ATOM     12  N   UNL     1       3.913   2.251  19.651  0.00  0.00    +0.000 N 
ATOM     13  H   UNL     1       3.169   1.927  20.271  0.00  0.00    +0.000 HD
BRANCH  12  14
ATOM     14  O   UNL     1       5.151   1.581  19.783  0.00  0.00    +0.000 OA
ATOM     15  H   UNL     1       5.086   1.177  20.675  0.00  0.00    +0.000 HD
ENDBRANCH  12  14
ENDBRANCH   4  11
BRANCH   4  16
ATOM     16  O   UNL     1       2.001   3.563  16.782  0.00  0.00    +0.000 OA
ATOM     17  H   UNL     1       2.145   2.701  16.336  0.00  0.00    +0.000 HD
ENDBRANCH   4  16
ENDBRANCH   1   9
BRANCH   1  18
ATOM     18  C   UNL     1       2.540   7.527  18.869  0.00  0.00    +0.000 A 
ATOM     19  C   UNL     1       2.390   8.319  17.727  0.00  0.00    +0.000 A 
ATOM     20  C   UNL     1       1.563   9.445  17.768  0.00  0.00    +0.000 A 
ATOM     21  C   UNL     1       0.857   9.749  18.934  0.00  0.00    +0.000 A 
ATOM     22  C   UNL     1       1.087   9.015  20.099  0.00  0.00    +0.000 A 
ATOM     23  C   UNL     1       1.919   7.892  20.067  0.00  0.00    +0.000 A 
BRANCH  21  24
ATOM     24  O   UNL     1      -0.109  10.721  19.009  0.00  0.00    +0.000 OA
BRANCH  24  25
ATOM     25  C   UNL     1      -1.437  10.202  19.202  0.00  0.00    +0.000 C 
BRANCH  25  26
ATOM     26  C   UNL     1      -2.377  10.542  18.062  0.00  0.00    +0.000 A 
ATOM     27  C   UNL     1      -2.173  10.038  16.766  0.00  0.00    +0.000 A 
ATOM     28  C   UNL     1      -3.010  10.420  15.716  0.00  0.00    +0.000 A 
ATOM     29 CL   UNL     1      -2.732   9.801  14.134  0.00  0.00    +0.000 Cl
ATOM     30  C   UNL     1      -4.065  11.304  15.934  0.00  0.00    +0.000 A 
ATOM     31  C   UNL     1      -4.290  11.804  17.215  0.00  0.00    +0.000 A 
ATOM     32  C   UNL     1      -3.456  11.425  18.272  0.00  0.00    +0.000 A 
ATOM     33 CL   UNL     1      -3.793  12.090  19.833  0.00  0.00    +0.000 Cl
ENDBRANCH  25  26
ENDBRANCH  24  25
ENDBRANCH  21  24
ENDBRANCH   1  18
TORSDOF 8
ENDMDL
MODEL 2
REMARK VINA RESULT:      -8.6      0.967      1.132
REMARK  Name = 
REMARK  8 active torsions:
REMARK  status: ('A' for Active; 'I' for Inactive)
REMARK    1  A    between atoms: C_2  and  C_5
REMARK    2  A    between atoms: N_3  and  O_4
REMARK    3  A    between atoms: C_5  and  O_6
REMARK    4  A    between atoms: C_11  and  S_12
REMARK    5  A    between atoms: S_12  and  C_15
REMARK    6  A    between atoms: C_18  and  O_19
REMARK    7  A    between atoms: O_19  and  C_20
REMARK    8  A    between atoms: C_20  and  C_21
REMARK                            x       y       z     vdW  Elec       q    Type
REMARK                         _______ _______ _______ _____ _____    ______ ____
ROOT
ATOM      1  S   UNL     1       2.983   6.105  18.903  0.00  0.00    +0.000 S 
ATOM      2  O   UNL     1       4.136   5.989  19.784  0.00  0.00    +0.000 OA
ATOM      3  O   UNL     1       3.189   6.103  17.472  0.00  0.00    +0.000 OA
ENDROOT
BRANCH   1   9
ATOM      4  C   UNL     1       1.976   3.553  18.381  0.00  0.00    +0.000 C 
ATOM      5  C   UNL     1       1.172   2.389  18.987  0.00  0.00    +0.000 C 
ATOM      6  O   UNL     1       1.604   2.094  20.318  0.00  0.00    +0.000 OA
ATOM      7  C   UNL     1       1.330   3.170  21.213  0.00  0.00    +0.000 C 
ATOM      8  C   UNL     1       2.114   4.401  20.799  0.00  0.00    +0.000 C 
ATOM      9  C   UNL     1       1.893   4.762  19.319  0.00  0.00    +0.000 C 
BRANCH   4  11
ATOM     10  O   UNL     1       3.992   2.302  18.877  0.00  0.00    +0.000 OA
ATOM     11  C   UNL     1       3.401   3.034  18.078  0.00  0.00    +0.000 C 
ATOM     12  N   UNL     1       3.986   3.467  16.914  0.00  0.00    +0.000 N 
ATOM     13  H   UNL     1       3.724   4.360  16.494  0.00  0.00    +0.000 HD
BRANCH  12  14
ATOM     14  O   UNL     1       5.332   3.076  16.722  0.00  0.00    +0.000 OA
ATOM     15  H   UNL     1       5.248   2.141  16.439  0.00  0.00    +0.000 HD
ENDBRANCH  12  14
ENDBRANCH   4  11
BRANCH   4  16
ATOM     16  O   UNL     1       1.320   3.902  17.148  0.00  0.00    +0.000 OA
ATOM     17  H   UNL     1       0.355   3.803  17.297  0.00  0.00    +0.000 HD
ENDBRANCH   4  16
ENDBRANCH   1   9
BRANCH   1  18
ATOM     18  C   UNL     1       2.211   7.648  19.334  0.00  0.00    +0.000 A 
ATOM     19  C   UNL     1       1.989   8.594  18.330  0.00  0.00    +0.000 A 
ATOM     20  C   UNL     1       1.114   9.659  18.561  0.00  0.00    +0.000 A 
ATOM     21  C   UNL     1       0.433   9.750  19.777  0.00  0.00    +0.000 A 
ATOM     22  C   UNL     1       0.732   8.861  20.811  0.00  0.00    +0.000 A 
ATOM     23  C   UNL     1       1.613   7.798  20.589  0.00  0.00    +0.000 A 
BRANCH  21  24
ATOM     24  O   UNL     1      -0.574  10.650  20.022  0.00  0.00    +0.000 OA
BRANCH  24  25
ATOM     25  C   UNL     1      -0.757  11.615  18.971  0.00  0.00    +0.000 C 
BRANCH  25  26
ATOM     26  C   UNL     1      -2.039  11.405  18.191  0.00  0.00    +0.000 A 
ATOM     27  C   UNL     1      -2.035  10.818  16.914  0.00  0.00    +0.000 A 
ATOM     28  C   UNL     1      -3.219  10.697  16.184  0.00  0.00    +0.000 A 
ATOM     29 CL   UNL     1      -3.187   9.987  14.616  0.00  0.00    +0.000 Cl
ATOM     30  C   UNL     1      -4.426  11.155  16.708  0.00  0.00    +0.000 A 
ATOM     31  C   UNL     1      -4.451  11.729  17.978  0.00  0.00    +0.000 A 
ATOM     32  C   UNL     1      -3.269  11.851  18.716  0.00  0.00    +0.000 A 
ATOM     33 CL   UNL     1      -3.377  12.579  20.281  0.00  0.00    +0.000 Cl
ENDBRANCH  25  26
ENDBRANCH  24  25
ENDBRANCH  21  24
ENDBRANCH   1  18
TORSDOF 8
ENDMDL
MODEL 3
REMARK VINA RESULT:      -8.4      1.857      2.931
REMARK  Name = 
REMARK  8 active torsions:
REMARK  status: ('A' for Active; 'I' for Inactive)
REMARK    1  A    between atoms: C_2  and  C_5
REMARK    2  A    between atoms: N_3  and  O_4
REMARK    3  A    between atoms: C_5  and  O_6
REMARK    4  A    between atoms: C_11  and  S_12
REMARK    5  A    between atoms: S_12  and  C_15
REMARK    6  A    between atoms: C_18  and  O_19
REMARK    7  A    between atoms: O_19  and  C_20
REMARK    8  A    between atoms: C_20  and  C_21
REMARK                            x       y       z     vdW  Elec       q    Type
REMARK                         _______ _______ _______ _____ _____    ______ ____
ROOT
ATOM      1  S   UNL     1       2.883   5.723  18.915  0.00  0.00    +0.000 S 
ATOM      2  O   UNL     1       2.000   5.150  17.911  0.00  0.00    +0.000 OA
ATOM      3  O   UNL     1       2.995   5.077  20.204  0.00  0.00    +0.000 OA
ENDROOT
BRANCH   1   9
ATOM      4  C   UNL     1       5.499   4.765  18.712  0.00  0.00    +0.000 C 
ATOM      5  C   UNL     1       6.761   4.782  17.832  0.00  0.00    +0.000 C 
ATOM      6  O   UNL     1       6.439   4.587  16.453  0.00  0.00    +0.000 OA
ATOM      7  C   UNL     1       5.672   5.670  15.932  0.00  0.00    +0.000 C 
ATOM      8  C   UNL     1       4.338   5.754  16.649  0.00  0.00    +0.000 C 
ATOM      9  C   UNL     1       4.501   5.798  18.178  0.00  0.00    +0.000 C 
BRANCH   4  11
ATOM     10  O   UNL     1       5.148   2.620  19.786  0.00  0.00    +0.000 OA
ATOM     11  C   UNL     1       4.987   3.306  18.773  0.00  0.00    +0.000 C 
ATOM     12  N   UNL     1       4.398   2.805  17.638  0.00  0.00    +0.000 N 
ATOM     13  H   UNL     1       4.642   3.168  16.715  0.00  0.00    +0.000 HD
BRANCH  12  14
ATOM     14  O   UNL     1       4.051   1.435  17.681  0.00  0.00    +0.000 OA
ATOM     15  H   UNL     1       3.207   1.440  18.182  0.00  0.00    +0.000 HD
ENDBRANCH  12  14
ENDBRANCH   4  11
BRANCH   4  16
ATOM     16  O   UNL     1       5.912   5.182  20.026  0.00  0.00    +0.000 OA
ATOM     17  H   UNL     1       5.707   4.445  20.640  0.00  0.00    +0.000 HD
ENDBRANCH   4  16
ENDBRANCH   1   9
BRANCH   1  18
ATOM     18  C   UNL     1       2.282   7.374  19.190  0.00  0.00    +0.000 A 
ATOM     19  C   UNL     1       2.059   8.202  18.086  0.00  0.00    +0.000 A 
ATOM     20  C   UNL     1       1.299   9.365  18.235  0.00  0.00    +0.000 A 
ATOM     21  C   UNL     1       0.731   9.673  19.472  0.00  0.00    +0.000 A 
ATOM     22  C   UNL     1       1.039   8.899  20.592  0.00  0.00    +0.000 A 
ATOM     23  C   UNL     1       1.805   7.738  20.452  0.00  0.00    +0.000 A 
BRANCH  21  24
ATOM     24  O   UNL     1      -0.172  10.689  19.665  0.00  0.00    +0.000 OA
BRANCH  24  25
ATOM     25  C   UNL     1      -0.418  11.477  18.488  0.00  0.00    +0.000 C 
BRANCH  25  26
ATOM     26  C   UNL     1      -1.824  11.311  17.946  0.00  0.00    +0.000 A 
ATOM     27  C   UNL     1      -2.062  10.739  16.684  0.00  0.00    +0.000 A 
ATOM     28  C   UNL     1      -3.359  10.659  16.175  0.00  0.00    +0.000 A 
ATOM     29 CL   UNL     1      -3.626   9.967  14.621  0.00  0.00    +0.000 Cl
ATOM     30  C   UNL     1      -4.441  11.142  16.908  0.00  0.00    +0.000 A 
ATOM     31  C   UNL     1      -4.225  11.701  18.166  0.00  0.00    +0.000 A 
ATOM     32  C   UNL     1      -2.928  11.783  18.683  0.00  0.00    +0.000 A 
ATOM     33 CL   UNL     1      -2.736  12.495  20.248  0.00  0.00    +0.000 Cl
ENDBRANCH  25  26
ENDBRANCH  24  25
ENDBRANCH  21  24
ENDBRANCH   1  18
TORSDOF 8
ENDMDL
MODEL 4
REMARK VINA RESULT:      -8.3      2.832      4.012
REMARK  Name = 
REMARK  8 active torsions:
REMARK  status: ('A' for Active; 'I' for Inactive)
REMARK    1  A    between atoms: C_2  and  C_5
REMARK    2  A    between atoms: N_3  and  O_4
REMARK    3  A    between atoms: C_5  and  O_6
REMARK    4  A    between atoms: C_11  and  S_12
REMARK    5  A    between atoms: S_12  and  C_15
REMARK    6  A    between atoms: C_18  and  O_19
REMARK    7  A    between atoms: O_19  and  C_20
REMARK    8  A    between atoms: C_20  and  C_21
REMARK                            x       y       z     vdW  Elec       q    Type
REMARK                         _______ _______ _______ _____ _____    ______ ____
ROOT
ATOM      1  S   UNL     1       4.466   4.925  18.725  0.00  0.00    +0.000 S 
ATOM      2  O   UNL     1       3.833   3.620  18.604  0.00  0.00    +0.000 OA
ATOM      3  O   UNL     1       5.434   5.141  19.777  0.00  0.00    +0.000 OA
ENDROOT
BRANCH   1   9
ATOM      4  C   UNL     1       6.635   5.897  17.259  0.00  0.00    +0.000 C 
ATOM      5  C   UNL     1       7.289   5.902  15.865  0.00  0.00    +0.000 C 
ATOM      6  O   UNL     1       7.322   4.589  15.301  0.00  0.00    +0.000 OA
ATOM      7  C   UNL     1       6.011   4.093  15.036  0.00  0.00    +0.000 C 
ATOM      8  C   UNL     1       5.238   3.954  16.334  0.00  0.00    +0.000 C 
ATOM      9  C   UNL     1       5.249   5.252  17.161  0.00  0.00    +0.000 C 
BRANCH   4  11
ATOM     10  O   UNL     1       8.057   4.088  18.021  0.00  0.00    +0.000 OA
ATOM     11  C   UNL     1       7.622   5.222  18.240  0.00  0.00    +0.000 C 
ATOM     12  N   UNL     1       7.945   5.921  19.377  0.00  0.00    +0.000 N 
ATOM     13  H   UNL     1       7.300   6.607  19.773  0.00  0.00    +0.000 HD
BRANCH  12  14
ATOM     14  O   UNL     1       8.751   5.232  20.312  0.00  0.00    +0.000 OA
ATOM     15  H   UNL     1       9.341   5.938  20.653  0.00  0.00    +0.000 HD
ENDBRANCH  12  14
ENDBRANCH   4  11
BRANCH   4  16
ATOM     16  O   UNL     1       6.458   7.276  17.630  0.00  0.00    +0.000 OA
ATOM     17  H   UNL     1       6.523   7.322  18.608  0.00  0.00    +0.000 HD
ENDBRANCH   4  16
ENDBRANCH   1   9
BRANCH   1  18
ATOM     18  C   UNL     1       3.134   6.077  18.971  0.00  0.00    +0.000 A 
ATOM     19  C   UNL     1       2.394   6.008  20.155  0.00  0.00    +0.000 A 
ATOM     20  C   UNL     1       1.570   7.076  20.520  0.00  0.00    +0.000 A 
ATOM     21  C   UNL     1       1.521   8.223  19.725  0.00  0.00    +0.000 A 
ATOM     22  C   UNL     1       2.183   8.247  18.496  0.00  0.00    +0.000 A 
ATOM     23  C   UNL     1       3.003   7.179  18.121  0.00  0.00    +0.000 A 
BRANCH  21  24
ATOM     24  O   UNL     1       0.887   9.382  20.096  0.00  0.00    +0.000 OA
BRANCH  24  25
ATOM     25  C   UNL     1       0.795  10.355  19.040  0.00  0.00    +0.000 C 
BRANCH  25  26
ATOM     26  C   UNL     1      -0.632  10.616  18.598  0.00  0.00    +0.000 A 
ATOM     27  C   UNL     1      -1.159  10.032  17.433  0.00  0.00    +0.000 A 
ATOM     28  C   UNL     1      -2.452  10.340  17.007  0.00  0.00    +0.000 A 
ATOM     29 CL   UNL     1      -3.071   9.625  15.569  0.00  0.00    +0.000 Cl
ATOM     30  C   UNL     1      -3.245  11.230  17.730  0.00  0.00    +0.000 A 
ATOM     31  C   UNL     1      -2.743  11.808  18.894  0.00  0.00    +0.000 A 
ATOM     32  C   UNL     1      -1.449  11.502  19.328  0.00  0.00    +0.000 A 
ATOM     33 CL   UNL     1      -0.892  12.263  20.778  0.00  0.00    +0.000 Cl
ENDBRANCH  25  26
ENDBRANCH  24  25
ENDBRANCH  21  24
ENDBRANCH   1  18
TORSDOF 8
ENDMDL
MODEL 5
REMARK VINA RESULT:      -8.3      1.371      2.587
REMARK  Name = 
REMARK  8 active torsions:
REMARK  status: ('A' for Active; 'I' for Inactive)
REMARK    1  A    between atoms: C_2  and  C_5
REMARK    2  A    between atoms: N_3  and  O_4
REMARK    3  A    between atoms: C_5  and  O_6
REMARK    4  A    between atoms: C_11  and  S_12
REMARK    5  A    between atoms: S_12  and  C_15
REMARK    6  A    between atoms: C_18  and  O_19
REMARK    7  A    between atoms: O_19  and  C_20
REMARK    8  A    between atoms: C_20  and  C_21
REMARK                            x       y       z     vdW  Elec       q    Type
REMARK                         _______ _______ _______ _____ _____    ______ ____
ROOT
ATOM      1  S   UNL     1       3.372   6.124  18.770  0.00  0.00    +0.000 S 
ATOM      2  O   UNL     1       3.819   5.760  20.106  0.00  0.00    +0.000 OA
ATOM      3  O   UNL     1       4.346   6.582  17.804  0.00  0.00    +0.000 OA
ENDROOT
BRANCH   1   9
ATOM      4  C   UNL     1       3.483   3.555  17.678  0.00  0.00    +0.000 C 
ATOM      5  C   UNL     1       2.642   2.307  17.355  0.00  0.00    +0.000 C 
ATOM      6  O   UNL     1       1.796   1.951  18.451  0.00  0.00    +0.000 OA
ATOM      7  C   UNL     1       0.805   2.947  18.698  0.00  0.00    +0.000 C 
ATOM      8  C   UNL     1       1.469   4.248  19.109  0.00  0.00    +0.000 C 
ATOM      9  C   UNL     1       2.549   4.692  18.107  0.00  0.00    +0.000 C 
BRANCH   4  11
ATOM     10  O   UNL     1       5.661   3.700  18.731  0.00  0.00    +0.000 OA
ATOM     11  C   UNL     1       4.560   3.144  18.710  0.00  0.00    +0.000 C 
ATOM     12  N   UNL     1       4.247   2.109  19.555  0.00  0.00    +0.000 N 
ATOM     13  H   UNL     1       3.576   1.390  19.280  0.00  0.00    +0.000 HD
BRANCH  12  14
ATOM     14  O   UNL     1       5.292   1.674  20.404  0.00  0.00    +0.000 OA
ATOM     15  H   UNL     1       5.639   2.516  20.770  0.00  0.00    +0.000 HD
ENDBRANCH  12  14
ENDBRANCH   4  11
BRANCH   4  16
ATOM     16  O   UNL     1       4.121   3.945  16.448  0.00  0.00    +0.000 OA
ATOM     17  H   UNL     1       3.896   4.887  16.292  0.00  0.00    +0.000 HD
ENDBRANCH   4  16
ENDBRANCH   1   9
BRANCH   1  18
ATOM     18  C   UNL     1       2.188   7.430  19.005  0.00  0.00    +0.000 A 
ATOM     19  C   UNL     1       1.703   7.675  20.293  0.00  0.00    +0.000 A 
ATOM     20  C   UNL     1       1.035   8.872  20.565  0.00  0.00    +0.000 A 
ATOM     21  C   UNL     1       0.892   9.834  19.563  0.00  0.00    +0.000 A 
ATOM     22  C   UNL     1       1.288   9.544  18.256  0.00  0.00    +0.000 A 
ATOM     23  C   UNL     1       1.951   8.345  17.975  0.00  0.00    +0.000 A 
BRANCH  21  24
ATOM     24  O   UNL     1       0.416  11.102  19.785  0.00  0.00    +0.000 OA
BRANCH  24  25
ATOM     25  C   UNL     1      -0.229  11.687  18.640  0.00  0.00    +0.000 C 
BRANCH  25  26
ATOM     26  C   UNL     1      -1.724  11.856  18.823  0.00  0.00    +0.000 A 
ATOM     27  C   UNL     1      -2.252  12.671  19.839  0.00  0.00    +0.000 A 
ATOM     28  C   UNL     1      -3.632  12.758  20.033  0.00  0.00    +0.000 A 
ATOM     29 CL   UNL     1      -4.256  13.752  21.293  0.00  0.00    +0.000 Cl
ATOM     30  C   UNL     1      -4.510  12.040  19.224  0.00  0.00    +0.000 A 
ATOM     31  C   UNL     1      -4.004  11.236  18.204  0.00  0.00    +0.000 A 
ATOM     32  C   UNL     1      -2.623  11.146  18.002  0.00  0.00    +0.000 A 
ATOM     33 CL   UNL     1      -2.069  10.124  16.722  0.00  0.00    +0.000 Cl
ENDBRANCH  25  26
ENDBRANCH  24  25
ENDBRANCH  21  24
ENDBRANCH   1  18
TORSDOF 8
ENDMDL
MODEL 6
REMARK VINA RESULT:      -8.3      2.053      3.610
REMARK  Name = 
REMARK  8 active torsions:
REMARK  status: ('A' for Active; 'I' for Inactive)
REMARK    1  A    between atoms: C_2  and  C_5
REMARK    2  A    between atoms: N_3  and  O_4
REMARK    3  A    between atoms: C_5  and  O_6
REMARK    4  A    between atoms: C_11  and  S_12
REMARK    5  A    between atoms: S_12  and  C_15
REMARK    6  A    between atoms: C_18  and  O_19
REMARK    7  A    between atoms: O_19  and  C_20
REMARK    8  A    between atoms: C_20  and  C_21
REMARK                            x       y       z     vdW  Elec       q    Type
REMARK                         _______ _______ _______ _____ _____    ______ ____
ROOT
ATOM      1  S   UNL     1       2.986   5.787  18.935  0.00  0.00    +0.000 S 
ATOM      2  O   UNL     1       2.068   5.137  18.013  0.00  0.00    +0.000 OA
ATOM      3  O   UNL     1       3.120   5.267  20.277  0.00  0.00    +0.000 OA
ENDROOT
BRANCH   1   9
ATOM      4  C   UNL     1       5.552   4.708  18.709  0.00  0.00    +0.000 C 
ATOM      5  C   UNL     1       6.791   4.632  17.798  0.00  0.00    +0.000 C 
ATOM      6  O   UNL     1       6.423   4.393  16.437  0.00  0.00    +0.000 OA
ATOM      7  C   UNL     1       5.689   5.485  15.888  0.00  0.00    +0.000 C 
ATOM      8  C   UNL     1       4.380   5.659  16.634  0.00  0.00    +0.000 C 
ATOM      9  C   UNL     1       4.586   5.760  18.155  0.00  0.00    +0.000 C 
BRANCH   4  11
ATOM     10  O   UNL     1       5.100   2.646  19.900  0.00  0.00    +0.000 OA
ATOM     11  C   UNL     1       4.980   3.277  18.846  0.00  0.00    +0.000 C 
ATOM     12  N   UNL     1       4.387   2.734  17.733  0.00  0.00    +0.000 N 
ATOM     13  H   UNL     1       4.659   3.033  16.795  0.00  0.00    +0.000 HD
BRANCH  12  14
ATOM     14  O   UNL     1       3.984   1.384  17.850  0.00  0.00    +0.000 OA
ATOM     15  H   UNL     1       3.900   1.101  16.914  0.00  0.00    +0.000 HD
ENDBRANCH  12  14
ENDBRANCH   4  11
BRANCH   4  16
ATOM     16  O   UNL     1       6.018   5.163  19.992  0.00  0.00    +0.000 OA
ATOM     17  H   UNL     1       6.217   4.364  20.526  0.00  0.00    +0.000 HD
ENDBRANCH   4  16
ENDBRANCH   1   9
BRANCH   1  18
ATOM     18  C   UNL     1       2.420   7.469  19.063  0.00  0.00    +0.000 A 
ATOM     19  C   UNL     1       2.354   8.247  17.903  0.00  0.00    +0.000 A 
ATOM     20  C   UNL     1       1.626   9.439  17.910  0.00  0.00    +0.000 A 
ATOM     21  C   UNL     1       0.933   9.827  19.059  0.00  0.00    +0.000 A 
ATOM     22  C   UNL     1       1.084   9.100  20.242  0.00  0.00    +0.000 A 
ATOM     23  C   UNL     1       1.817   7.910  20.244  0.00  0.00    +0.000 A 
BRANCH  21  24
ATOM     24  O   UNL     1       0.053  10.879  19.101  0.00  0.00    +0.000 OA
BRANCH  24  25
ATOM     25  C   UNL     1      -1.008  10.785  18.134  0.00  0.00    +0.000 C 
BRANCH  25  26
ATOM     26  C   UNL     1      -2.299  11.422  18.606  0.00  0.00    +0.000 A 
ATOM     27  C   UNL     1      -2.353  12.187  19.785  0.00  0.00    +0.000 A 
ATOM     28  C   UNL     1      -3.566  12.707  20.239  0.00  0.00    +0.000 A 
ATOM     29 CL   UNL     1      -3.610  13.628  21.692  0.00  0.00    +0.000 Cl
ATOM     30  C   UNL     1      -4.745  12.480  19.532  0.00  0.00    +0.000 A 
ATOM     31  C   UNL     1      -4.709  11.735  18.354  0.00  0.00    +0.000 A 
ATOM     32  C   UNL     1      -3.496  11.213  17.893  0.00  0.00    +0.000 A 
ATOM     33 CL   UNL     1      -3.530  10.293  16.428  0.00  0.00    +0.000 Cl
ENDBRANCH  25  26
ENDBRANCH  24  25
ENDBRANCH  21  24
ENDBRANCH   1  18
TORSDOF 8
ENDMDL
MODEL 7
REMARK VINA RESULT:      -8.2      0.982      1.287
REMARK  Name = 
REMARK  8 active torsions:
REMARK  status: ('A' for Active; 'I' for Inactive)
REMARK    1  A    between atoms: C_2  and  C_5
REMARK    2  A    between atoms: N_3  and  O_4
REMARK    3  A    between atoms: C_5  and  O_6
REMARK    4  A    between atoms: C_11  and  S_12
REMARK    5  A    between atoms: S_12  and  C_15
REMARK    6  A    between atoms: C_18  and  O_19
REMARK    7  A    between atoms: O_19  and  C_20
REMARK    8  A    between atoms: C_20  and  C_21
REMARK                            x       y       z     vdW  Elec       q    Type
REMARK                         _______ _______ _______ _____ _____    ______ ____
ROOT
ATOM      1  S   UNL     1       2.802   5.727  20.072  0.00  0.00    +0.000 S 
ATOM      2  O   UNL     1       2.072   5.437  21.297  0.00  0.00    +0.000 OA
ATOM      3  O   UNL     1       4.247   5.676  20.087  0.00  0.00    +0.000 OA
ENDROOT
BRANCH   1   9
ATOM      4  C   UNL     1       3.303   3.896  18.023  0.00  0.00    +0.000 C 
ATOM      5  C   UNL     1       2.674   2.770  17.184  0.00  0.00    +0.000 C 
ATOM      6  O   UNL     1       1.940   1.857  18.004  0.00  0.00    +0.000 OA
ATOM      7  C   UNL     1       0.806   2.480  18.604  0.00  0.00    +0.000 C 
ATOM      8  C   UNL     1       1.255   3.587  19.538  0.00  0.00    +0.000 C 
ATOM      9  C   UNL     1       2.208   4.580  18.848  0.00  0.00    +0.000 C 
BRANCH   4  11
ATOM     10  O   UNL     1       5.638   3.617  18.612  0.00  0.00    +0.000 OA
ATOM     11  C   UNL     1       4.471   3.284  18.833  0.00  0.00    +0.000 C 
ATOM     12  N   UNL     1       4.148   2.326  19.762  0.00  0.00    +0.000 N 
ATOM     13  H   UNL     1       3.312   1.750  19.654  0.00  0.00    +0.000 HD
BRANCH  12  14
ATOM     14  O   UNL     1       5.243   1.697  20.399  0.00  0.00    +0.000 OA
ATOM     15  H   UNL     1       5.883   2.433  20.509  0.00  0.00    +0.000 HD
ENDBRANCH  12  14
ENDBRANCH   4  11
BRANCH   4  16
ATOM     16  O   UNL     1       3.822   4.859  17.088  0.00  0.00    +0.000 OA
ATOM     17  H   UNL     1       3.119   5.528  16.943  0.00  0.00    +0.000 HD
ENDBRANCH   4  16
ENDBRANCH   1   9
BRANCH   1  18
ATOM     18  C   UNL     1       2.325   7.378  19.615  0.00  0.00    +0.000 A 
ATOM     19  C   UNL     1       2.499   7.787  18.290  0.00  0.00    +0.000 A 
ATOM     20  C   UNL     1       1.853   8.937  17.829  0.00  0.00    +0.000 A 
ATOM     21  C   UNL     1       1.005   9.649  18.680  0.00  0.00    +0.000 A 
ATOM     22  C   UNL     1       0.913   9.295  20.027  0.00  0.00    +0.000 A 
ATOM     23  C   UNL     1       1.563   8.150  20.497  0.00  0.00    +0.000 A 
BRANCH  21  24
ATOM     24  O   UNL     1       0.195  10.676  18.265  0.00  0.00    +0.000 OA
BRANCH  24  25
ATOM     25  C   UNL     1      -1.061  10.741  18.965  0.00  0.00    +0.000 C 
BRANCH  25  26
ATOM     26  C   UNL     1      -2.250  10.884  18.036  0.00  0.00    +0.000 A 
ATOM     27  C   UNL     1      -2.223  10.379  16.724  0.00  0.00    +0.000 A 
ATOM     28  C   UNL     1      -3.302  10.582  15.863  0.00  0.00    +0.000 A 
ATOM     29 CL   UNL     1      -3.241   9.966  14.257  0.00  0.00    +0.000 Cl
ATOM     30  C   UNL     1      -4.427  11.287  16.288  0.00  0.00    +0.000 A 
ATOM     31  C   UNL     1      -4.476  11.785  17.588  0.00  0.00    +0.000 A 
ATOM     32  C   UNL     1      -3.399  11.583  18.458  0.00  0.00    +0.000 A 
ATOM     33 CL   UNL     1      -3.529  12.235  20.055  0.00  0.00    +0.000 Cl
ENDBRANCH  25  26
ENDBRANCH  24  25
ENDBRANCH  21  24
ENDBRANCH   1  18
TORSDOF 8
ENDMDL
MODEL 8
REMARK VINA RESULT:      -8.2      6.208      8.241
REMARK  Name = 
REMARK  8 active torsions:
REMARK  status: ('A' for Active; 'I' for Inactive)
REMARK    1  A    between atoms: C_2  and  C_5
REMARK    2  A    between atoms: N_3  and  O_4
REMARK    3  A    between atoms: C_5  and  O_6
REMARK    4  A    between atoms: C_11  and  S_12
REMARK    5  A    between atoms: S_12  and  C_15
REMARK    6  A    between atoms: C_18  and  O_19
REMARK    7  A    between atoms: O_19  and  C_20
REMARK    8  A    between atoms: C_20  and  C_21
REMARK                            x       y       z     vdW  Elec       q    Type
REMARK                         _______ _______ _______ _____ _____    ______ ____
ROOT
ATOM      1  S   UNL     1       5.289   4.256  18.077  0.00  0.00    +0.000 S 
ATOM      2  O   UNL     1       5.727   3.707  19.351  0.00  0.00    +0.000 OA
ATOM      3  O   UNL     1       5.288   3.404  16.908  0.00  0.00    +0.000 OA
ENDROOT
BRANCH   1   9
ATOM      4  C   UNL     1       2.578   3.783  18.553  0.00  0.00    +0.000 C 
ATOM      5  C   UNL     1       1.262   4.446  18.995  0.00  0.00    +0.000 C 
ATOM      6  O   UNL     1       1.456   5.279  20.141  0.00  0.00    +0.000 OA
ATOM      7  C   UNL     1       2.294   6.395  19.847  0.00  0.00    +0.000 C 
ATOM      8  C   UNL     1       3.679   5.917  19.457  0.00  0.00    +0.000 C 
ATOM      9  C   UNL     1       3.637   4.867  18.332  0.00  0.00    +0.000 C 
BRANCH   4  11
ATOM     10  O   UNL     1       3.112   1.526  19.260  0.00  0.00    +0.000 OA
ATOM     11  C   UNL     1       2.934   2.699  19.599  0.00  0.00    +0.000 C 
ATOM     12  N   UNL     1       2.989   3.096  20.912  0.00  0.00    +0.000 N 
ATOM     13  H   UNL     1       2.442   3.893  21.243  0.00  0.00    +0.000 HD
BRANCH  12  14
ATOM     14  O   UNL     1       3.194   2.064  21.857  0.00  0.00    +0.000 OA
ATOM     15  H   UNL     1       2.308   1.965  22.267  0.00  0.00    +0.000 HD
ENDBRANCH  12  14
ENDBRANCH   4  11
BRANCH   4  16
ATOM     16  O   UNL     1       2.312   3.156  17.285  0.00  0.00    +0.000 OA
ATOM     17  H   UNL     1       3.170   2.828  16.940  0.00  0.00    +0.000 HD
ENDBRANCH   4  16
ENDBRANCH   1   9
BRANCH   1  18
ATOM     18  C   UNL     1       6.380   5.621  17.748  0.00  0.00    +0.000 A 
ATOM     19  C   UNL     1       6.015   6.555  16.775  0.00  0.00    +0.000 A 
ATOM     20  C   UNL     1       6.672   7.788  16.717  0.00  0.00    +0.000 A 
ATOM     21  C   UNL     1       7.658   8.097  17.655  0.00  0.00    +0.000 A 
ATOM     22  C   UNL     1       8.088   7.125  18.560  0.00  0.00    +0.000 A 
ATOM     23  C   UNL     1       7.441   5.887  18.619  0.00  0.00    +0.000 A 
BRANCH  21  24
ATOM     24  O   UNL     1       8.224   9.341  17.786  0.00  0.00    +0.000 OA
BRANCH  24  25
ATOM     25  C   UNL     1       8.934   9.526  19.024  0.00  0.00    +0.000 C 
BRANCH  25  26
ATOM     26  C   UNL     1       9.673  10.848  19.090  0.00  0.00    +0.000 A 
ATOM     27  C   UNL     1      10.343  11.373  17.972  0.00  0.00    +0.000 A 
ATOM     28  C   UNL     1      11.075  12.557  18.074  0.00  0.00    +0.000 A 
ATOM     29 CL   UNL     1      11.899  13.173  16.694  0.00  0.00    +0.000 Cl
ATOM     30  C   UNL     1      11.153  13.242  19.285  0.00  0.00    +0.000 A 
ATOM     31  C   UNL     1      10.484  12.743  20.401  0.00  0.00    +0.000 A 
ATOM     32  C   UNL     1       9.747  11.558  20.306  0.00  0.00    +0.000 A 
ATOM     33 CL   UNL     1       8.950  10.997  21.734  0.00  0.00    +0.000 Cl
ENDBRANCH  25  26
ENDBRANCH  24  25
ENDBRANCH  21  24
ENDBRANCH   1  18
TORSDOF 8
ENDMDL
MODEL 9
REMARK VINA RESULT:      -8.1      1.328      1.976
REMARK  Name = 
REMARK  8 active torsions:
REMARK  status: ('A' for Active; 'I' for Inactive)
REMARK    1  A    between atoms: C_2  and  C_5
REMARK    2  A    between atoms: N_3  and  O_4
REMARK    3  A    between atoms: C_5  and  O_6
REMARK    4  A    between atoms: C_11  and  S_12
REMARK    5  A    between atoms: S_12  and  C_15
REMARK    6  A    between atoms: C_18  and  O_19
REMARK    7  A    between atoms: O_19  and  C_20
REMARK    8  A    between atoms: C_20  and  C_21
REMARK                            x       y       z     vdW  Elec       q    Type
REMARK                         _______ _______ _______ _____ _____    ______ ____
ROOT
ATOM      1  S   UNL     1       3.075   5.407  19.913  0.00  0.00    +0.000 S 
ATOM      2  O   UNL     1       2.634   5.104  21.267  0.00  0.00    +0.000 OA
ATOM      3  O   UNL     1       4.483   5.624  19.665  0.00  0.00    +0.000 OA
ENDROOT
BRANCH   1   9
ATOM      4  C   UNL     1       3.459   2.849  18.860  0.00  0.00    +0.000 C 
ATOM      5  C   UNL     1       2.754   1.683  18.144  0.00  0.00    +0.000 C 
ATOM      6  O   UNL     1       1.487   1.395  18.741  0.00  0.00    +0.000 OA
ATOM      7  C   UNL     1       0.568   2.473  18.576  0.00  0.00    +0.000 C 
ATOM      8  C   UNL     1       1.080   3.706  19.296  0.00  0.00    +0.000 C 
ATOM      9  C   UNL     1       2.521   4.060  18.890  0.00  0.00    +0.000 C 
BRANCH   4  11
ATOM     10  O   UNL     1       3.251   2.506  21.251  0.00  0.00    +0.000 OA
ATOM     11  C   UNL     1       3.936   2.335  20.240  0.00  0.00    +0.000 C 
ATOM     12  N   UNL     1       5.169   1.731  20.285  0.00  0.00    +0.000 N 
ATOM     13  H   UNL     1       5.894   1.965  19.606  0.00  0.00    +0.000 HD
BRANCH  12  14
ATOM     14  O   UNL     1       5.632   1.382  21.575  0.00  0.00    +0.000 OA
ATOM     15  H   UNL     1       5.972   2.235  21.922  0.00  0.00    +0.000 HD
ENDBRANCH  12  14
ENDBRANCH   4  11
BRANCH   4  16
ATOM     16  O   UNL     1       4.601   3.190  18.055  0.00  0.00    +0.000 OA
ATOM     17  H   UNL     1       4.367   2.989  17.123  0.00  0.00    +0.000 HD
ENDBRANCH   4  16
ENDBRANCH   1   9
BRANCH   1  18
ATOM     18  C   UNL     1       2.210   6.892  19.454  0.00  0.00    +0.000 A 
ATOM     19  C   UNL     1       1.551   7.622  20.447  0.00  0.00    +0.000 A 
ATOM     20  C   UNL     1       1.144   8.933  20.187  0.00  0.00    +0.000 A 
ATOM     21  C   UNL     1       1.434   9.523  18.955  0.00  0.00    +0.000 A 
ATOM     22  C   UNL     1       2.001   8.758  17.934  0.00  0.00    +0.000 A 
ATOM     23  C   UNL     1       2.404   7.443  18.184  0.00  0.00    +0.000 A 
BRANCH  21  24
ATOM     24  O   UNL     1       1.236  10.853  18.680  0.00  0.00    +0.000 OA
BRANCH  24  25
ATOM     25  C   UNL     1       0.212  11.464  19.484  0.00  0.00    +0.000 C 
BRANCH  25  26
ATOM     26  C   UNL     1      -1.163  11.390  18.850  0.00  0.00    +0.000 A 
ATOM     27  C   UNL     1      -1.347  10.882  17.552  0.00  0.00    +0.000 A 
ATOM     28  C   UNL     1      -2.611  10.887  16.961  0.00  0.00    +0.000 A 
ATOM     29 CL   UNL     1      -2.810  10.273  15.365  0.00  0.00    +0.000 Cl
ATOM     30  C   UNL     1      -3.714  11.392  17.646  0.00  0.00    +0.000 A 
ATOM     31  C   UNL     1      -3.553  11.888  18.938  0.00  0.00    +0.000 A 
ATOM     32  C   UNL     1      -2.288  11.885  19.538  0.00  0.00    +0.000 A 
ATOM     33 CL   UNL     1      -2.164  12.522  21.141  0.00  0.00    +0.000 Cl
ENDBRANCH  25  26
ENDBRANCH  24  25
ENDBRANCH  21  24
ENDBRANCH   1  18
TORSDOF 8
ENDMDL
