MODEL 1
REMARK VINA RESULT:      -7.6      0.000      0.000
REMARK  Name = 
REMARK  7 active torsions:
REMARK  status: ('A' for Active; 'I' for Inactive)
REMARK    1  A    between atoms: C_1  and  C_2
REMARK    2  A    between atoms: C_7  and  S_8
REMARK    3  A    between atoms: S_8  and  N_11
REMARK    4  A    between atoms: C_15  and  O_17
REMARK    5  A    between atoms: O_17  and  C_18
REMARK    6  A    between atoms: C_18  and  C_19
REMARK    7  A    between atoms: C_18  and  C_23
REMARK                            x       y       z     vdW  Elec       q    Type
REMARK                         _______ _______ _______ _____ _____    ______ ____
ROOT
ATOM      1  N   UNL     1       3.307   4.957  18.716  0.00  0.00    +0.000 NA
ATOM      2  C   UNL     1       2.360   4.664  19.810  0.00  0.00    +0.000 C 
ATOM      3  C   UNL     1       2.148   5.894  20.703  0.00  0.00    +0.000 C 
ATOM      4  N   UNL     1       1.826   7.123  19.974  0.00  0.00    +0.000 N 
ATOM      5  C   UNL     1       1.403   8.209  20.746  0.00  0.00    +0.000 C 
ATOM      6  O   UNL     1       1.106   8.131  21.929  0.00  0.00    +0.000 OA
ATOM      7  C   UNL     1       2.490   7.359  18.692  0.00  0.00    +0.000 C 
ATOM      8  C   UNL     1       2.901   6.114  17.886  0.00  0.00    +0.000 C 
ENDROOT
BRANCH   1   9
ATOM      9  S   UNL     1       4.936   4.586  18.925  0.00  0.00    +0.000 S 
ATOM     10  O   UNL     1       5.009   3.204  19.350  0.00  0.00    +0.000 OA
ATOM     11  O   UNL     1       5.565   5.636  19.705  0.00  0.00    +0.000 OA
BRANCH   9  18
ATOM     12  C   UNL     1       7.495   6.305  17.993  0.00  0.00    +0.000 C 
ATOM     13  C   UNL     1       6.844   5.376  17.011  0.00  0.00    +0.000 A 
ATOM     14  C   UNL     1       7.433   5.247  15.736  0.00  0.00    +0.000 A 
ATOM     15  C   UNL     1       6.815   4.509  14.727  0.00  0.00    +0.000 A 
ATOM     16  C   UNL     1       5.592   3.891  14.971  0.00  0.00    +0.000 A 
ATOM     17  C   UNL     1       5.011   3.967  16.240  0.00  0.00    +0.000 A 
ATOM     18  C   UNL     1       5.637   4.694  17.267  0.00  0.00    +0.000 A 
ENDBRANCH   9  18
ENDBRANCH   1   9
BRANCH   5  19
ATOM     19  O   UNL     1       1.338   9.382  20.057  0.00  0.00    +0.000 OA
BRANCH  19  20
ATOM     20  C   UNL     1       0.016  10.020  20.063  0.00  0.00    +0.000 C 
BRANCH  20  21
ATOM     21  C   UNL     1      -0.032  11.253  20.943  0.00  0.00    +0.000 C 
ATOM     22  F   UNL     1       1.050  12.047  20.735  0.00  0.00    +0.000 F 
ATOM     23  F   UNL     1      -1.112  12.045  20.777  0.00  0.00    +0.000 F 
ATOM     24  F   UNL     1      -0.013  10.911  22.253  0.00  0.00    +0.000 F 
ENDBRANCH  20  21
BRANCH  20  25
ATOM     25  C   UNL     1      -0.466  10.293  18.653  0.00  0.00    +0.000 C 
ATOM     26  F   UNL     1       0.165   9.486  17.760  0.00  0.00    +0.000 F 
ATOM     27  F   UNL     1      -1.788   9.998  18.548  0.00  0.00    +0.000 F 
ATOM     28  F   UNL     1      -0.307  11.548  18.201  0.00  0.00    +0.000 F 
ENDBRANCH  20  25
ENDBRANCH  19  20
ENDBRANCH   5  19
TORSDOF 6
ENDMDL
MODEL 2
REMARK VINA RESULT:      -7.5      0.241      1.017
REMARK  Name = 
REMARK  7 active torsions:
REMARK  status: ('A' for Active; 'I' for Inactive)
REMARK    1  A    between atoms: C_1  and  C_2
REMARK    2  A    between atoms: C_7  and  S_8
REMARK    3  A    between atoms: S_8  and  N_11
REMARK    4  A    between atoms: C_15  and  O_17
REMARK    5  A    between atoms: O_17  and  C_18
REMARK    6  A    between atoms: C_18  and  C_19
REMARK    7  A    between atoms: C_18  and  C_23
REMARK                            x       y       z     vdW  Elec       q    Type
REMARK                         _______ _______ _______ _____ _____    ______ ____
ROOT
ATOM      1  N   UNL     1       3.265   4.977  18.733  0.00  0.00    +0.000 NA
ATOM      2  C   UNL     1       2.308   4.674  19.816  0.00  0.00    +0.000 C 
ATOM      3  C   UNL     1       2.100   5.891  20.727  0.00  0.00    +0.000 C 
ATOM      4  N   UNL     1       1.793   7.135  20.017  0.00  0.00    +0.000 N 
ATOM      5  C   UNL     1       1.374   8.211  20.804  0.00  0.00    +0.000 C 
ATOM      6  O   UNL     1       1.069   8.117  21.983  0.00  0.00    +0.000 OA
ATOM      7  C   UNL     1       2.467   7.387  18.743  0.00  0.00    +0.000 C 
ATOM      8  C   UNL     1       2.874   6.152  17.919  0.00  0.00    +0.000 C 
ENDROOT
BRANCH   1   9
ATOM      9  S   UNL     1       4.889   4.589  18.946  0.00  0.00    +0.000 S 
ATOM     10  O   UNL     1       4.947   3.204  19.362  0.00  0.00    +0.000 OA
ATOM     11  O   UNL     1       5.524   5.629  19.735  0.00  0.00    +0.000 OA
BRANCH   9  18
ATOM     12  C   UNL     1       7.570   6.143  18.069  0.00  0.00    +0.000 C 
ATOM     13  C   UNL     1       6.853   5.299  17.057  0.00  0.00    +0.000 A 
ATOM     14  C   UNL     1       7.431   5.171  15.778  0.00  0.00    +0.000 A 
ATOM     15  C   UNL     1       6.761   4.516  14.745  0.00  0.00    +0.000 A 
ATOM     16  C   UNL     1       5.495   3.984  14.969  0.00  0.00    +0.000 A 
ATOM     17  C   UNL     1       4.920   4.060  16.241  0.00  0.00    +0.000 A 
ATOM     18  C   UNL     1       5.598   4.701  17.292  0.00  0.00    +0.000 A 
ENDBRANCH   9  18
ENDBRANCH   1   9
BRANCH   5  19
ATOM     19  O   UNL     1       1.324   9.396  20.134  0.00  0.00    +0.000 OA
BRANCH  19  20
ATOM     20  C   UNL     1      -0.026   9.955  19.986  0.00  0.00    +0.000 C 
BRANCH  20  21
ATOM     21  C   UNL     1      -0.284  11.112  20.928  0.00  0.00    +0.000 C 
ATOM     22  F   UNL     1      -0.593  10.672  22.175  0.00  0.00    +0.000 F 
ATOM     23  F   UNL     1       0.741  11.977  21.084  0.00  0.00    +0.000 F 
ATOM     24  F   UNL     1      -1.339  11.850  20.508  0.00  0.00    +0.000 F 
ENDBRANCH  20  21
BRANCH  20  25
ATOM     25  C   UNL     1      -0.316  10.306  18.541  0.00  0.00    +0.000 C 
ATOM     26  F   UNL     1       0.210  11.518  18.221  0.00  0.00    +0.000 F 
ATOM     27  F   UNL     1       0.286   9.412  17.714  0.00  0.00    +0.000 F 
ATOM     28  F   UNL     1      -1.611  10.355  18.188  0.00  0.00    +0.000 F 
ENDBRANCH  20  25
ENDBRANCH  19  20
ENDBRANCH   5  19
TORSDOF 6
ENDMDL
MODEL 3
REMARK VINA RESULT:      -7.4      4.433      8.664
REMARK  Name = 
REMARK  7 active torsions:
REMARK  status: ('A' for Active; 'I' for Inactive)
REMARK    1  A    between atoms: C_1  and  C_2
REMARK    2  A    between atoms: C_7  and  S_8
REMARK    3  A    between atoms: S_8  and  N_11
REMARK    4  A    between atoms: C_15  and  O_17
REMARK    5  A    between atoms: O_17  and  C_18
REMARK    6  A    between atoms: C_18  and  C_19
REMARK    7  A    between atoms: C_18  and  C_23
REMARK                            x       y       z     vdW  Elec       q    Type
REMARK                         _______ _______ _______ _____ _____    ______ ____
ROOT
ATOM      1  N   UNL     1       0.442   9.665  19.802  0.00  0.00    +0.000 NA
ATOM      2  C   UNL     1       0.795   9.350  18.403  0.00  0.00    +0.000 C 
ATOM      3  C   UNL     1       2.107   8.557  18.328  0.00  0.00    +0.000 C 
ATOM      4  N   UNL     1       2.162   7.391  19.214  0.00  0.00    +0.000 N 
ATOM      5  C   UNL     1       3.232   6.514  19.018  0.00  0.00    +0.000 C 
ATOM      6  O   UNL     1       3.984   6.558  18.056  0.00  0.00    +0.000 OA
ATOM      7  C   UNL     1       1.543   7.499  20.536  0.00  0.00    +0.000 C 
ATOM      8  C   UNL     1       0.353   8.465  20.666  0.00  0.00    +0.000 C 
ENDROOT
BRANCH   1   9
ATOM      9  S   UNL     1       0.907  11.148  20.448  0.00  0.00    +0.000 S 
ATOM     10  O   UNL     1       1.452  11.936  19.362  0.00  0.00    +0.000 OA
ATOM     11  O   UNL     1       1.677  10.918  21.657  0.00  0.00    +0.000 OA
BRANCH   9  18
ATOM     12  C   UNL     1      -1.424  12.322  18.561  0.00  0.00    +0.000 C 
ATOM     13  C   UNL     1      -1.644  12.269  20.044  0.00  0.00    +0.000 A 
ATOM     14  C   UNL     1      -2.900  12.676  20.538  0.00  0.00    +0.000 A 
ATOM     15  C   UNL     1      -3.137  12.782  21.908  0.00  0.00    +0.000 A 
ATOM     16  C   UNL     1      -2.119  12.491  22.811  0.00  0.00    +0.000 A 
ATOM     17  C   UNL     1      -0.879  12.043  22.347  0.00  0.00    +0.000 A 
ATOM     18  C   UNL     1      -0.639  11.916  20.968  0.00  0.00    +0.000 A 
ENDBRANCH   9  18
ENDBRANCH   1   9
BRANCH   5  19
ATOM     19  O   UNL     1       3.366   5.582  20.003  0.00  0.00    +0.000 OA
BRANCH  19  20
ATOM     20  C   UNL     1       2.911   4.236  19.633  0.00  0.00    +0.000 C 
BRANCH  20  21
ATOM     21  C   UNL     1       4.055   3.256  19.480  0.00  0.00    +0.000 C 
ATOM     22  F   UNL     1       5.215   3.896  19.180  0.00  0.00    +0.000 F 
ATOM     23  F   UNL     1       4.320   2.496  20.564  0.00  0.00    +0.000 F 
ATOM     24  F   UNL     1       3.818   2.393  18.464  0.00  0.00    +0.000 F 
ENDBRANCH  20  21
BRANCH  20  25
ATOM     25  C   UNL     1       1.843   3.740  20.587  0.00  0.00    +0.000 C 
ATOM     26  F   UNL     1       2.184   4.001  21.876  0.00  0.00    +0.000 F 
ATOM     27  F   UNL     1       0.679   4.405  20.370  0.00  0.00    +0.000 F 
ATOM     28  F   UNL     1       1.560   2.428  20.533  0.00  0.00    +0.000 F 
ENDBRANCH  20  25
ENDBRANCH  19  20
ENDBRANCH   5  19
TORSDOF 6
ENDMDL
MODEL 4
REMARK VINA RESULT:      -7.4      4.531      8.700
REMARK  Name = 
REMARK  7 active torsions:
REMARK  status: ('A' for Active; 'I' for Inactive)
REMARK    1  A    between atoms: C_1  and  C_2
REMARK    2  A    between atoms: C_7  and  S_8
REMARK    3  A    between atoms: S_8  and  N_11
REMARK    4  A    between atoms: C_15  and  O_17
REMARK    5  A    between atoms: O_17  and  C_18
REMARK    6  A    between atoms: C_18  and  C_19
REMARK    7  A    between atoms: C_18  and  C_23
REMARK                            x       y       z     vdW  Elec       q    Type
REMARK                         _______ _______ _______ _____ _____    ______ ____
ROOT
ATOM      1  N   UNL     1       0.357   9.547  20.070  0.00  0.00    +0.000 NA
ATOM      2  C   UNL     1       0.731   9.298  18.664  0.00  0.00    +0.000 C 
ATOM      3  C   UNL     1       2.035   8.495  18.572  0.00  0.00    +0.000 C 
ATOM      4  N   UNL     1       2.062   7.286  19.400  0.00  0.00    +0.000 N 
ATOM      5  C   UNL     1       3.127   6.407  19.179  0.00  0.00    +0.000 C 
ATOM      6  O   UNL     1       3.895   6.490  18.233  0.00  0.00    +0.000 OA
ATOM      7  C   UNL     1       1.423   7.336  20.714  0.00  0.00    +0.000 C 
ATOM      8  C   UNL     1       0.240   8.308  20.872  0.00  0.00    +0.000 C 
ENDROOT
BRANCH   1   9
ATOM      9  S   UNL     1       0.826  10.992  20.796  0.00  0.00    +0.000 S 
ATOM     10  O   UNL     1       1.423  11.815  19.765  0.00  0.00    +0.000 OA
ATOM     11  O   UNL     1       1.550  10.695  22.019  0.00  0.00    +0.000 OA
BRANCH   9  18
ATOM     12  C   UNL     1      -1.346  12.423  18.898  0.00  0.00    +0.000 C 
ATOM     13  C   UNL     1      -1.658  12.242  20.355  0.00  0.00    +0.000 A 
ATOM     14  C   UNL     1      -2.928  12.649  20.812  0.00  0.00    +0.000 A 
ATOM     15  C   UNL     1      -3.244  12.636  22.170  0.00  0.00    +0.000 A 
ATOM     16  C   UNL     1      -2.292  12.224  23.099  0.00  0.00    +0.000 A 
ATOM     17  C   UNL     1      -1.042  11.775  22.666  0.00  0.00    +0.000 A 
ATOM     18  C   UNL     1      -0.723  11.766  21.297  0.00  0.00    +0.000 A 
ENDBRANCH   9  18
ENDBRANCH   1   9
BRANCH   5  19
ATOM     19  O   UNL     1       3.234   5.427  20.119  0.00  0.00    +0.000 OA
BRANCH  19  20
ATOM     20  C   UNL     1       2.779   4.104  19.673  0.00  0.00    +0.000 C 
BRANCH  20  21
ATOM     21  C   UNL     1       3.910   3.099  19.582  0.00  0.00    +0.000 C 
ATOM     22  F   UNL     1       4.085   2.448  20.762  0.00  0.00    +0.000 F 
ATOM     23  F   UNL     1       3.761   2.138  18.646  0.00  0.00    +0.000 F 
ATOM     24  F   UNL     1       5.082   3.717  19.306  0.00  0.00    +0.000 F 
ENDBRANCH  20  21
BRANCH  20  25
ATOM     25  C   UNL     1       1.627   3.608  20.521  0.00  0.00    +0.000 C 
ATOM     26  F   UNL     1       1.426   2.276  20.337  0.00  0.00    +0.000 F 
ATOM     27  F   UNL     1       1.921   3.758  21.839  0.00  0.00    +0.000 F 
ATOM     28  F   UNL     1       0.438   4.198  20.316  0.00  0.00    +0.000 F 
ENDBRANCH  20  25
ENDBRANCH  19  20
ENDBRANCH   5  19
TORSDOF 6
ENDMDL
MODEL 5
REMARK VINA RESULT:      -7.4      4.234      9.089
REMARK  Name = 
REMARK  7 active torsions:
REMARK  status: ('A' for Active; 'I' for Inactive)
REMARK    1  A    between atoms: C_1  and  C_2
REMARK    2  A    between atoms: C_7  and  S_8
REMARK    3  A    between atoms: S_8  and  N_11
REMARK    4  A    between atoms: C_15  and  O_17
REMARK    5  A    between atoms: O_17  and  C_18
REMARK    6  A    between atoms: C_18  and  C_19
REMARK    7  A    between atoms: C_18  and  C_23
REMARK                            x       y       z     vdW  Elec       q    Type
REMARK                         _______ _______ _______ _____ _____    ______ ____
ROOT
ATOM      1  N   UNL     1      -0.406  10.930  20.368  0.00  0.00    +0.000 NA
ATOM      2  C   UNL     1      -0.485  10.627  18.925  0.00  0.00    +0.000 C 
ATOM      3  C   UNL     1       0.798   9.945  18.432  0.00  0.00    +0.000 C 
ATOM      4  N   UNL     1       1.225   8.799  19.240  0.00  0.00    +0.000 N 
ATOM      5  C   UNL     1       2.248   8.011  18.707  0.00  0.00    +0.000 C 
ATOM      6  O   UNL     1       2.654   8.104  17.558  0.00  0.00    +0.000 OA
ATOM      7  C   UNL     1       1.045   8.873  20.690  0.00  0.00    +0.000 C 
ATOM      8  C   UNL     1      -0.120   9.739  21.200  0.00  0.00    +0.000 C 
ENDROOT
BRANCH   1   9
ATOM      9  S   UNL     1       0.113  12.456  20.855  0.00  0.00    +0.000 S 
ATOM     10  O   UNL     1      -0.102  13.357  19.742  0.00  0.00    +0.000 OA
ATOM     11  O   UNL     1       1.423  12.337  21.470  0.00  0.00    +0.000 OA
BRANCH   9  18
ATOM     12  C   UNL     1       0.106  15.185  22.564  0.00  0.00    +0.000 C 
ATOM     13  C   UNL     1      -1.012  14.203  22.755  0.00  0.00    +0.000 A 
ATOM     14  C   UNL     1      -2.058  14.557  23.631  0.00  0.00    +0.000 A 
ATOM     15  C   UNL     1      -3.061  13.647  23.962  0.00  0.00    +0.000 A 
ATOM     16  C   UNL     1      -3.034  12.361  23.430  0.00  0.00    +0.000 A 
ATOM     17  C   UNL     1      -2.031  12.001  22.525  0.00  0.00    +0.000 A 
ATOM     18  C   UNL     1      -1.028  12.919  22.172  0.00  0.00    +0.000 A 
ENDBRANCH   9  18
ENDBRANCH   1   9
BRANCH   5  19
ATOM     19  O   UNL     1       2.761   7.107  19.588  0.00  0.00    +0.000 OA
BRANCH  19  20
ATOM     20  C   UNL     1       2.587   5.705  19.191  0.00  0.00    +0.000 C 
BRANCH  20  21
ATOM     21  C   UNL     1       3.893   5.041  18.805  0.00  0.00    +0.000 C 
ATOM     22  F   UNL     1       4.897   5.407  19.644  0.00  0.00    +0.000 F 
ATOM     23  F   UNL     1       3.883   3.691  18.804  0.00  0.00    +0.000 F 
ATOM     24  F   UNL     1       4.275   5.417  17.561  0.00  0.00    +0.000 F 
ENDBRANCH  20  21
BRANCH  20  25
ATOM     25  C   UNL     1       1.831   4.927  20.249  0.00  0.00    +0.000 C 
ATOM     26  F   UNL     1       0.930   5.722  20.883  0.00  0.00    +0.000 F 
ATOM     27  F   UNL     1       1.106   3.936  19.669  0.00  0.00    +0.000 F 
ATOM     28  F   UNL     1       2.572   4.357  21.213  0.00  0.00    +0.000 F 
ENDBRANCH  20  25
ENDBRANCH  19  20
ENDBRANCH   5  19
TORSDOF 6
ENDMDL
MODEL 6
REMARK VINA RESULT:      -7.3      0.424      1.528
REMARK  Name = 
REMARK  7 active torsions:
REMARK  status: ('A' for Active; 'I' for Inactive)
REMARK    1  A    between atoms: C_1  and  C_2
REMARK    2  A    between atoms: C_7  and  S_8
REMARK    3  A    between atoms: S_8  and  N_11
REMARK    4  A    between atoms: C_15  and  O_17
REMARK    5  A    between atoms: O_17  and  C_18
REMARK    6  A    between atoms: C_18  and  C_19
REMARK    7  A    between atoms: C_18  and  C_23
REMARK                            x       y       z     vdW  Elec       q    Type
REMARK                         _______ _______ _______ _____ _____    ______ ____
ROOT
ATOM      1  N   UNL     1       3.369   4.968  18.799  0.00  0.00    +0.000 NA
ATOM      2  C   UNL     1       2.390   4.654  19.859  0.00  0.00    +0.000 C 
ATOM      3  C   UNL     1       2.142   5.870  20.761  0.00  0.00    +0.000 C 
ATOM      4  N   UNL     1       1.836   7.108  20.039  0.00  0.00    +0.000 N 
ATOM      5  C   UNL     1       1.383   8.180  20.813  0.00  0.00    +0.000 C 
ATOM      6  O   UNL     1       1.050   8.085  21.985  0.00  0.00    +0.000 OA
ATOM      7  C   UNL     1       2.538   7.365  18.782  0.00  0.00    +0.000 C 
ATOM      8  C   UNL     1       2.982   6.134  17.973  0.00  0.00    +0.000 C 
ENDROOT
BRANCH   1   9
ATOM      9  S   UNL     1       4.993   4.603  19.054  0.00  0.00    +0.000 S 
ATOM     10  O   UNL     1       5.047   3.284  19.650  0.00  0.00    +0.000 OA
ATOM     11  O   UNL     1       5.637   5.734  19.696  0.00  0.00    +0.000 OA
BRANCH   9  18
ATOM     12  C   UNL     1       3.865   2.896  16.566  0.00  0.00    +0.000 C 
ATOM     13  C   UNL     1       5.031   3.817  16.351  0.00  0.00    +0.000 A 
ATOM     14  C   UNL     1       5.537   3.943  15.041  0.00  0.00    +0.000 A 
ATOM     15  C   UNL     1       6.697   4.672  14.782  0.00  0.00    +0.000 A 
ATOM     16  C   UNL     1       7.379   5.283  15.830  0.00  0.00    +0.000 A 
ATOM     17  C   UNL     1       6.872   5.209  17.131  0.00  0.00    +0.000 A 
ATOM     18  C   UNL     1       5.693   4.492  17.396  0.00  0.00    +0.000 A 
ENDBRANCH   9  18
ENDBRANCH   1   9
BRANCH   5  19
ATOM     19  O   UNL     1       1.333   9.362  20.138  0.00  0.00    +0.000 OA
BRANCH  19  20
ATOM     20  C   UNL     1      -0.018   9.914  19.975  0.00  0.00    +0.000 C 
BRANCH  20  21
ATOM     21  C   UNL     1      -0.316  11.028  20.957  0.00  0.00    +0.000 C 
ATOM     22  F   UNL     1       0.799  11.756  21.228  0.00  0.00    +0.000 F 
ATOM     23  F   UNL     1      -1.253  11.917  20.563  0.00  0.00    +0.000 F 
ATOM     24  F   UNL     1      -0.745  10.526  22.139  0.00  0.00    +0.000 F 
ENDBRANCH  20  21
BRANCH  20  25
ATOM     25  C   UNL     1      -0.272  10.322  18.538  0.00  0.00    +0.000 C 
ATOM     26  F   UNL     1       0.232  11.560  18.289  0.00  0.00    +0.000 F 
ATOM     27  F   UNL     1       0.380   9.481  17.693  0.00  0.00    +0.000 F 
ATOM     28  F   UNL     1      -1.556  10.354  18.145  0.00  0.00    +0.000 F 
ENDBRANCH  20  25
ENDBRANCH  19  20
ENDBRANCH   5  19
TORSDOF 6
ENDMDL
MODEL 7
REMARK VINA RESULT:      -7.3      4.248      8.658
REMARK  Name = 
REMARK  7 active torsions:
REMARK  status: ('A' for Active; 'I' for Inactive)
REMARK    1  A    between atoms: C_1  and  C_2
REMARK    2  A    between atoms: C_7  and  S_8
REMARK    3  A    between atoms: S_8  and  N_11
REMARK    4  A    between atoms: C_15  and  O_17
REMARK    5  A    between atoms: O_17  and  C_18
REMARK    6  A    between atoms: C_18  and  C_19
REMARK    7  A    between atoms: C_18  and  C_23
REMARK                            x       y       z     vdW  Elec       q    Type
REMARK                         _______ _______ _______ _____ _____    ______ ____
ROOT
ATOM      1  N   UNL     1       0.362   9.825  19.854  0.00  0.00    +0.000 NA
ATOM      2  C   UNL     1       0.632   9.821  18.402  0.00  0.00    +0.000 C 
ATOM      3  C   UNL     1       1.963   9.125  18.089  0.00  0.00    +0.000 C 
ATOM      4  N   UNL     1       2.119   7.806  18.708  0.00  0.00    +0.000 N 
ATOM      5  C   UNL     1       3.204   7.041  18.273  0.00  0.00    +0.000 C 
ATOM      6  O   UNL     1       3.888   7.318  17.299  0.00  0.00    +0.000 OA
ATOM      7  C   UNL     1       1.586   7.611  20.057  0.00  0.00    +0.000 C 
ATOM      8  C   UNL     1       0.373   8.470  20.453  0.00  0.00    +0.000 C 
ENDROOT
BRANCH   1   9
ATOM      9  S   UNL     1       0.816  11.165  20.766  0.00  0.00    +0.000 S 
ATOM     10  O   UNL     1       1.420  12.116  19.857  0.00  0.00    +0.000 OA
ATOM     11  O   UNL     1       1.527  10.715  21.949  0.00  0.00    +0.000 OA
BRANCH   9  18
ATOM     12  C   UNL     1      -1.371  12.768  19.028  0.00  0.00    +0.000 C 
ATOM     13  C   UNL     1      -1.682  12.426  20.456  0.00  0.00    +0.000 A 
ATOM     14  C   UNL     1      -2.958  12.767  20.952  0.00  0.00    +0.000 A 
ATOM     15  C   UNL     1      -3.275  12.604  22.300  0.00  0.00    +0.000 A 
ATOM     16  C   UNL     1      -2.320  12.106  23.181  0.00  0.00    +0.000 A 
ATOM     17  C   UNL     1      -1.063  11.720  22.704  0.00  0.00    +0.000 A 
ATOM     18  C   UNL     1      -0.743  11.863  21.344  0.00  0.00    +0.000 A 
ENDBRANCH   9  18
ENDBRANCH   1   9
BRANCH   5  19
ATOM     19  O   UNL     1       3.437   5.935  19.033  0.00  0.00    +0.000 OA
BRANCH  19  20
ATOM     20  C   UNL     1       3.305   4.662  18.313  0.00  0.00    +0.000 C 
BRANCH  20  21
ATOM     21  C   UNL     1       4.283   3.613  18.799  0.00  0.00    +0.000 C 
ATOM     22  F   UNL     1       4.371   2.579  17.923  0.00  0.00    +0.000 F 
ATOM     23  F   UNL     1       5.548   4.042  18.996  0.00  0.00    +0.000 F 
ATOM     24  F   UNL     1       3.876   3.085  19.978  0.00  0.00    +0.000 F 
ENDBRANCH  20  21
BRANCH  20  25
ATOM     25  C   UNL     1       1.871   4.172  18.329  0.00  0.00    +0.000 C 
ATOM     26  F   UNL     1       1.273   4.458  19.515  0.00  0.00    +0.000 F 
ATOM     27  F   UNL     1       1.146   4.824  17.383  0.00  0.00    +0.000 F 
ATOM     28  F   UNL     1       1.688   2.857  18.125  0.00  0.00    +0.000 F 
ENDBRANCH  20  25
ENDBRANCH  19  20
ENDBRANCH   5  19
TORSDOF 6
ENDMDL
MODEL 8
REMARK VINA RESULT:      -7.3      4.296      8.621
REMARK  Name = 
REMARK  7 active torsions:
REMARK  status: ('A' for Active; 'I' for Inactive)
REMARK    1  A    between atoms: C_1  and  C_2
REMARK    2  A    between atoms: C_7  and  S_8
REMARK    3  A    between atoms: S_8  and  N_11
REMARK    4  A    between atoms: C_15  and  O_17
REMARK    5  A    between atoms: O_17  and  C_18
REMARK    6  A    between atoms: C_18  and  C_19
REMARK    7  A    between atoms: C_18  and  C_23
REMARK                            x       y       z     vdW  Elec       q    Type
REMARK                         _______ _______ _______ _____ _____    ______ ____
ROOT
ATOM      1  N   UNL     1       0.375   9.858  19.777  0.00  0.00    +0.000 NA
ATOM      2  C   UNL     1       0.635   9.777  18.325  0.00  0.00    +0.000 C 
ATOM      3  C   UNL     1       1.967   9.071  18.040  0.00  0.00    +0.000 C 
ATOM      4  N   UNL     1       2.133   7.788  18.729  0.00  0.00    +0.000 N 
ATOM      5  C   UNL     1       3.219   7.005  18.328  0.00  0.00    +0.000 C 
ATOM      6  O   UNL     1       3.895   7.232  17.336  0.00  0.00    +0.000 OA
ATOM      7  C   UNL     1       1.611   7.664  20.090  0.00  0.00    +0.000 C 
ATOM      8  C   UNL     1       0.397   8.538  20.449  0.00  0.00    +0.000 C 
ENDROOT
BRANCH   1   9
ATOM      9  S   UNL     1       0.829  11.248  20.611  0.00  0.00    +0.000 S 
ATOM     10  O   UNL     1       1.370  12.174  19.638  0.00  0.00    +0.000 OA
ATOM     11  O   UNL     1       1.599  10.868  21.781  0.00  0.00    +0.000 OA
BRANCH   9  18
ATOM     12  C   UNL     1      -1.510  12.635  18.886  0.00  0.00    +0.000 C 
ATOM     13  C   UNL     1      -1.731  12.392  20.350  0.00  0.00    +0.000 A 
ATOM     14  C   UNL     1      -2.991  12.722  20.890  0.00  0.00    +0.000 A 
ATOM     15  C   UNL     1      -3.229  12.651  22.262  0.00  0.00    +0.000 A 
ATOM     16  C   UNL     1      -2.209  12.254  23.122  0.00  0.00    +0.000 A 
ATOM     17  C   UNL     1      -0.965  11.879  22.606  0.00  0.00    +0.000 A 
ATOM     18  C   UNL     1      -0.724  11.931  21.222  0.00  0.00    +0.000 A 
ENDBRANCH   9  18
ENDBRANCH   1   9
BRANCH   5  19
ATOM     19  O   UNL     1       3.462   5.943  19.146  0.00  0.00    +0.000 OA
BRANCH  19  20
ATOM     20  C   UNL     1       3.331   4.633  18.497  0.00  0.00    +0.000 C 
BRANCH  20  21
ATOM     21  C   UNL     1       4.172   3.564  19.165  0.00  0.00    +0.000 C 
ATOM     22  F   UNL     1       3.639   3.195  20.359  0.00  0.00    +0.000 F 
ATOM     23  F   UNL     1       4.332   2.424  18.461  0.00  0.00    +0.000 F 
ATOM     24  F   UNL     1       5.418   4.025  19.426  0.00  0.00    +0.000 F 
ENDBRANCH  20  21
BRANCH  20  25
ATOM     25  C   UNL     1       1.876   4.231  18.367  0.00  0.00    +0.000 C 
ATOM     26  F   UNL     1       1.758   2.893  18.162  0.00  0.00    +0.000 F 
ATOM     27  F   UNL     1       1.217   4.487  19.528  0.00  0.00    +0.000 F 
ATOM     28  F   UNL     1       1.179   4.824  17.384  0.00  0.00    +0.000 F 
ENDBRANCH  20  25
ENDBRANCH  19  20
ENDBRANCH   5  19
TORSDOF 6
ENDMDL
MODEL 9
REMARK VINA RESULT:      -7.3      4.256      8.618
REMARK  Name = 
REMARK  7 active torsions:
REMARK  status: ('A' for Active; 'I' for Inactive)
REMARK    1  A    between atoms: C_1  and  C_2
REMARK    2  A    between atoms: C_7  and  S_8
REMARK    3  A    between atoms: S_8  and  N_11
REMARK    4  A    between atoms: C_15  and  O_17
REMARK    5  A    between atoms: O_17  and  C_18
REMARK    6  A    between atoms: C_18  and  C_19
REMARK    7  A    between atoms: C_18  and  C_23
REMARK                            x       y       z     vdW  Elec       q    Type
REMARK                         _______ _______ _______ _____ _____    ______ ____
ROOT
ATOM      1  N   UNL     1       0.384   9.853  19.758  0.00  0.00    +0.000 NA
ATOM      2  C   UNL     1       0.630   9.797  18.303  0.00  0.00    +0.000 C 
ATOM      3  C   UNL     1       1.970   9.116  17.995  0.00  0.00    +0.000 C 
ATOM      4  N   UNL     1       2.163   7.826  18.663  0.00  0.00    +0.000 N 
ATOM      5  C   UNL     1       3.257   7.066  18.240  0.00  0.00    +0.000 C 
ATOM      6  O   UNL     1       3.918   7.318  17.245  0.00  0.00    +0.000 OA
ATOM      7  C   UNL     1       1.657   7.674  20.028  0.00  0.00    +0.000 C 
ATOM      8  C   UNL     1       0.432   8.525  20.411  0.00  0.00    +0.000 C 
ENDROOT
BRANCH   1   9
ATOM      9  S   UNL     1       0.824  11.238  20.609  0.00  0.00    +0.000 S 
ATOM     10  O   UNL     1       1.343  12.185  19.644  0.00  0.00    +0.000 OA
ATOM     11  O   UNL     1       1.610  10.853  21.767  0.00  0.00    +0.000 OA
BRANCH   9  18
ATOM     12  C   UNL     1      -0.806  10.229  23.196  0.00  0.00    +0.000 C 
ATOM     13  C   UNL     1      -1.281  11.451  22.466  0.00  0.00    +0.000 A 
ATOM     14  C   UNL     1      -2.389  12.145  22.995  0.00  0.00    +0.000 A 
ATOM     15  C   UNL     1      -2.970  13.208  22.305  0.00  0.00    +0.000 A 
ATOM     16  C   UNL     1      -2.460  13.593  21.068  0.00  0.00    +0.000 A 
ATOM     17  C   UNL     1      -1.335  12.949  20.545  0.00  0.00    +0.000 A 
ATOM     18  C   UNL     1      -0.733  11.889  21.243  0.00  0.00    +0.000 A 
ENDBRANCH   9  18
ENDBRANCH   1   9
BRANCH   5  19
ATOM     19  O   UNL     1       3.524   5.996  19.040  0.00  0.00    +0.000 OA
BRANCH  19  20
ATOM     20  C   UNL     1       3.354   4.692  18.387  0.00  0.00    +0.000 C 
BRANCH  20  21
ATOM     21  C   UNL     1       4.229   3.617  18.998  0.00  0.00    +0.000 C 
ATOM     22  F   UNL     1       3.776   3.252  20.226  0.00  0.00    +0.000 F 
ATOM     23  F   UNL     1       4.332   2.474  18.286  0.00  0.00    +0.000 F 
ATOM     24  F   UNL     1       5.494   4.067  19.173  0.00  0.00    +0.000 F 
ENDBRANCH  20  21
BRANCH  20  25
ATOM     25  C   UNL     1       1.894   4.293  18.336  0.00  0.00    +0.000 C 
ATOM     26  F   UNL     1       1.762   2.956  18.130  0.00  0.00    +0.000 F 
ATOM     27  F   UNL     1       1.301   4.542  19.533  0.00  0.00    +0.000 F 
ATOM     28  F   UNL     1       1.144   4.893  17.396  0.00  0.00    +0.000 F 
ENDBRANCH  20  25
ENDBRANCH  19  20
ENDBRANCH   5  19
TORSDOF 6
ENDMDL
