MODEL 1
REMARK VINA RESULT:      -7.8      0.000      0.000
REMARK  Name = 
REMARK  8 active torsions:
REMARK  status: ('A' for Active; 'I' for Inactive)
REMARK    1  A    between atoms: C_1  and  C_2
REMARK    2  A    between atoms: C_4  and  C_5
REMARK    3  A    between atoms: C_6  and  C_7
REMARK    4  A    between atoms: N_9  and  C_10
REMARK    5  A    between atoms: N_19  and  C_20
REMARK    6  A    between atoms: C_20  and  C_21
REMARK    7  A    between atoms: C_21  and  O_22
REMARK    8  A    between atoms: O_22  and  C_23
REMARK                            x       y       z     vdW  Elec       q    Type
REMARK                         _______ _______ _______ _____ _____    ______ ____
ROOT
ATOM      1  C   UNL     1       0.917   9.600  19.182  0.00  0.00    +0.000 C 
ATOM      2  C   UNL     1       2.149   9.956  18.355  0.00  0.00    +0.000 C 
ATOM      3  C   UNL     1       2.611   8.620  17.797  0.00  0.00    +0.000 C 
ATOM      4  N   UNL     1       2.335   7.683  18.877  0.00  0.00    +0.000 N 
ATOM      5  C   UNL     1       3.021   6.488  19.030  0.00  0.00    +0.000 A 
ATOM      6  C   UNL     1       2.645   5.533  20.109  0.00  0.00    +0.000 A 
ATOM      7  C   UNL     1       3.307   4.384  20.216  0.00  0.00    +0.000 A 
ATOM      8  C   UNL     1       4.416   4.064  19.302  0.00  0.00    +0.000 A 
ATOM      9  O   UNL     1       5.008   2.996  19.429  0.00  0.00    +0.000 OA
ATOM     10  N   UNL     1       4.721   5.035  18.361  0.00  0.00    +0.000 N 
ATOM     11  N   UNL     1       4.016   6.216  18.223  0.00  0.00    +0.000 NA
ATOM     12  C   UNL     1       1.254   8.189  19.731  0.00  0.00    +0.000 C 
ENDROOT
BRANCH   1  15
ATOM     13  C   UNL     1      -0.150  11.723  19.973  0.00  0.00    +0.000 C 
ATOM     14  O   UNL     1      -0.774  11.838  18.920  0.00  0.00    +0.000 OA
ATOM     15  N   UNL     1       0.663  10.626  20.187  0.00  0.00    +0.000 N 
ATOM     16  H   UNL     1       1.258  10.660  21.007  0.00  0.00    +0.000 HD
BRANCH  13  22
ATOM     17  C   UNL     1      -1.423  14.678  24.189  0.00  0.00    +0.000 C 
ATOM     18  C   UNL     1      -0.778  14.066  22.993  0.00  0.00    +0.000 A 
ATOM     19  N   UNL     1       0.320  14.519  22.435  0.00  0.00    +0.000 NA
ATOM     20  C   UNL     1       0.657  13.746  21.331  0.00  0.00    +0.000 A 
ATOM     21  C   UNL     1       1.881  14.126  20.574  0.00  0.00    +0.000 C 
ATOM     22  C   UNL     1      -0.207  12.693  21.060  0.00  0.00    +0.000 A 
ATOM     23  S   UNL     1      -1.460  12.683  22.245  0.00  0.00    +0.000 S 
ENDBRANCH  13  22
ENDBRANCH   1  15
BRANCH  10  24
ATOM     24  C   UNL     1       5.882   4.824  17.494  0.00  0.00    +0.000 C 
BRANCH  24  25
ATOM     25  C   UNL     1       5.971   5.807  16.333  0.00  0.00    +0.000 C 
BRANCH  25  26
ATOM     26  O   UNL     1       7.137   5.563  15.535  0.00  0.00    +0.000 OA
BRANCH  26  27
ATOM     27  C   UNL     1       6.898   4.922  14.343  0.00  0.00    +0.000 A 
ATOM     28  C   UNL     1       5.896   3.970  14.122  0.00  0.00    +0.000 A 
ATOM     29  C   UNL     1       5.751   3.369  12.869  0.00  0.00    +0.000 A 
ATOM     30  C   UNL     1       6.603   3.719  11.826  0.00  0.00    +0.000 A 
ATOM     31  C   UNL     1       7.597   4.674  12.033  0.00  0.00    +0.000 A 
ATOM     32  C   UNL     1       7.743   5.273  13.288  0.00  0.00    +0.000 A 
ENDBRANCH  26  27
ENDBRANCH  25  26
ENDBRANCH  24  25
ENDBRANCH  10  24
TORSDOF 6
ENDMDL
MODEL 2
REMARK VINA RESULT:      -7.8      2.849      4.346
REMARK  Name = 
REMARK  8 active torsions:
REMARK  status: ('A' for Active; 'I' for Inactive)
REMARK    1  A    between atoms: C_1  and  C_2
REMARK    2  A    between atoms: C_4  and  C_5
REMARK    3  A    between atoms: C_6  and  C_7
REMARK    4  A    between atoms: N_9  and  C_10
REMARK    5  A    between atoms: N_19  and  C_20
REMARK    6  A    between atoms: C_20  and  C_21
REMARK    7  A    between atoms: C_21  and  O_22
REMARK    8  A    between atoms: O_22  and  C_23
REMARK                            x       y       z     vdW  Elec       q    Type
REMARK                         _______ _______ _______ _____ _____    ______ ____
ROOT
ATOM      1  C   UNL     1      -0.574  11.013  22.558  0.00  0.00    +0.000 C 
ATOM      2  C   UNL     1      -0.630   9.574  23.062  0.00  0.00    +0.000 C 
ATOM      3  C   UNL     1       0.608   8.929  22.461  0.00  0.00    +0.000 C 
ATOM      4  N   UNL     1       0.717   9.553  21.150  0.00  0.00    +0.000 N 
ATOM      5  C   UNL     1       1.358   8.949  20.080  0.00  0.00    +0.000 A 
ATOM      6  C   UNL     1       1.507   9.668  18.784  0.00  0.00    +0.000 A 
ATOM      7  C   UNL     1       2.148   9.070  17.783  0.00  0.00    +0.000 A 
ATOM      8  C   UNL     1       2.684   7.707  17.937  0.00  0.00    +0.000 A 
ATOM      9  O   UNL     1       3.270   7.183  16.993  0.00  0.00    +0.000 OA
ATOM     10  N   UNL     1       2.456   7.104  19.164  0.00  0.00    +0.000 N 
ATOM     11  N   UNL     1       1.821   7.732  20.219  0.00  0.00    +0.000 NA
ATOM     12  C   UNL     1       0.071  10.872  21.155  0.00  0.00    +0.000 C 
ENDROOT
BRANCH   1  15
ATOM     13  C   UNL     1      -2.170  12.855  23.137  0.00  0.00    +0.000 C 
ATOM     14  O   UNL     1      -1.256  13.554  23.569  0.00  0.00    +0.000 OA
ATOM     15  N   UNL     1      -1.903  11.616  22.585  0.00  0.00    +0.000 N 
ATOM     16  H   UNL     1      -2.705  11.032  22.381  0.00  0.00    +0.000 HD
BRANCH  13  22
ATOM     17  C   UNL     1      -7.319  13.543  24.205  0.00  0.00    +0.000 C 
ATOM     18  C   UNL     1      -5.944  13.576  23.632  0.00  0.00    +0.000 A 
ATOM     19  N   UNL     1      -5.617  14.218  22.536  0.00  0.00    +0.000 NA
ATOM     20  C   UNL     1      -4.268  14.041  22.253  0.00  0.00    +0.000 A 
ATOM     21  C   UNL     1      -3.728  14.702  21.035  0.00  0.00    +0.000 C 
ATOM     22  C   UNL     1      -3.573  13.250  23.160  0.00  0.00    +0.000 A 
ATOM     23  S   UNL     1      -4.658  12.739  24.399  0.00  0.00    +0.000 S 
ENDBRANCH  13  22
ENDBRANCH   1  15
BRANCH  10  24
ATOM     24  C   UNL     1       2.869   5.711  19.343  0.00  0.00    +0.000 C 
BRANCH  24  25
ATOM     25  C   UNL     1       4.360   5.538  19.607  0.00  0.00    +0.000 C 
BRANCH  25  26
ATOM     26  O   UNL     1       4.863   4.352  18.981  0.00  0.00    +0.000 OA
BRANCH  26  27
ATOM     27  C   UNL     1       5.367   4.535  17.715  0.00  0.00    +0.000 A 
ATOM     28  C   UNL     1       4.894   3.908  16.557  0.00  0.00    +0.000 A 
ATOM     29  C   UNL     1       5.492   4.157  15.319  0.00  0.00    +0.000 A 
ATOM     30  C   UNL     1       6.565   5.038  15.229  0.00  0.00    +0.000 A 
ATOM     31  C   UNL     1       7.038   5.676  16.375  0.00  0.00    +0.000 A 
ATOM     32  C   UNL     1       6.439   5.424  17.613  0.00  0.00    +0.000 A 
ENDBRANCH  26  27
ENDBRANCH  25  26
ENDBRANCH  24  25
ENDBRANCH  10  24
TORSDOF 6
ENDMDL
MODEL 3
REMARK VINA RESULT:      -7.7      2.338      3.010
REMARK  Name = 
REMARK  8 active torsions:
REMARK  status: ('A' for Active; 'I' for Inactive)
REMARK    1  A    between atoms: C_1  and  C_2
REMARK    2  A    between atoms: C_4  and  C_5
REMARK    3  A    between atoms: C_6  and  C_7
REMARK    4  A    between atoms: N_9  and  C_10
REMARK    5  A    between atoms: N_19  and  C_20
REMARK    6  A    between atoms: C_20  and  C_21
REMARK    7  A    between atoms: C_21  and  O_22
REMARK    8  A    between atoms: O_22  and  C_23
REMARK                            x       y       z     vdW  Elec       q    Type
REMARK                         _______ _______ _______ _____ _____    ______ ____
ROOT
ATOM      1  C   UNL     1       1.113   9.882  19.027  0.00  0.00    +0.000 C 
ATOM      2  C   UNL     1       2.159   9.640  17.943  0.00  0.00    +0.000 C 
ATOM      3  C   UNL     1       2.116   8.136  17.724  0.00  0.00    +0.000 C 
ATOM      4  N   UNL     1       1.878   7.603  19.058  0.00  0.00    +0.000 N 
ATOM      5  C   UNL     1       2.252   6.323  19.434  0.00  0.00    +0.000 A 
ATOM      6  C   UNL     1       1.915   5.803  20.789  0.00  0.00    +0.000 A 
ATOM      7  C   UNL     1       2.267   4.561  21.111  0.00  0.00    +0.000 A 
ATOM      8  C   UNL     1       3.003   3.714  20.158  0.00  0.00    +0.000 A 
ATOM      9  O   UNL     1       3.315   2.573  20.488  0.00  0.00    +0.000 OA
ATOM     10  N   UNL     1       3.311   4.302  18.942  0.00  0.00    +0.000 N 
ATOM     11  N   UNL     1       2.919   5.578  18.587  0.00  0.00    +0.000 NA
ATOM     12  C   UNL     1       1.200   8.600  19.895  0.00  0.00    +0.000 C 
ENDROOT
BRANCH   1  15
ATOM     13  C   UNL     1       0.722  12.320  19.444  0.00  0.00    +0.000 C 
ATOM     14  O   UNL     1      -0.197  12.344  18.629  0.00  0.00    +0.000 OA
ATOM     15  N   UNL     1       1.380  11.137  19.722  0.00  0.00    +0.000 N 
ATOM     16  H   UNL     1       2.216  11.209  20.290  0.00  0.00    +0.000 HD
BRANCH  13  22
ATOM     17  C   UNL     1       1.405  16.394  22.770  0.00  0.00    +0.000 C 
ATOM     18  C   UNL     1       1.520  15.375  21.690  0.00  0.00    +0.000 A 
ATOM     19  N   UNL     1       2.456  15.376  20.771  0.00  0.00    +0.000 NA
ATOM     20  C   UNL     1       2.281  14.309  19.898  0.00  0.00    +0.000 A 
ATOM     21  C   UNL     1       3.259  14.163  18.787  0.00  0.00    +0.000 C 
ATOM     22  C   UNL     1       1.191  13.493  20.173  0.00  0.00    +0.000 A 
ATOM     23  S   UNL     1       0.388  14.091  21.578  0.00  0.00    +0.000 S 
ENDBRANCH  13  22
ENDBRANCH   1  15
BRANCH  10  24
ATOM     24  C   UNL     1       4.135   3.549  17.993  0.00  0.00    +0.000 C 
BRANCH  24  25
ATOM     25  C   UNL     1       4.450   4.309  16.711  0.00  0.00    +0.000 C 
BRANCH  25  26
ATOM     26  O   UNL     1       5.858   4.316  16.445  0.00  0.00    +0.000 OA
BRANCH  26  27
ATOM     27  C   UNL     1       6.568   5.287  17.111  0.00  0.00    +0.000 A 
ATOM     28  C   UNL     1       6.662   6.629  16.725  0.00  0.00    +0.000 A 
ATOM     29  C   UNL     1       7.426   7.530  17.471  0.00  0.00    +0.000 A 
ATOM     30  C   UNL     1       8.097   7.098  18.610  0.00  0.00    +0.000 A 
ATOM     31  C   UNL     1       8.002   5.766  19.009  0.00  0.00    +0.000 A 
ATOM     32  C   UNL     1       7.239   4.864  18.261  0.00  0.00    +0.000 A 
ENDBRANCH  26  27
ENDBRANCH  25  26
ENDBRANCH  24  25
ENDBRANCH  10  24
TORSDOF 6
ENDMDL
MODEL 4
REMARK VINA RESULT:      -7.7      2.906      4.678
REMARK  Name = 
REMARK  8 active torsions:
REMARK  status: ('A' for Active; 'I' for Inactive)
REMARK    1  A    between atoms: C_1  and  C_2
REMARK    2  A    between atoms: C_4  and  C_5
REMARK    3  A    between atoms: C_6  and  C_7
REMARK    4  A    between atoms: N_9  and  C_10
REMARK    5  A    between atoms: N_19  and  C_20
REMARK    6  A    between atoms: C_20  and  C_21
REMARK    7  A    between atoms: C_21  and  O_22
REMARK    8  A    between atoms: O_22  and  C_23
REMARK                            x       y       z     vdW  Elec       q    Type
REMARK                         _______ _______ _______ _____ _____    ______ ____
ROOT
ATOM      1  C   UNL     1      -0.631  11.609  22.286  0.00  0.00    +0.000 C 
ATOM      2  C   UNL     1      -0.743  10.251  22.974  0.00  0.00    +0.000 C 
ATOM      3  C   UNL     1       0.471   9.487  22.471  0.00  0.00    +0.000 C 
ATOM      4  N   UNL     1       0.608   9.930  21.091  0.00  0.00    +0.000 N 
ATOM      5  C   UNL     1       1.228   9.168  20.114  0.00  0.00    +0.000 A 
ATOM      6  C   UNL     1       1.408   9.705  18.736  0.00  0.00    +0.000 A 
ATOM      7  C   UNL     1       2.028   8.958  17.826  0.00  0.00    +0.000 A 
ATOM      8  C   UNL     1       2.512   7.608  18.161  0.00  0.00    +0.000 A 
ATOM      9  O   UNL     1       3.079   6.944  17.298  0.00  0.00    +0.000 OA
ATOM     10  N   UNL     1       2.258   7.180  19.454  0.00  0.00    +0.000 N 
ATOM     11  N   UNL     1       1.644   7.962  20.413  0.00  0.00    +0.000 NA
ATOM     12  C   UNL     1       0.012  11.261  20.918  0.00  0.00    +0.000 C 
ENDROOT
BRANCH   1  15
ATOM     13  C   UNL     1      -2.314  13.295  23.058  0.00  0.00    +0.000 C 
ATOM     14  O   UNL     1      -1.513  13.777  23.855  0.00  0.00    +0.000 OA
ATOM     15  N   UNL     1      -1.936  12.259  22.225  0.00  0.00    +0.000 N 
ATOM     16  H   UNL     1      -2.676  11.812  21.697  0.00  0.00    +0.000 HD
BRANCH  13  22
ATOM     17  C   UNL     1      -6.835  15.694  21.666  0.00  0.00    +0.000 C 
ATOM     18  C   UNL     1      -5.780  14.849  22.293  0.00  0.00    +0.000 A 
ATOM     19  N   UNL     1      -5.988  14.036  23.302  0.00  0.00    +0.000 NA
ATOM     20  C   UNL     1      -4.805  13.405  23.668  0.00  0.00    +0.000 A 
ATOM     21  C   UNL     1      -4.862  12.447  24.806  0.00  0.00    +0.000 C 
ATOM     22  C   UNL     1      -3.691  13.753  22.915  0.00  0.00    +0.000 A 
ATOM     23  S   UNL     1      -4.167  14.892  21.711  0.00  0.00    +0.000 S 
ENDBRANCH  13  22
ENDBRANCH   1  15
BRANCH  10  24
ATOM     24  C   UNL     1       2.618   5.807  19.817  0.00  0.00    +0.000 C 
BRANCH  24  25
ATOM     25  C   UNL     1       4.091   5.479  19.607  0.00  0.00    +0.000 C 
BRANCH  25  26
ATOM     26  O   UNL     1       4.251   4.266  18.861  0.00  0.00    +0.000 OA
BRANCH  26  27
ATOM     27  C   UNL     1       5.207   4.316  17.875  0.00  0.00    +0.000 A 
ATOM     28  C   UNL     1       6.543   4.690  18.061  0.00  0.00    +0.000 A 
ATOM     29  C   UNL     1       7.429   4.718  16.981  0.00  0.00    +0.000 A 
ATOM     30  C   UNL     1       6.988   4.370  15.708  0.00  0.00    +0.000 A 
ATOM     31  C   UNL     1       5.662   3.987  15.514  0.00  0.00    +0.000 A 
ATOM     32  C   UNL     1       4.775   3.960  16.595  0.00  0.00    +0.000 A 
ENDBRANCH  26  27
ENDBRANCH  25  26
ENDBRANCH  24  25
ENDBRANCH  10  24
TORSDOF 6
ENDMDL
MODEL 5
REMARK VINA RESULT:      -7.7      2.194      3.025
REMARK  Name = 
REMARK  8 active torsions:
REMARK  status: ('A' for Active; 'I' for Inactive)
REMARK    1  A    between atoms: C_1  and  C_2
REMARK    2  A    between atoms: C_4  and  C_5
REMARK    3  A    between atoms: C_6  and  C_7
REMARK    4  A    between atoms: N_9  and  C_10
REMARK    5  A    between atoms: N_19  and  C_20
REMARK    6  A    between atoms: C_20  and  C_21
REMARK    7  A    between atoms: C_21  and  O_22
REMARK    8  A    between atoms: O_22  and  C_23
REMARK                            x       y       z     vdW  Elec       q    Type
REMARK                         _______ _______ _______ _____ _____    ______ ____
ROOT
ATOM      1  C   UNL     1       1.094   9.817  19.102  0.00  0.00    +0.000 C 
ATOM      2  C   UNL     1       2.296   9.672  18.173  0.00  0.00    +0.000 C 
ATOM      3  C   UNL     1       2.341   8.184  17.867  0.00  0.00    +0.000 C 
ATOM      4  N   UNL     1       1.930   7.564  19.119  0.00  0.00    +0.000 N 
ATOM      5  C   UNL     1       2.293   6.274  19.474  0.00  0.00    +0.000 A 
ATOM      6  C   UNL     1       1.780   5.663  20.732  0.00  0.00    +0.000 A 
ATOM      7  C   UNL     1       2.127   4.415  21.033  0.00  0.00    +0.000 A 
ATOM      8  C   UNL     1       3.026   3.648  20.155  0.00  0.00    +0.000 A 
ATOM      9  O   UNL     1       3.329   2.499  20.463  0.00  0.00    +0.000 OA
ATOM     10  N   UNL     1       3.487   4.318  19.032  0.00  0.00    +0.000 N 
ATOM     11  N   UNL     1       3.104   5.602  18.696  0.00  0.00    +0.000 NA
ATOM     12  C   UNL     1       1.101   8.488  19.901  0.00  0.00    +0.000 C 
ENDROOT
BRANCH   1  15
ATOM     13  C   UNL     1       0.152  11.891  20.144  0.00  0.00    +0.000 C 
ATOM     14  O   UNL     1      -0.980  11.610  19.756  0.00  0.00    +0.000 OA
ATOM     15  N   UNL     1       1.209  11.035  19.899  0.00  0.00    +0.000 N 
ATOM     16  H   UNL     1       2.134  11.387  20.115  0.00  0.00    +0.000 HD
BRANCH  13  22
ATOM     17  C   UNL     1       2.241  16.411  21.971  0.00  0.00    +0.000 C 
ATOM     18  C   UNL     1       1.428  15.184  21.737  0.00  0.00    +0.000 A 
ATOM     19  N   UNL     1       0.459  14.780  22.524  0.00  0.00    +0.000 NA
ATOM     20  C   UNL     1      -0.092  13.597  22.048  0.00  0.00    +0.000 A 
ATOM     21  C   UNL     1      -1.207  12.995  22.827  0.00  0.00    +0.000 C 
ATOM     22  C   UNL     1       0.479  13.107  20.879  0.00  0.00    +0.000 A 
ATOM     23  S   UNL     1       1.726  14.186  20.375  0.00  0.00    +0.000 S 
ENDBRANCH  13  22
ENDBRANCH   1  15
BRANCH  10  24
ATOM     24  C   UNL     1       4.469   3.648  18.176  0.00  0.00    +0.000 C 
BRANCH  24  25
ATOM     25  C   UNL     1       4.464   4.137  16.733  0.00  0.00    +0.000 C 
BRANCH  25  26
ATOM     26  O   UNL     1       5.796   4.365  16.258  0.00  0.00    +0.000 OA
BRANCH  26  27
ATOM     27  C   UNL     1       6.513   5.295  16.972  0.00  0.00    +0.000 A 
ATOM     28  C   UNL     1       6.521   6.673  16.726  0.00  0.00    +0.000 A 
ATOM     29  C   UNL     1       7.301   7.529  17.507  0.00  0.00    +0.000 A 
ATOM     30  C   UNL     1       8.074   7.016  18.543  0.00  0.00    +0.000 A 
ATOM     31  C   UNL     1       8.066   5.646  18.803  0.00  0.00    +0.000 A 
ATOM     32  C   UNL     1       7.286   4.790  18.019  0.00  0.00    +0.000 A 
ENDBRANCH  26  27
ENDBRANCH  25  26
ENDBRANCH  24  25
ENDBRANCH  10  24
TORSDOF 6
ENDMDL
MODEL 6
REMARK VINA RESULT:      -7.7      0.972      1.258
REMARK  Name = 
REMARK  8 active torsions:
REMARK  status: ('A' for Active; 'I' for Inactive)
REMARK    1  A    between atoms: C_1  and  C_2
REMARK    2  A    between atoms: C_4  and  C_5
REMARK    3  A    between atoms: C_6  and  C_7
REMARK    4  A    between atoms: N_9  and  C_10
REMARK    5  A    between atoms: N_19  and  C_20
REMARK    6  A    between atoms: C_20  and  C_21
REMARK    7  A    between atoms: C_21  and  O_22
REMARK    8  A    between atoms: O_22  and  C_23
REMARK                            x       y       z     vdW  Elec       q    Type
REMARK                         _______ _______ _______ _____ _____    ______ ____
ROOT
ATOM      1  C   UNL     1       0.857   9.986  19.038  0.00  0.00    +0.000 C 
ATOM      2  C   UNL     1       2.117  10.246  18.218  0.00  0.00    +0.000 C 
ATOM      3  C   UNL     1       2.499   8.872  17.692  0.00  0.00    +0.000 C 
ATOM      4  N   UNL     1       2.155   7.978  18.788  0.00  0.00    +0.000 N 
ATOM      5  C   UNL     1       2.763   6.746  18.973  0.00  0.00    +0.000 A 
ATOM      6  C   UNL     1       2.316   5.839  20.067  0.00  0.00    +0.000 A 
ATOM      7  C   UNL     1       2.904   4.653  20.204  0.00  0.00    +0.000 A 
ATOM      8  C   UNL     1       3.999   4.245  19.308  0.00  0.00    +0.000 A 
ATOM      9  O   UNL     1       4.521   3.144  19.463  0.00  0.00    +0.000 OA
ATOM     10  N   UNL     1       4.374   5.175  18.352  0.00  0.00    +0.000 N 
ATOM     11  N   UNL     1       3.746   6.394  18.182  0.00  0.00    +0.000 NA
ATOM     12  C   UNL     1       1.100   8.569  19.620  0.00  0.00    +0.000 C 
ENDROOT
BRANCH   1  15
ATOM     13  C   UNL     1      -0.418  11.913  20.004  0.00  0.00    +0.000 C 
ATOM     14  O   UNL     1      -1.320  11.768  19.183  0.00  0.00    +0.000 OA
ATOM     15  N   UNL     1       0.659  11.047  20.020  0.00  0.00    +0.000 N 
ATOM     16  H   UNL     1       1.434  11.303  20.621  0.00  0.00    +0.000 HD
BRANCH  13  22
ATOM     17  C   UNL     1       0.202  16.409  22.748  0.00  0.00    +0.000 C 
ATOM     18  C   UNL     1      -0.115  15.028  22.288  0.00  0.00    +0.000 A 
ATOM     19  N   UNL     1      -0.617  14.091  23.057  0.00  0.00    +0.000 NA
ATOM     20  C   UNL     1      -0.782  12.912  22.341  0.00  0.00    +0.000 A 
ATOM     21  C   UNL     1      -1.340  11.740  23.067  0.00  0.00    +0.000 C 
ATOM     22  C   UNL     1      -0.396  12.971  21.007  0.00  0.00    +0.000 A 
ATOM     23  S   UNL     1       0.171  14.563  20.662  0.00  0.00    +0.000 S 
ENDBRANCH  13  22
ENDBRANCH   1  15
BRANCH  10  24
ATOM     24  C   UNL     1       5.527   4.873  17.501  0.00  0.00    +0.000 C 
BRANCH  24  25
ATOM     25  C   UNL     1       5.589   5.707  16.227  0.00  0.00    +0.000 C 
BRANCH  25  26
ATOM     26  O   UNL     1       6.833   5.515  15.542  0.00  0.00    +0.000 OA
BRANCH  26  27
ATOM     27  C   UNL     1       6.730   4.894  14.320  0.00  0.00    +0.000 A 
ATOM     28  C   UNL     1       5.767   3.938  13.977  0.00  0.00    +0.000 A 
ATOM     29  C   UNL     1       5.764   3.358  12.706  0.00  0.00    +0.000 A 
ATOM     30  C   UNL     1       6.720   3.732  11.767  0.00  0.00    +0.000 A 
ATOM     31  C   UNL     1       7.677   4.691  12.096  0.00  0.00    +0.000 A 
ATOM     32  C   UNL     1       7.681   5.269  13.369  0.00  0.00    +0.000 A 
ENDBRANCH  26  27
ENDBRANCH  25  26
ENDBRANCH  24  25
ENDBRANCH  10  24
TORSDOF 6
ENDMDL
MODEL 7
REMARK VINA RESULT:      -7.6      3.925      5.847
REMARK  Name = 
REMARK  8 active torsions:
REMARK  status: ('A' for Active; 'I' for Inactive)
REMARK    1  A    between atoms: C_1  and  C_2
REMARK    2  A    between atoms: C_4  and  C_5
REMARK    3  A    between atoms: C_6  and  C_7
REMARK    4  A    between atoms: N_9  and  C_10
REMARK    5  A    between atoms: N_19  and  C_20
REMARK    6  A    between atoms: C_20  and  C_21
REMARK    7  A    between atoms: C_21  and  O_22
REMARK    8  A    between atoms: O_22  and  C_23
REMARK                            x       y       z     vdW  Elec       q    Type
REMARK                         _______ _______ _______ _____ _____    ______ ____
ROOT
ATOM      1  C   UNL     1      -1.141  11.817  22.386  0.00  0.00    +0.000 C 
ATOM      2  C   UNL     1      -1.023  10.480  23.113  0.00  0.00    +0.000 C 
ATOM      3  C   UNL     1       0.262   9.881  22.565  0.00  0.00    +0.000 C 
ATOM      4  N   UNL     1       0.265  10.294  21.169  0.00  0.00    +0.000 N 
ATOM      5  C   UNL     1       0.940   9.597  20.179  0.00  0.00    +0.000 A 
ATOM      6  C   UNL     1       0.972  10.109  18.780  0.00  0.00    +0.000 A 
ATOM      7  C   UNL     1       1.648   9.429  17.858  0.00  0.00    +0.000 A 
ATOM      8  C   UNL     1       2.337   8.173  18.200  0.00  0.00    +0.000 A 
ATOM      9  O   UNL     1       2.950   7.569  17.324  0.00  0.00    +0.000 OA
ATOM     10  N   UNL     1       2.211   7.755  19.515  0.00  0.00    +0.000 N 
ATOM     11  N   UNL     1       1.539   8.473  20.486  0.00  0.00    +0.000 NA
ATOM     12  C   UNL     1      -0.523  11.520  20.995  0.00  0.00    +0.000 C 
ENDROOT
BRANCH   1  15
ATOM     13  C   UNL     1      -2.930  13.505  22.856  0.00  0.00    +0.000 C 
ATOM     14  O   UNL     1      -2.100  14.323  23.246  0.00  0.00    +0.000 OA
ATOM     15  N   UNL     1      -2.528  12.272  22.379  0.00  0.00    +0.000 N 
ATOM     16  H   UNL     1      -3.261  11.593  22.210  0.00  0.00    +0.000 HD
BRANCH  13  22
ATOM     17  C   UNL     1      -7.877  15.202  21.974  0.00  0.00    +0.000 C 
ATOM     18  C   UNL     1      -6.650  14.517  22.469  0.00  0.00    +0.000 A 
ATOM     19  N   UNL     1      -6.634  13.659  23.461  0.00  0.00    +0.000 NA
ATOM     20  C   UNL     1      -5.339  13.211  23.694  0.00  0.00    +0.000 A 
ATOM     21  C   UNL     1      -5.140  12.229  24.794  0.00  0.00    +0.000 C 
ATOM     22  C   UNL     1      -4.368  13.746  22.857  0.00  0.00    +0.000 A 
ATOM     23  S   UNL     1      -5.126  14.826  21.746  0.00  0.00    +0.000 S 
ENDBRANCH  13  22
ENDBRANCH   1  15
BRANCH  10  24
ATOM     24  C   UNL     1       2.781   6.460  19.892  0.00  0.00    +0.000 C 
BRANCH  24  25
ATOM     25  C   UNL     1       1.838   5.584  20.707  0.00  0.00    +0.000 C 
BRANCH  25  26
ATOM     26  O   UNL     1       1.185   4.614  19.879  0.00  0.00    +0.000 OA
BRANCH  26  27
ATOM     27  C   UNL     1       1.997   3.607  19.416  0.00  0.00    +0.000 A 
ATOM     28  C   UNL     1       3.072   3.048  20.117  0.00  0.00    +0.000 A 
ATOM     29  C   UNL     1       3.843   2.034  19.543  0.00  0.00    +0.000 A 
ATOM     30  C   UNL     1       3.544   1.568  18.267  0.00  0.00    +0.000 A 
ATOM     31  C   UNL     1       2.469   2.112  17.565  0.00  0.00    +0.000 A 
ATOM     32  C   UNL     1       1.699   3.128  18.139  0.00  0.00    +0.000 A 
ENDBRANCH  26  27
ENDBRANCH  25  26
ENDBRANCH  24  25
ENDBRANCH  10  24
TORSDOF 6
ENDMDL
MODEL 8
REMARK VINA RESULT:      -7.6      3.568      9.982
REMARK  Name = 
REMARK  8 active torsions:
REMARK  status: ('A' for Active; 'I' for Inactive)
REMARK    1  A    between atoms: C_1  and  C_2
REMARK    2  A    between atoms: C_4  and  C_5
REMARK    3  A    between atoms: C_6  and  C_7
REMARK    4  A    between atoms: N_9  and  C_10
REMARK    5  A    between atoms: N_19  and  C_20
REMARK    6  A    between atoms: C_20  and  C_21
REMARK    7  A    between atoms: C_21  and  O_22
REMARK    8  A    between atoms: O_22  and  C_23
REMARK                            x       y       z     vdW  Elec       q    Type
REMARK                         _______ _______ _______ _____ _____    ______ ____
ROOT
ATOM      1  C   UNL     1       2.297   8.611  18.980  0.00  0.00    +0.000 C 
ATOM      2  C   UNL     1       1.244   9.083  17.981  0.00  0.00    +0.000 C 
ATOM      3  C   UNL     1       0.634  10.306  18.646  0.00  0.00    +0.000 C 
ATOM      4  N   UNL     1       0.626   9.960  20.060  0.00  0.00    +0.000 N 
ATOM      5  C   UNL     1      -0.261  10.519  20.967  0.00  0.00    +0.000 A 
ATOM      6  C   UNL     1      -0.174  10.184  22.416  0.00  0.00    +0.000 A 
ATOM      7  C   UNL     1      -1.025  10.755  23.264  0.00  0.00    +0.000 A 
ATOM      8  C   UNL     1      -2.059  11.687  22.783  0.00  0.00    +0.000 A 
ATOM      9  O   UNL     1      -2.830  12.196  23.592  0.00  0.00    +0.000 OA
ATOM     10  N   UNL     1      -2.089  11.899  21.414  0.00  0.00    +0.000 N 
ATOM     11  N   UNL     1      -1.188  11.336  20.531  0.00  0.00    +0.000 NA
ATOM     12  C   UNL     1       1.671   8.971  20.352  0.00  0.00    +0.000 C 
ENDROOT
BRANCH   1  15
ATOM     13  C   UNL     1       3.626   6.747  17.965  0.00  0.00    +0.000 C 
ATOM     14  O   UNL     1       4.398   7.543  17.435  0.00  0.00    +0.000 OA
ATOM     15  N   UNL     1       2.600   7.199  18.773  0.00  0.00    +0.000 N 
ATOM     16  H   UNL     1       1.916   6.509  19.061  0.00  0.00    +0.000 HD
BRANCH  13  22
ATOM     17  C   UNL     1       3.282   1.474  18.416  0.00  0.00    +0.000 C 
ATOM     18  C   UNL     1       3.573   2.873  17.996  0.00  0.00    +0.000 A 
ATOM     19  N   UNL     1       4.333   3.194  16.975  0.00  0.00    +0.000 NA
ATOM     20  C   UNL     1       4.425   4.575  16.853  0.00  0.00    +0.000 A 
ATOM     21  C   UNL     1       5.257   5.112  15.743  0.00  0.00    +0.000 C 
ATOM     22  C   UNL     1       3.716   5.300  17.803  0.00  0.00    +0.000 A 
ATOM     23  S   UNL     1       2.909   4.199  18.856  0.00  0.00    +0.000 S 
ENDBRANCH  13  22
ENDBRANCH   1  15
BRANCH  10  24
ATOM     24  C   UNL     1      -3.162  12.730  20.862  0.00  0.00    +0.000 C 
BRANCH  24  25
ATOM     25  C   UNL     1      -3.170  12.796  19.340  0.00  0.00    +0.000 C 
BRANCH  25  26
ATOM     26  O   UNL     1      -4.135  11.894  18.786  0.00  0.00    +0.000 OA
BRANCH  26  27
ATOM     27  C   UNL     1      -3.695  11.168  17.705  0.00  0.00    +0.000 A 
ATOM     28  C   UNL     1      -2.672  10.214  17.734  0.00  0.00    +0.000 A 
ATOM     29  C   UNL     1      -2.294   9.542  16.569  0.00  0.00    +0.000 A 
ATOM     30  C   UNL     1      -2.939   9.815  15.367  0.00  0.00    +0.000 A 
ATOM     31  C   UNL     1      -3.967  10.757  15.330  0.00  0.00    +0.000 A 
ATOM     32  C   UNL     1      -4.343  11.430  16.496  0.00  0.00    +0.000 A 
ENDBRANCH  26  27
ENDBRANCH  25  26
ENDBRANCH  24  25
ENDBRANCH  10  24
TORSDOF 6
ENDMDL
MODEL 9
REMARK VINA RESULT:      -7.5      3.128      4.777
REMARK  Name = 
REMARK  8 active torsions:
REMARK  status: ('A' for Active; 'I' for Inactive)
REMARK    1  A    between atoms: C_1  and  C_2
REMARK    2  A    between atoms: C_4  and  C_5
REMARK    3  A    between atoms: C_6  and  C_7
REMARK    4  A    between atoms: N_9  and  C_10
REMARK    5  A    between atoms: N_19  and  C_20
REMARK    6  A    between atoms: C_20  and  C_21
REMARK    7  A    between atoms: C_21  and  O_22
REMARK    8  A    between atoms: O_22  and  C_23
REMARK                            x       y       z     vdW  Elec       q    Type
REMARK                         _______ _______ _______ _____ _____    ______ ____
ROOT
ATOM      1  C   UNL     1      -0.896  11.170  22.520  0.00  0.00    +0.000 C 
ATOM      2  C   UNL     1      -0.678   9.823  23.203  0.00  0.00    +0.000 C 
ATOM      3  C   UNL     1       0.611   9.306  22.585  0.00  0.00    +0.000 C 
ATOM      4  N   UNL     1       0.532   9.755  21.202  0.00  0.00    +0.000 N 
ATOM      5  C   UNL     1       1.198   9.120  20.166  0.00  0.00    +0.000 A 
ATOM      6  C   UNL     1       1.143   9.669  18.782  0.00  0.00    +0.000 A 
ATOM      7  C   UNL     1       1.813   9.049  17.813  0.00  0.00    +0.000 A 
ATOM      8  C   UNL     1       2.579   7.823  18.091  0.00  0.00    +0.000 A 
ATOM      9  O   UNL     1       3.184   7.275  17.173  0.00  0.00    +0.000 OA
ATOM     10  N   UNL     1       2.532   7.365  19.398  0.00  0.00    +0.000 N 
ATOM     11  N   UNL     1       1.867   8.022  20.416  0.00  0.00    +0.000 NA
ATOM     12  C   UNL     1      -0.325  10.942  21.096  0.00  0.00    +0.000 C 
ENDROOT
BRANCH   1  15
ATOM     13  C   UNL     1      -2.759  12.835  22.340  0.00  0.00    +0.000 C 
ATOM     14  O   UNL     1      -1.982  13.712  21.972  0.00  0.00    +0.000 OA
ATOM     15  N   UNL     1      -2.303  11.553  22.584  0.00  0.00    +0.000 N 
ATOM     16  H   UNL     1      -2.959  10.916  23.020  0.00  0.00    +0.000 HD
BRANCH  13  22
ATOM     17  C   UNL     1      -7.612  13.759  24.270  0.00  0.00    +0.000 C 
ATOM     18  C   UNL     1      -6.427  13.468  23.415  0.00  0.00    +0.000 A 
ATOM     19  N   UNL     1      -6.492  13.188  22.135  0.00  0.00    +0.000 NA
ATOM     20  C   UNL     1      -5.222  12.946  21.626  0.00  0.00    +0.000 A 
ATOM     21  C   UNL     1      -5.115  12.608  20.181  0.00  0.00    +0.000 C 
ATOM     22  C   UNL     1      -4.186  13.049  22.546  0.00  0.00    +0.000 A 
ATOM     23  S   UNL     1      -4.847  13.477  24.081  0.00  0.00    +0.000 S 
ENDBRANCH  13  22
ENDBRANCH   1  15
BRANCH  10  24
ATOM     24  C   UNL     1       3.184   6.092  19.714  0.00  0.00    +0.000 C 
BRANCH  24  25
ATOM     25  C   UNL     1       2.495   4.878  19.102  0.00  0.00    +0.000 C 
BRANCH  25  26
ATOM     26  O   UNL     1       3.413   3.790  18.938  0.00  0.00    +0.000 OA
BRANCH  26  27
ATOM     27  C   UNL     1       4.433   4.023  18.046  0.00  0.00    +0.000 A 
ATOM     28  C   UNL     1       4.321   3.954  16.653  0.00  0.00    +0.000 A 
ATOM     29  C   UNL     1       5.431   4.198  15.839  0.00  0.00    +0.000 A 
ATOM     30  C   UNL     1       6.658   4.516  16.411  0.00  0.00    +0.000 A 
ATOM     31  C   UNL     1       6.777   4.596  17.797  0.00  0.00    +0.000 A 
ATOM     32  C   UNL     1       5.667   4.351  18.611  0.00  0.00    +0.000 A 
ENDBRANCH  26  27
ENDBRANCH  25  26
ENDBRANCH  24  25
ENDBRANCH  10  24
TORSDOF 6
ENDMDL
