MODEL 1
REMARK VINA RESULT:      -7.6      0.000      0.000
REMARK  Name = 
REMARK  12 active torsions:
REMARK  status: ('A' for Active; 'I' for Inactive)
REMARK    1  A    between atoms: C_1  and  C_2
REMARK    2  A    between atoms: C_2  and  O_3
REMARK    3  A    between atoms: O_3  and  C_4
REMARK    4  A    between atoms: C_4  and  C_6
REMARK    5  A    between atoms: C_6  and  N_7
REMARK    6  A    between atoms: N_10  and  C_11
REMARK    7  A    between atoms: C_11  and  C_12
REMARK    8  A    between atoms: C_14  and  C_15
REMARK    9  A    between atoms: N_16  and  C_17
REMARK   10  A    between atoms: C_20  and  O_21
REMARK   11  A    between atoms: O_21  and  C_22
REMARK   12  A    between atoms: C_25  and  C_26
REMARK                            x       y       z     vdW  Elec       q    Type
REMARK                         _______ _______ _______ _____ _____    ______ ____
ROOT
ATOM      1  C   UNL     1       4.997   4.877  18.169  0.00  0.00    +0.000 A 
ATOM      2  C   UNL     1       4.015   4.122  18.837  0.00  0.00    +0.000 A 
ATOM      3  C   UNL     1       2.960   4.952  19.160  0.00  0.00    +0.000 A 
ATOM      4  C   UNL     1       1.659   4.508  19.743  0.00  0.00    +0.000 C 
ATOM      5  N   UNL     1       3.269   6.251  18.734  0.00  0.00    +0.000 N 
ATOM      6  C   UNL     1       4.544   6.196  18.144  0.00  0.00    +0.000 A 
ATOM      7  C   UNL     1       5.320   7.361  17.625  0.00  0.00    +0.000 C 
ENDROOT
BRANCH   5   8
ATOM      8  C   UNL     1       2.420   7.406  18.856  0.00  0.00    +0.000 A 
ATOM      9  C   UNL     1       2.044   8.142  17.726  0.00  0.00    +0.000 A 
ATOM     10  C   UNL     1       1.246   9.285  17.847  0.00  0.00    +0.000 A 
ATOM     11  C   UNL     1       0.761   9.682  19.089  0.00  0.00    +0.000 A 
ATOM     12  C   UNL     1       1.126   8.960  20.223  0.00  0.00    +0.000 A 
ATOM     13  C   UNL     1       1.965   7.841  20.110  0.00  0.00    +0.000 A 
BRANCH  11  14
ATOM     14  O   UNL     1      -0.010  10.811  19.085  0.00  0.00    +0.000 OA
ATOM     15  C   UNL     1      -1.385  10.604  18.784  0.00  0.00    +0.000 C 
ENDBRANCH  11  14
ENDBRANCH   5   8
BRANCH   1  16
ATOM     16  C   UNL     1       6.260   4.336  17.579  0.00  0.00    +0.000 C 
BRANCH  16  20
ATOM     17  N   UNL     1       6.074   3.293  14.128  0.00  0.00    +0.000 N 
ATOM     18  C   UNL     1       6.279   4.146  15.171  0.00  0.00    +0.000 C 
ATOM     19  O   UNL     1       6.707   5.282  15.032  0.00  0.00    +0.000 OA
ATOM     20  N   UNL     1       5.964   3.590  16.380  0.00  0.00    +0.000 N 
ATOM     21  H   UNL     1       5.499   2.471  14.265  0.00  0.00    +0.000 HD
ATOM     22  H   UNL     1       5.958   2.584  16.448  0.00  0.00    +0.000 HD
BRANCH  17  23
ATOM     23  C   UNL     1       6.276   3.758  12.766  0.00  0.00    +0.000 C 
BRANCH  23  24
ATOM     24  C   UNL     1       5.401   2.996  11.787  0.00  0.00    +0.000 C 
ATOM     25  O   UNL     1       5.535   1.809  11.512  0.00  0.00    +0.000 OA
BRANCH  24  26
ATOM     26  O   UNL     1       4.495   3.845  11.227  0.00  0.00    +0.000 OA
BRANCH  26  28
ATOM     27  C   UNL     1       2.830   4.201   9.554  0.00  0.00    +0.000 C 
ATOM     28  C   UNL     1       3.380   3.221  10.574  0.00  0.00    +0.000 C 
ENDBRANCH  26  28
ENDBRANCH  24  26
ENDBRANCH  23  24
ENDBRANCH  17  23
ENDBRANCH  16  20
ENDBRANCH   1  16
TORSDOF 8
ENDMDL
MODEL 2
REMARK VINA RESULT:      -7.3      4.042      5.647
REMARK  Name = 
REMARK  12 active torsions:
REMARK  status: ('A' for Active; 'I' for Inactive)
REMARK    1  A    between atoms: C_1  and  C_2
REMARK    2  A    between atoms: C_2  and  O_3
REMARK    3  A    between atoms: O_3  and  C_4
REMARK    4  A    between atoms: C_4  and  C_6
REMARK    5  A    between atoms: C_6  and  N_7
REMARK    6  A    between atoms: N_10  and  C_11
REMARK    7  A    between atoms: C_11  and  C_12
REMARK    8  A    between atoms: C_14  and  C_15
REMARK    9  A    between atoms: N_16  and  C_17
REMARK   10  A    between atoms: C_20  and  O_21
REMARK   11  A    between atoms: O_21  and  C_22
REMARK   12  A    between atoms: C_25  and  C_26
REMARK                            x       y       z     vdW  Elec       q    Type
REMARK                         _______ _______ _______ _____ _____    ______ ____
ROOT
ATOM      1  C   UNL     1       1.882   7.197  19.899  0.00  0.00    +0.000 A 
ATOM      2  C   UNL     1       1.394   7.487  21.187  0.00  0.00    +0.000 A 
ATOM      3  C   UNL     1       0.898   8.776  21.195  0.00  0.00    +0.000 A 
ATOM      4  C   UNL     1       0.161   9.410  22.329  0.00  0.00    +0.000 C 
ATOM      5  N   UNL     1       1.094   9.335  19.926  0.00  0.00    +0.000 N 
ATOM      6  C   UNL     1       1.727   8.357  19.139  0.00  0.00    +0.000 A 
ATOM      7  C   UNL     1       2.209   8.536  17.738  0.00  0.00    +0.000 C 
ENDROOT
BRANCH   5   8
ATOM      8  C   UNL     1       0.692  10.653  19.511  0.00  0.00    +0.000 A 
ATOM      9  C   UNL     1       1.522  11.759  19.731  0.00  0.00    +0.000 A 
ATOM     10  C   UNL     1       1.118  13.045  19.357  0.00  0.00    +0.000 A 
ATOM     11  C   UNL     1      -0.095  13.245  18.705  0.00  0.00    +0.000 A 
ATOM     12  C   UNL     1      -0.932  12.155  18.478  0.00  0.00    +0.000 A 
ATOM     13  C   UNL     1      -0.550  10.870  18.895  0.00  0.00    +0.000 A 
BRANCH  11  14
ATOM     14  O   UNL     1      -0.383  14.543  18.386  0.00  0.00    +0.000 OA
ATOM     15  C   UNL     1       0.409  15.520  19.051  0.00  0.00    +0.000 C 
ENDBRANCH  11  14
ENDBRANCH   5   8
BRANCH   1  16
ATOM     16  C   UNL     1       2.426   5.879  19.450  0.00  0.00    +0.000 C 
BRANCH  16  20
ATOM     17  N   UNL     1       6.015   5.542  19.269  0.00  0.00    +0.000 N 
ATOM     18  C   UNL     1       4.727   5.485  18.830  0.00  0.00    +0.000 C 
ATOM     19  O   UNL     1       4.424   5.212  17.677  0.00  0.00    +0.000 OA
ATOM     20  N   UNL     1       3.818   5.772  19.810  0.00  0.00    +0.000 N 
ATOM     21  H   UNL     1       6.200   5.528  20.265  0.00  0.00    +0.000 HD
ATOM     22  H   UNL     1       4.136   6.309  20.603  0.00  0.00    +0.000 HD
BRANCH  17  23
ATOM     23  C   UNL     1       7.099   5.176  18.374  0.00  0.00    +0.000 C 
BRANCH  23  24
ATOM     24  C   UNL     1       7.515   6.348  17.502  0.00  0.00    +0.000 C 
ATOM     25  O   UNL     1       7.495   6.345  16.277  0.00  0.00    +0.000 OA
BRANCH  24  26
ATOM     26  O   UNL     1       7.963   7.366  18.288  0.00  0.00    +0.000 OA
BRANCH  26  28
ATOM     27  C   UNL     1       8.767   9.599  18.541  0.00  0.00    +0.000 C 
ATOM     28  C   UNL     1       7.903   8.675  17.703  0.00  0.00    +0.000 C 
ENDBRANCH  26  28
ENDBRANCH  24  26
ENDBRANCH  23  24
ENDBRANCH  17  23
ENDBRANCH  16  20
ENDBRANCH   1  16
TORSDOF 8
ENDMDL
MODEL 3
REMARK VINA RESULT:      -7.2      2.853      4.859
REMARK  Name = 
REMARK  12 active torsions:
REMARK  status: ('A' for Active; 'I' for Inactive)
REMARK    1  A    between atoms: C_1  and  C_2
REMARK    2  A    between atoms: C_2  and  O_3
REMARK    3  A    between atoms: O_3  and  C_4
REMARK    4  A    between atoms: C_4  and  C_6
REMARK    5  A    between atoms: C_6  and  N_7
REMARK    6  A    between atoms: N_10  and  C_11
REMARK    7  A    between atoms: C_11  and  C_12
REMARK    8  A    between atoms: C_14  and  C_15
REMARK    9  A    between atoms: N_16  and  C_17
REMARK   10  A    between atoms: C_20  and  O_21
REMARK   11  A    between atoms: O_21  and  C_22
REMARK   12  A    between atoms: C_25  and  C_26
REMARK                            x       y       z     vdW  Elec       q    Type
REMARK                         _______ _______ _______ _____ _____    ______ ____
ROOT
ATOM      1  C   UNL     1       1.913   7.217  19.914  0.00  0.00    +0.000 A 
ATOM      2  C   UNL     1       1.403   7.492  21.196  0.00  0.00    +0.000 A 
ATOM      3  C   UNL     1       0.895   8.776  21.207  0.00  0.00    +0.000 A 
ATOM      4  C   UNL     1       0.135   9.395  22.333  0.00  0.00    +0.000 C 
ATOM      5  N   UNL     1       1.105   9.348  19.945  0.00  0.00    +0.000 N 
ATOM      6  C   UNL     1       1.759   8.381  19.160  0.00  0.00    +0.000 A 
ATOM      7  C   UNL     1       2.261   8.576  17.768  0.00  0.00    +0.000 C 
ENDROOT
BRANCH   5   8
ATOM      8  C   UNL     1       0.696  10.665  19.533  0.00  0.00    +0.000 A 
ATOM      9  C   UNL     1       1.505  11.779  19.791  0.00  0.00    +0.000 A 
ATOM     10  C   UNL     1       1.094  13.064  19.420  0.00  0.00    +0.000 A 
ATOM     11  C   UNL     1      -0.102  13.256  18.736  0.00  0.00    +0.000 A 
ATOM     12  C   UNL     1      -0.917  12.157  18.472  0.00  0.00    +0.000 A 
ATOM     13  C   UNL     1      -0.530  10.873  18.885  0.00  0.00    +0.000 A 
BRANCH  11  14
ATOM     14  O   UNL     1      -0.399  14.553  18.424  0.00  0.00    +0.000 OA
ATOM     15  C   UNL     1      -0.508  15.434  19.536  0.00  0.00    +0.000 C 
ENDBRANCH  11  14
ENDBRANCH   5   8
BRANCH   1  16
ATOM     16  C   UNL     1       2.476   5.907  19.463  0.00  0.00    +0.000 C 
BRANCH  16  20
ATOM     17  N   UNL     1       6.030   5.660  18.885  0.00  0.00    +0.000 N 
ATOM     18  C   UNL     1       4.703   5.506  18.618  0.00  0.00    +0.000 C 
ATOM     19  O   UNL     1       4.279   5.075  17.555  0.00  0.00    +0.000 OA
ATOM     20  N   UNL     1       3.904   5.891  19.659  0.00  0.00    +0.000 N 
ATOM     21  H   UNL     1       6.333   5.783  19.843  0.00  0.00    +0.000 HD
ATOM     22  H   UNL     1       4.288   6.537  20.332  0.00  0.00    +0.000 HD
BRANCH  17  23
ATOM     23  C   UNL     1       7.017   5.214  17.916  0.00  0.00    +0.000 C 
BRANCH  23  24
ATOM     24  C   UNL     1       7.331   6.302  16.905  0.00  0.00    +0.000 C 
ATOM     25  O   UNL     1       7.619   7.457  17.194  0.00  0.00    +0.000 OA
BRANCH  24  26
ATOM     26  O   UNL     1       7.184   5.810  15.643  0.00  0.00    +0.000 OA
BRANCH  26  28
ATOM     27  C   UNL     1       6.026   4.109  14.435  0.00  0.00    +0.000 C 
ATOM     28  C   UNL     1       7.020   4.387  15.547  0.00  0.00    +0.000 C 
ENDBRANCH  26  28
ENDBRANCH  24  26
ENDBRANCH  23  24
ENDBRANCH  17  23
ENDBRANCH  16  20
ENDBRANCH   1  16
TORSDOF 8
ENDMDL
MODEL 4
REMARK VINA RESULT:      -7.1      2.855      8.514
REMARK  Name = 
REMARK  12 active torsions:
REMARK  status: ('A' for Active; 'I' for Inactive)
REMARK    1  A    between atoms: C_1  and  C_2
REMARK    2  A    between atoms: C_2  and  O_3
REMARK    3  A    between atoms: O_3  and  C_4
REMARK    4  A    between atoms: C_4  and  C_6
REMARK    5  A    between atoms: C_6  and  N_7
REMARK    6  A    between atoms: N_10  and  C_11
REMARK    7  A    between atoms: C_11  and  C_12
REMARK    8  A    between atoms: C_14  and  C_15
REMARK    9  A    between atoms: N_16  and  C_17
REMARK   10  A    between atoms: C_20  and  O_21
REMARK   11  A    between atoms: O_21  and  C_22
REMARK   12  A    between atoms: C_25  and  C_26
REMARK                            x       y       z     vdW  Elec       q    Type
REMARK                         _______ _______ _______ _____ _____    ______ ____
ROOT
ATOM      1  C   UNL     1       1.501   8.152  20.244  0.00  0.00    +0.000 A 
ATOM      2  C   UNL     1       1.365   6.997  21.036  0.00  0.00    +0.000 A 
ATOM      3  C   UNL     1       2.078   5.970  20.452  0.00  0.00    +0.000 A 
ATOM      4  C   UNL     1       2.307   4.624  21.058  0.00  0.00    +0.000 C 
ATOM      5  N   UNL     1       2.649   6.445  19.264  0.00  0.00    +0.000 N 
ATOM      6  C   UNL     1       2.264   7.791  19.133  0.00  0.00    +0.000 A 
ATOM      7  C   UNL     1       2.567   8.680  17.972  0.00  0.00    +0.000 C 
ENDROOT
BRANCH   5   8
ATOM      8  C   UNL     1       3.493   5.695  18.372  0.00  0.00    +0.000 A 
ATOM      9  C   UNL     1       2.962   4.681  17.565  0.00  0.00    +0.000 A 
ATOM     10  C   UNL     1       3.787   3.930  16.721  0.00  0.00    +0.000 A 
ATOM     11  C   UNL     1       5.145   4.212  16.623  0.00  0.00    +0.000 A 
ATOM     12  C   UNL     1       5.689   5.218  17.418  0.00  0.00    +0.000 A 
ATOM     13  C   UNL     1       4.872   5.942  18.300  0.00  0.00    +0.000 A 
BRANCH  11  14
ATOM     14  O   UNL     1       5.850   3.415  15.765  0.00  0.00    +0.000 OA
ATOM     15  C   UNL     1       6.020   3.938  14.453  0.00  0.00    +0.000 C 
ENDBRANCH  11  14
ENDBRANCH   5   8
BRANCH   1  16
ATOM     16  C   UNL     1       0.951   9.503  20.571  0.00  0.00    +0.000 C 
BRANCH  16  20
ATOM     17  N   UNL     1      -1.954  10.463  18.655  0.00  0.00    +0.000 N 
ATOM     18  C   UNL     1      -0.677  10.546  19.122  0.00  0.00    +0.000 C 
ATOM     19  O   UNL     1       0.134  11.364  18.712  0.00  0.00    +0.000 OA
ATOM     20  N   UNL     1      -0.403   9.615  20.085  0.00  0.00    +0.000 N 
ATOM     21  H   UNL     1      -2.644   9.946  19.186  0.00  0.00    +0.000 HD
ATOM     22  H   UNL     1      -0.977   8.786  20.115  0.00  0.00    +0.000 HD
BRANCH  17  23
ATOM     23  C   UNL     1      -2.434  11.438  17.690  0.00  0.00    +0.000 C 
BRANCH  23  24
ATOM     24  C   UNL     1      -3.886  11.186  17.326  0.00  0.00    +0.000 C 
ATOM     25  O   UNL     1      -4.766  10.902  18.131  0.00  0.00    +0.000 OA
BRANCH  24  26
ATOM     26  O   UNL     1      -4.039  11.268  15.975  0.00  0.00    +0.000 OA
BRANCH  26  28
ATOM     27  C   UNL     1      -3.573   9.945  14.043  0.00  0.00    +0.000 C 
ATOM     28  C   UNL     1      -2.964  10.725  15.194  0.00  0.00    +0.000 C 
ENDBRANCH  26  28
ENDBRANCH  24  26
ENDBRANCH  23  24
ENDBRANCH  17  23
ENDBRANCH  16  20
ENDBRANCH   1  16
TORSDOF 8
ENDMDL
MODEL 5
REMARK VINA RESULT:      -7.0      2.743      8.805
REMARK  Name = 
REMARK  12 active torsions:
REMARK  status: ('A' for Active; 'I' for Inactive)
REMARK    1  A    between atoms: C_1  and  C_2
REMARK    2  A    between atoms: C_2  and  O_3
REMARK    3  A    between atoms: O_3  and  C_4
REMARK    4  A    between atoms: C_4  and  C_6
REMARK    5  A    between atoms: C_6  and  N_7
REMARK    6  A    between atoms: N_10  and  C_11
REMARK    7  A    between atoms: C_11  and  C_12
REMARK    8  A    between atoms: C_14  and  C_15
REMARK    9  A    between atoms: N_16  and  C_17
REMARK   10  A    between atoms: C_20  and  O_21
REMARK   11  A    between atoms: O_21  and  C_22
REMARK   12  A    between atoms: C_25  and  C_26
REMARK                            x       y       z     vdW  Elec       q    Type
REMARK                         _______ _______ _______ _____ _____    ______ ____
ROOT
ATOM      1  C   UNL     1       2.215   5.513  20.169  0.00  0.00    +0.000 A 
ATOM      2  C   UNL     1       2.693   4.225  20.472  0.00  0.00    +0.000 A 
ATOM      3  C   UNL     1       3.727   3.920  19.610  0.00  0.00    +0.000 A 
ATOM      4  C   UNL     1       4.596   2.708  19.697  0.00  0.00    +0.000 C 
ATOM      5  N   UNL     1       3.899   4.993  18.725  0.00  0.00    +0.000 N 
ATOM      6  C   UNL     1       2.940   5.963  19.065  0.00  0.00    +0.000 A 
ATOM      7  C   UNL     1       2.691   7.242  18.337  0.00  0.00    +0.000 C 
ENDROOT
BRANCH   5   8
ATOM      8  C   UNL     1       4.893   5.084  17.688  0.00  0.00    +0.000 A 
ATOM      9  C   UNL     1       4.698   4.459  16.450  0.00  0.00    +0.000 A 
ATOM     10  C   UNL     1       5.677   4.520  15.453  0.00  0.00    +0.000 A 
ATOM     11  C   UNL     1       6.844   5.252  15.650  0.00  0.00    +0.000 A 
ATOM     12  C   UNL     1       7.053   5.880  16.875  0.00  0.00    +0.000 A 
ATOM     13  C   UNL     1       6.092   5.781  17.895  0.00  0.00    +0.000 A 
BRANCH  11  14
ATOM     14  O   UNL     1       7.727   5.241  14.606  0.00  0.00    +0.000 OA
ATOM     15  C   UNL     1       7.194   4.791  13.366  0.00  0.00    +0.000 C 
ENDBRANCH  11  14
ENDBRANCH   5   8
BRANCH   1  16
ATOM     16  C   UNL     1       1.154   6.249  20.923  0.00  0.00    +0.000 C 
BRANCH  16  20
ATOM     17  N   UNL     1       1.112   9.768  21.724  0.00  0.00    +0.000 N 
ATOM     18  C   UNL     1       0.594   8.545  21.421  0.00  0.00    +0.000 C 
ATOM     19  O   UNL     1      -0.605   8.309  21.419  0.00  0.00    +0.000 OA
ATOM     20  N   UNL     1       1.556   7.618  21.130  0.00  0.00    +0.000 N 
ATOM     21  H   UNL     1       2.073   9.975  21.476  0.00  0.00    +0.000 HD
ATOM     22  H   UNL     1       2.487   7.781  21.483  0.00  0.00    +0.000 HD
BRANCH  17  23
ATOM     23  C   UNL     1       0.221  10.889  21.970  0.00  0.00    +0.000 C 
BRANCH  23  24
ATOM     24  C   UNL     1       0.544  12.062  21.062  0.00  0.00    +0.000 C 
ATOM     25  O   UNL     1       1.021  13.125  21.442  0.00  0.00    +0.000 OA
BRANCH  24  26
ATOM     26  O   UNL     1       0.169  11.769  19.786  0.00  0.00    +0.000 OA
BRANCH  26  28
ATOM     27  C   UNL     1      -1.340  10.376  18.569  0.00  0.00    +0.000 C 
ATOM     28  C   UNL     1      -1.225  11.487  19.597  0.00  0.00    +0.000 C 
ENDBRANCH  26  28
ENDBRANCH  24  26
ENDBRANCH  23  24
ENDBRANCH  17  23
ENDBRANCH  16  20
ENDBRANCH   1  16
TORSDOF 8
ENDMDL
MODEL 6
REMARK VINA RESULT:      -7.0      2.725      4.906
REMARK  Name = 
REMARK  12 active torsions:
REMARK  status: ('A' for Active; 'I' for Inactive)
REMARK    1  A    between atoms: C_1  and  C_2
REMARK    2  A    between atoms: C_2  and  O_3
REMARK    3  A    between atoms: O_3  and  C_4
REMARK    4  A    between atoms: C_4  and  C_6
REMARK    5  A    between atoms: C_6  and  N_7
REMARK    6  A    between atoms: N_10  and  C_11
REMARK    7  A    between atoms: C_11  and  C_12
REMARK    8  A    between atoms: C_14  and  C_15
REMARK    9  A    between atoms: N_16  and  C_17
REMARK   10  A    between atoms: C_20  and  O_21
REMARK   11  A    between atoms: O_21  and  C_22
REMARK   12  A    between atoms: C_25  and  C_26
REMARK                            x       y       z     vdW  Elec       q    Type
REMARK                         _______ _______ _______ _____ _____    ______ ____
ROOT
ATOM      1  C   UNL     1       1.794   7.511  19.975  0.00  0.00    +0.000 A 
ATOM      2  C   UNL     1       1.327   7.804  21.270  0.00  0.00    +0.000 A 
ATOM      3  C   UNL     1       0.881   9.110  21.298  0.00  0.00    +0.000 A 
ATOM      4  C   UNL     1       0.177   9.758  22.444  0.00  0.00    +0.000 C 
ATOM      5  N   UNL     1       1.090   9.678  20.034  0.00  0.00    +0.000 N 
ATOM      6  C   UNL     1       1.679   8.686  19.230  0.00  0.00    +0.000 A 
ATOM      7  C   UNL     1       2.159   8.864  17.828  0.00  0.00    +0.000 C 
ENDROOT
BRANCH   5   8
ATOM      8  C   UNL     1       0.736  11.015  19.638  0.00  0.00    +0.000 A 
ATOM      9  C   UNL     1      -0.423  11.258  18.891  0.00  0.00    +0.000 A 
ATOM     10  C   UNL     1      -0.752  12.554  18.477  0.00  0.00    +0.000 A 
ATOM     11  C   UNL     1       0.038  13.638  18.848  0.00  0.00    +0.000 A 
ATOM     12  C   UNL     1       1.194  13.412  19.592  0.00  0.00    +0.000 A 
ATOM     13  C   UNL     1       1.551  12.108  19.968  0.00  0.00    +0.000 A 
BRANCH  11  14
ATOM     14  O   UNL     1      -0.381  14.855  18.388  0.00  0.00    +0.000 OA
ATOM     15  C   UNL     1      -0.448  15.883  19.370  0.00  0.00    +0.000 C 
ENDBRANCH  11  14
ENDBRANCH   5   8
BRANCH   1  16
ATOM     16  C   UNL     1       2.284   6.179  19.506  0.00  0.00    +0.000 C 
BRANCH  16  20
ATOM     17  N   UNL     1       5.785   5.683  18.780  0.00  0.00    +0.000 N 
ATOM     18  C   UNL     1       4.439   5.570  18.600  0.00  0.00    +0.000 C 
ATOM     19  O   UNL     1       3.937   5.048  17.616  0.00  0.00    +0.000 OA
ATOM     20  N   UNL     1       3.719   6.110  19.630  0.00  0.00    +0.000 N 
ATOM     21  H   UNL     1       6.146   5.895  19.702  0.00  0.00    +0.000 HD
ATOM     22  H   UNL     1       4.170   6.805  20.205  0.00  0.00    +0.000 HD
BRANCH  17  23
ATOM     23  C   UNL     1       6.694   5.081  17.819  0.00  0.00    +0.000 C 
BRANCH  23  24
ATOM     24  C   UNL     1       7.090   6.070  16.738  0.00  0.00    +0.000 C 
ATOM     25  O   UNL     1       7.727   7.098  16.936  0.00  0.00    +0.000 OA
BRANCH  24  26
ATOM     26  O   UNL     1       6.581   5.667  15.541  0.00  0.00    +0.000 OA
BRANCH  26  28
ATOM     27  C   UNL     1       6.044   4.009  13.910  0.00  0.00    +0.000 C 
ATOM     28  C   UNL     1       6.631   4.256  15.287  0.00  0.00    +0.000 C 
ENDBRANCH  26  28
ENDBRANCH  24  26
ENDBRANCH  23  24
ENDBRANCH  17  23
ENDBRANCH  16  20
ENDBRANCH   1  16
TORSDOF 8
ENDMDL
MODEL 7
REMARK VINA RESULT:      -6.9      3.024      8.590
REMARK  Name = 
REMARK  12 active torsions:
REMARK  status: ('A' for Active; 'I' for Inactive)
REMARK    1  A    between atoms: C_1  and  C_2
REMARK    2  A    between atoms: C_2  and  O_3
REMARK    3  A    between atoms: O_3  and  C_4
REMARK    4  A    between atoms: C_4  and  C_6
REMARK    5  A    between atoms: C_6  and  N_7
REMARK    6  A    between atoms: N_10  and  C_11
REMARK    7  A    between atoms: C_11  and  C_12
REMARK    8  A    between atoms: C_14  and  C_15
REMARK    9  A    between atoms: N_16  and  C_17
REMARK   10  A    between atoms: C_20  and  O_21
REMARK   11  A    between atoms: O_21  and  C_22
REMARK   12  A    between atoms: C_25  and  C_26
REMARK                            x       y       z     vdW  Elec       q    Type
REMARK                         _______ _______ _______ _____ _____    ______ ____
ROOT
ATOM      1  C   UNL     1       1.474   8.134  20.292  0.00  0.00    +0.000 A 
ATOM      2  C   UNL     1       1.376   6.959  21.060  0.00  0.00    +0.000 A 
ATOM      3  C   UNL     1       2.059   5.947  20.416  0.00  0.00    +0.000 A 
ATOM      4  C   UNL     1       2.315   4.586  20.975  0.00  0.00    +0.000 C 
ATOM      5  N   UNL     1       2.572   6.452  19.214  0.00  0.00    +0.000 N 
ATOM      6  C   UNL     1       2.182   7.801  19.136  0.00  0.00    +0.000 A 
ATOM      7  C   UNL     1       2.429   8.720  17.986  0.00  0.00    +0.000 C 
ENDROOT
BRANCH   5   8
ATOM      8  C   UNL     1       3.371   5.726  18.263  0.00  0.00    +0.000 A 
ATOM      9  C   UNL     1       4.580   6.253  17.791  0.00  0.00    +0.000 A 
ATOM     10  C   UNL     1       5.341   5.562  16.842  0.00  0.00    +0.000 A 
ATOM     11  C   UNL     1       4.941   4.309  16.388  0.00  0.00    +0.000 A 
ATOM     12  C   UNL     1       3.742   3.772  16.849  0.00  0.00    +0.000 A 
ATOM     13  C   UNL     1       2.952   4.483  17.765  0.00  0.00    +0.000 A 
BRANCH  11  14
ATOM     14  O   UNL     1       5.765   3.729  15.464  0.00  0.00    +0.000 OA
ATOM     15  C   UNL     1       6.796   4.570  14.959  0.00  0.00    +0.000 C 
ENDBRANCH  11  14
ENDBRANCH   5   8
BRANCH   1  16
ATOM     16  C   UNL     1       0.942   9.476  20.679  0.00  0.00    +0.000 C 
BRANCH  16  20
ATOM     17  N   UNL     1      -1.901  10.583  18.751  0.00  0.00    +0.000 N 
ATOM     18  C   UNL     1      -0.632  10.617  19.246  0.00  0.00    +0.000 C 
ATOM     19  O   UNL     1       0.204  11.433  18.888  0.00  0.00    +0.000 OA
ATOM     20  N   UNL     1      -0.399   9.640  20.173  0.00  0.00    +0.000 N 
ATOM     21  H   UNL     1      -2.613  10.060  19.246  0.00  0.00    +0.000 HD
ATOM     22  H   UNL     1      -0.992   8.824  20.156  0.00  0.00    +0.000 HD
BRANCH  17  23
ATOM     23  C   UNL     1      -2.340  11.610  17.820  0.00  0.00    +0.000 C 
BRANCH  23  24
ATOM     24  C   UNL     1      -3.835  11.526  17.571  0.00  0.00    +0.000 C 
ATOM     25  O   UNL     1      -4.692  11.988  18.315  0.00  0.00    +0.000 OA
BRANCH  24  26
ATOM     26  O   UNL     1      -4.070  10.815  16.433  0.00  0.00    +0.000 OA
BRANCH  26  28
ATOM     27  C   UNL     1      -3.093   9.767  14.524  0.00  0.00    +0.000 C 
ATOM     28  C   UNL     1      -3.139  11.031  15.362  0.00  0.00    +0.000 C 
ENDBRANCH  26  28
ENDBRANCH  24  26
ENDBRANCH  23  24
ENDBRANCH  17  23
ENDBRANCH  16  20
ENDBRANCH   1  16
TORSDOF 8
ENDMDL
MODEL 8
REMARK VINA RESULT:      -6.9      1.122      1.711
REMARK  Name = 
REMARK  12 active torsions:
REMARK  status: ('A' for Active; 'I' for Inactive)
REMARK    1  A    between atoms: C_1  and  C_2
REMARK    2  A    between atoms: C_2  and  O_3
REMARK    3  A    between atoms: O_3  and  C_4
REMARK    4  A    between atoms: C_4  and  C_6
REMARK    5  A    between atoms: C_6  and  N_7
REMARK    6  A    between atoms: N_10  and  C_11
REMARK    7  A    between atoms: C_11  and  C_12
REMARK    8  A    between atoms: C_14  and  C_15
REMARK    9  A    between atoms: N_16  and  C_17
REMARK   10  A    between atoms: C_20  and  O_21
REMARK   11  A    between atoms: O_21  and  C_22
REMARK   12  A    between atoms: C_25  and  C_26
REMARK                            x       y       z     vdW  Elec       q    Type
REMARK                         _______ _______ _______ _____ _____    ______ ____
ROOT
ATOM      1  C   UNL     1       5.168   4.843  17.550  0.00  0.00    +0.000 A 
ATOM      2  C   UNL     1       4.081   4.003  17.852  0.00  0.00    +0.000 A 
ATOM      3  C   UNL     1       3.016   4.783  18.259  0.00  0.00    +0.000 A 
ATOM      4  C   UNL     1       1.635   4.285  18.529  0.00  0.00    +0.000 C 
ATOM      5  N   UNL     1       3.421   6.124  18.255  0.00  0.00    +0.000 N 
ATOM      6  C   UNL     1       4.764   6.146  17.838  0.00  0.00    +0.000 A 
ATOM      7  C   UNL     1       5.639   7.354  17.766  0.00  0.00    +0.000 C 
ENDROOT
BRANCH   5   8
ATOM      8  C   UNL     1       2.599   7.257  18.588  0.00  0.00    +0.000 A 
ATOM      9  C   UNL     1       2.264   8.209  17.618  0.00  0.00    +0.000 A 
ATOM     10  C   UNL     1       1.491   9.329  17.948  0.00  0.00    +0.000 A 
ATOM     11  C   UNL     1       0.992   9.490  19.236  0.00  0.00    +0.000 A 
ATOM     12  C   UNL     1       1.316   8.551  20.212  0.00  0.00    +0.000 A 
ATOM     13  C   UNL     1       2.130   7.452  19.895  0.00  0.00    +0.000 A 
BRANCH  11  14
ATOM     14  O   UNL     1       0.249  10.619  19.441  0.00  0.00    +0.000 OA
ATOM     15  C   UNL     1       0.819  11.565  20.338  0.00  0.00    +0.000 C 
ENDBRANCH  11  14
ENDBRANCH   5   8
BRANCH   1  16
ATOM     16  C   UNL     1       6.484   4.399  16.995  0.00  0.00    +0.000 C 
BRANCH  16  20
ATOM     17  N   UNL     1       6.293   3.139  13.618  0.00  0.00    +0.000 N 
ATOM     18  C   UNL     1       6.381   4.076  14.603  0.00  0.00    +0.000 C 
ATOM     19  O   UNL     1       6.546   5.266  14.382  0.00  0.00    +0.000 OA
ATOM     20  N   UNL     1       6.274   3.539  15.856  0.00  0.00    +0.000 N 
ATOM     21  H   UNL     1       5.917   2.224  13.835  0.00  0.00    +0.000 HD
ATOM     22  H   UNL     1       6.487   2.559  15.968  0.00  0.00    +0.000 HD
BRANCH  17  23
ATOM     23  C   UNL     1       6.299   3.555  12.225  0.00  0.00    +0.000 C 
BRANCH  23  24
ATOM     24  C   UNL     1       5.224   2.836  11.429  0.00  0.00    +0.000 C 
ATOM     25  O   UNL     1       4.021   3.041  11.541  0.00  0.00    +0.000 OA
BRANCH  24  26
ATOM     26  O   UNL     1       5.800   1.899  10.626  0.00  0.00    +0.000 OA
BRANCH  26  28
ATOM     27  C   UNL     1       6.003  -0.390  11.274  0.00  0.00    +0.000 C 
ATOM     28  C   UNL     1       6.676   0.971  11.284  0.00  0.00    +0.000 C 
ENDBRANCH  26  28
ENDBRANCH  24  26
ENDBRANCH  23  24
ENDBRANCH  17  23
ENDBRANCH  16  20
ENDBRANCH   1  16
TORSDOF 8
ENDMDL
MODEL 9
REMARK VINA RESULT:      -6.7      1.977      3.467
REMARK  Name = 
REMARK  12 active torsions:
REMARK  status: ('A' for Active; 'I' for Inactive)
REMARK    1  A    between atoms: C_1  and  C_2
REMARK    2  A    between atoms: C_2  and  O_3
REMARK    3  A    between atoms: O_3  and  C_4
REMARK    4  A    between atoms: C_4  and  C_6
REMARK    5  A    between atoms: C_6  and  N_7
REMARK    6  A    between atoms: N_10  and  C_11
REMARK    7  A    between atoms: C_11  and  C_12
REMARK    8  A    between atoms: C_14  and  C_15
REMARK    9  A    between atoms: N_16  and  C_17
REMARK   10  A    between atoms: C_20  and  O_21
REMARK   11  A    between atoms: O_21  and  C_22
REMARK   12  A    between atoms: C_25  and  C_26
REMARK                            x       y       z     vdW  Elec       q    Type
REMARK                         _______ _______ _______ _____ _____    ______ ____
ROOT
ATOM      1  C   UNL     1       2.719   5.635  18.890  0.00  0.00    +0.000 A 
ATOM      2  C   UNL     1       2.903   6.639  17.922  0.00  0.00    +0.000 A 
ATOM      3  C   UNL     1       2.383   7.823  18.404  0.00  0.00    +0.000 A 
ATOM      4  C   UNL     1       2.510   9.155  17.742  0.00  0.00    +0.000 C 
ATOM      5  N   UNL     1       1.831   7.584  19.669  0.00  0.00    +0.000 N 
ATOM      6  C   UNL     1       2.022   6.219  19.949  0.00  0.00    +0.000 A 
ATOM      7  C   UNL     1       1.518   5.491  21.151  0.00  0.00    +0.000 C 
ENDROOT
BRANCH   5   8
ATOM      8  C   UNL     1       1.214   8.564  20.523  0.00  0.00    +0.000 A 
ATOM      9  C   UNL     1       1.499   8.602  21.894  0.00  0.00    +0.000 A 
ATOM     10  C   UNL     1       0.876   9.533  22.731  0.00  0.00    +0.000 A 
ATOM     11  C   UNL     1       0.000  10.480  22.209  0.00  0.00    +0.000 A 
ATOM     12  C   UNL     1      -0.293  10.456  20.848  0.00  0.00    +0.000 A 
ATOM     13  C   UNL     1       0.295   9.493  20.014  0.00  0.00    +0.000 A 
BRANCH  11  14
ATOM     14  O   UNL     1      -0.546  11.340  23.121  0.00  0.00    +0.000 OA
ATOM     15  C   UNL     1      -1.956  11.510  23.024  0.00  0.00    +0.000 C 
ENDBRANCH  11  14
ENDBRANCH   5   8
BRANCH   1  16
ATOM     16  C   UNL     1       3.214   4.228  18.792  0.00  0.00    +0.000 C 
BRANCH  16  20
ATOM     17  N   UNL     1       5.538   3.817  16.060  0.00  0.00    +0.000 N 
ATOM     18  C   UNL     1       5.111   4.199  17.296  0.00  0.00    +0.000 C 
ATOM     19  O   UNL     1       5.854   4.670  18.145  0.00  0.00    +0.000 OA
ATOM     20  N   UNL     1       3.772   3.992  17.483  0.00  0.00    +0.000 N 
ATOM     21  H   UNL     1       4.858   3.668  15.324  0.00  0.00    +0.000 HD
ATOM     22  H   UNL     1       3.317   3.306  16.900  0.00  0.00    +0.000 HD
BRANCH  17  23
ATOM     23  C   UNL     1       6.917   4.052  15.668  0.00  0.00    +0.000 C 
BRANCH  23  24
ATOM     24  C   UNL     1       7.000   4.701  14.299  0.00  0.00    +0.000 C 
ATOM     25  O   UNL     1       7.871   5.491  13.954  0.00  0.00    +0.000 OA
BRANCH  24  26
ATOM     26  O   UNL     1       5.933   4.314  13.545  0.00  0.00    +0.000 OA
BRANCH  26  28
ATOM     27  C   UNL     1       4.940   3.172  11.699  0.00  0.00    +0.000 C 
ATOM     28  C   UNL     1       6.231   3.430  12.454  0.00  0.00    +0.000 C 
ENDBRANCH  26  28
ENDBRANCH  24  26
ENDBRANCH  23  24
ENDBRANCH  17  23
ENDBRANCH  16  20
ENDBRANCH   1  16
TORSDOF 8
ENDMDL
