MODEL 1
REMARK VINA RESULT:      -7.5      0.000      0.000
REMARK  Name = 
REMARK  6 active torsions:
REMARK  status: ('A' for Active; 'I' for Inactive)
REMARK    1  A    between atoms: C_1  and  N_2
REMARK    2  A    between atoms: C_7  and  C_8
REMARK    3  A    between atoms: C_8  and  N_9
REMARK    4  A    between atoms: C_12  and  O_13
REMARK    5  A    between atoms: C_12  and  C_14
REMARK    6  A    between atoms: C_14  and  C_15
REMARK                            x       y       z     vdW  Elec       q    Type
REMARK                         _______ _______ _______ _____ _____    ______ ____
ROOT
ATOM      1  N   UNL     1       5.600   5.406  18.068  0.00  0.00    +0.000 NA
ATOM      2  C   UNL     1       4.572   5.249  17.042  0.00  0.00    +0.000 C 
ATOM      3  C   UNL     1       5.052   5.168  15.590  0.00  0.00    +0.000 C 
ATOM      4  C   UNL     1       6.295   4.289  15.393  0.00  0.00    +0.000 C 
ATOM      5  C   UNL     1       7.359   4.670  16.422  0.00  0.00    +0.000 C 
ATOM      6  C   UNL     1       6.849   4.697  17.856  0.00  0.00    +0.000 C 
ENDROOT
BRANCH   4   7
ATOM      7  O   UNL     1       5.925   2.920  15.589  0.00  0.00    +0.000 OA
ATOM      8  H   UNL     1       6.445   2.371  14.975  0.00  0.00    +0.000 HD
ENDBRANCH   4   7
BRANCH   1   9
ATOM      9  C   UNL     1       5.101   5.261  19.456  0.00  0.00    +0.000 C 
BRANCH   9  16
ATOM     10  C   UNL     1       2.322   6.939  19.752  0.00  0.00    +0.000 C 
ATOM     11  N   UNL     1       2.525   5.500  19.772  0.00  0.00    +0.000 N 
ATOM     12  N   UNL     1       1.429   4.744  19.889  0.00  0.00    +0.000 NA
ATOM     13  C   UNL     1       1.862   3.502  19.779  0.00  0.00    +0.000 A 
ATOM     14  C   UNL     1       3.248   3.451  19.597  0.00  0.00    +0.000 A 
ATOM     15 CL   UNL     1       4.142   2.016  19.375  0.00  0.00    +0.000 Cl
ATOM     16  C   UNL     1       3.693   4.760  19.630  0.00  0.00    +0.000 A 
ENDBRANCH   9  16
ENDBRANCH   1   9
BRANCH   4  17
ATOM     17  C   UNL     1       6.831   4.492  13.950  0.00  0.00    +0.000 C 
BRANCH  17  18
ATOM     18  C   UNL     1       6.121   3.723  12.856  0.00  0.00    +0.000 A 
ATOM     19  C   UNL     1       4.823   4.080  12.451  0.00  0.00    +0.000 A 
ATOM     20  C   UNL     1       4.137   3.323  11.497  0.00  0.00    +0.000 A 
ATOM     21  C   UNL     1       4.746   2.208  10.927  0.00  0.00    +0.000 A 
ATOM     22  C   UNL     1       6.044   1.876  11.298  0.00  0.00    +0.000 A 
ATOM     23  F   UNL     1       6.636   0.813  10.738  0.00  0.00    +0.000 F 
ATOM     24  C   UNL     1       6.735   2.620  12.250  0.00  0.00    +0.000 A 
ENDBRANCH  17  18
ENDBRANCH   4  17
TORSDOF 5
ENDMDL
MODEL 2
REMARK VINA RESULT:      -7.2      0.925      1.360
REMARK  Name = 
REMARK  6 active torsions:
REMARK  status: ('A' for Active; 'I' for Inactive)
REMARK    1  A    between atoms: C_1  and  N_2
REMARK    2  A    between atoms: C_7  and  C_8
REMARK    3  A    between atoms: C_8  and  N_9
REMARK    4  A    between atoms: C_12  and  O_13
REMARK    5  A    between atoms: C_12  and  C_14
REMARK    6  A    between atoms: C_14  and  C_15
REMARK                            x       y       z     vdW  Elec       q    Type
REMARK                         _______ _______ _______ _____ _____    ______ ____
ROOT
ATOM      1  N   UNL     1       5.755   5.582  17.991  0.00  0.00    +0.000 NA
ATOM      2  C   UNL     1       4.693   5.486  16.992  0.00  0.00    +0.000 C 
ATOM      3  C   UNL     1       5.129   5.372  15.528  0.00  0.00    +0.000 C 
ATOM      4  C   UNL     1       6.311   4.419  15.303  0.00  0.00    +0.000 C 
ATOM      5  C   UNL     1       7.423   4.737  16.302  0.00  0.00    +0.000 C 
ATOM      6  C   UNL     1       6.953   4.798  17.749  0.00  0.00    +0.000 C 
ENDROOT
BRANCH   4   7
ATOM      7  O   UNL     1       5.864   3.075  15.514  0.00  0.00    +0.000 OA
ATOM      8  H   UNL     1       5.995   2.576  14.688  0.00  0.00    +0.000 HD
ENDBRANCH   4   7
BRANCH   1   9
ATOM      9  C   UNL     1       5.284   5.471  19.392  0.00  0.00    +0.000 C 
BRANCH   9  16
ATOM     10  C   UNL     1       2.439   7.053  19.546  0.00  0.00    +0.000 C 
ATOM     11  N   UNL     1       2.700   5.630  19.688  0.00  0.00    +0.000 N 
ATOM     12  N   UNL     1       1.636   4.843  19.870  0.00  0.00    +0.000 NA
ATOM     13  C   UNL     1       2.120   3.615  19.865  0.00  0.00    +0.000 A 
ATOM     14  C   UNL     1       3.506   3.605  19.688  0.00  0.00    +0.000 A 
ATOM     15 CL   UNL     1       4.459   2.195  19.588  0.00  0.00    +0.000 Cl
ATOM     16  C   UNL     1       3.898   4.930  19.609  0.00  0.00    +0.000 A 
ENDBRANCH   9  16
ENDBRANCH   1   9
BRANCH   4  17
ATOM     17  C   UNL     1       6.820   4.586  13.845  0.00  0.00    +0.000 C 
BRANCH  17  18
ATOM     18  C   UNL     1       6.228   3.646  12.816  0.00  0.00    +0.000 A 
ATOM     19  C   UNL     1       7.018   2.654  12.209  0.00  0.00    +0.000 A 
ATOM     20  C   UNL     1       6.493   1.839  11.203  0.00  0.00    +0.000 A 
ATOM     21  C   UNL     1       5.169   1.997  10.800  0.00  0.00    +0.000 A 
ATOM     22  C   UNL     1       4.377   2.952  11.425  0.00  0.00    +0.000 A 
ATOM     23  F   UNL     1       3.099   3.096  11.049  0.00  0.00    +0.000 F 
ATOM     24  C   UNL     1       4.890   3.773  12.425  0.00  0.00    +0.000 A 
ENDBRANCH  17  18
ENDBRANCH   4  17
TORSDOF 5
ENDMDL
MODEL 3
REMARK VINA RESULT:      -7.2      1.642      2.217
REMARK  Name = 
REMARK  6 active torsions:
REMARK  status: ('A' for Active; 'I' for Inactive)
REMARK    1  A    between atoms: C_1  and  N_2
REMARK    2  A    between atoms: C_7  and  C_8
REMARK    3  A    between atoms: C_8  and  N_9
REMARK    4  A    between atoms: C_12  and  O_13
REMARK    5  A    between atoms: C_12  and  C_14
REMARK    6  A    between atoms: C_14  and  C_15
REMARK                            x       y       z     vdW  Elec       q    Type
REMARK                         _______ _______ _______ _____ _____    ______ ____
ROOT
ATOM      1  N   UNL     1       5.491   4.096  17.829  0.00  0.00    +0.000 NA
ATOM      2  C   UNL     1       6.700   4.886  17.610  0.00  0.00    +0.000 C 
ATOM      3  C   UNL     1       7.314   4.836  16.208  0.00  0.00    +0.000 C 
ATOM      4  C   UNL     1       6.283   4.912  15.073  0.00  0.00    +0.000 C 
ATOM      5  C   UNL     1       5.156   3.915  15.338  0.00  0.00    +0.000 C 
ATOM      6  C   UNL     1       4.546   4.029  16.728  0.00  0.00    +0.000 C 
ENDROOT
BRANCH   4   7
ATOM      7  O   UNL     1       5.738   6.235  15.037  0.00  0.00    +0.000 OA
ATOM      8  H   UNL     1       6.226   6.786  15.675  0.00  0.00    +0.000 HD
ENDBRANCH   4   7
BRANCH   1   9
ATOM      9  C   UNL     1       4.824   4.352  19.127  0.00  0.00    +0.000 C 
BRANCH   9  16
ATOM     10  C   UNL     1       3.583   1.346  18.916  0.00  0.00    +0.000 C 
ATOM     11  N   UNL     1       2.893   2.603  19.156  0.00  0.00    +0.000 N 
ATOM     12  N   UNL     1       1.573   2.531  19.357  0.00  0.00    +0.000 NA
ATOM     13  C   UNL     1       1.209   3.766  19.648  0.00  0.00    +0.000 A 
ATOM     14  C   UNL     1       2.295   4.645  19.629  0.00  0.00    +0.000 A 
ATOM     15 CL   UNL     1       2.202   6.307  19.998  0.00  0.00    +0.000 Cl
ATOM     16  C   UNL     1       3.399   3.892  19.268  0.00  0.00    +0.000 A 
ENDBRANCH   9  16
ENDBRANCH   1   9
BRANCH   4  17
ATOM     17  C   UNL     1       6.992   4.594  13.728  0.00  0.00    +0.000 C 
BRANCH  17  18
ATOM     18  C   UNL     1       6.204   3.767  12.734  0.00  0.00    +0.000 A 
ATOM     19  C   UNL     1       4.904   4.145  12.355  0.00  0.00    +0.000 A 
ATOM     20  C   UNL     1       4.147   3.342  11.498  0.00  0.00    +0.000 A 
ATOM     21  C   UNL     1       4.685   2.158  10.999  0.00  0.00    +0.000 A 
ATOM     22  C   UNL     1       5.984   1.802  11.343  0.00  0.00    +0.000 A 
ATOM     23  F   UNL     1       6.508   0.672  10.852  0.00  0.00    +0.000 F 
ATOM     24  C   UNL     1       6.745   2.592  12.199  0.00  0.00    +0.000 A 
ENDBRANCH  17  18
ENDBRANCH   4  17
TORSDOF 5
ENDMDL
MODEL 4
REMARK VINA RESULT:      -7.2      1.029      1.427
REMARK  Name = 
REMARK  6 active torsions:
REMARK  status: ('A' for Active; 'I' for Inactive)
REMARK    1  A    between atoms: C_1  and  N_2
REMARK    2  A    between atoms: C_7  and  C_8
REMARK    3  A    between atoms: C_8  and  N_9
REMARK    4  A    between atoms: C_12  and  O_13
REMARK    5  A    between atoms: C_12  and  C_14
REMARK    6  A    between atoms: C_14  and  C_15
REMARK                            x       y       z     vdW  Elec       q    Type
REMARK                         _______ _______ _______ _____ _____    ______ ____
ROOT
ATOM      1  N   UNL     1       5.460   4.050  17.913  0.00  0.00    +0.000 NA
ATOM      2  C   UNL     1       6.706   4.790  17.725  0.00  0.00    +0.000 C 
ATOM      3  C   UNL     1       7.332   4.746  16.328  0.00  0.00    +0.000 C 
ATOM      4  C   UNL     1       6.318   4.895  15.186  0.00  0.00    +0.000 C 
ATOM      5  C   UNL     1       5.145   3.944  15.416  0.00  0.00    +0.000 C 
ATOM      6  C   UNL     1       4.525   4.052  16.802  0.00  0.00    +0.000 C 
ENDROOT
BRANCH   4   7
ATOM      7  O   UNL     1       5.833   6.242  15.176  0.00  0.00    +0.000 OA
ATOM      8  H   UNL     1       4.860   6.217  15.126  0.00  0.00    +0.000 HD
ENDBRANCH   4   7
BRANCH   1   9
ATOM      9  C   UNL     1       4.791   4.304  19.210  0.00  0.00    +0.000 C 
BRANCH   9  16
ATOM     10  C   UNL     1       2.121   6.018  19.957  0.00  0.00    +0.000 C 
ATOM     11  N   UNL     1       2.245   4.595  19.686  0.00  0.00    +0.000 N 
ATOM     12  N   UNL     1       1.115   3.882  19.704  0.00  0.00    +0.000 NA
ATOM     13  C   UNL     1       1.475   2.668  19.334  0.00  0.00    +0.000 A 
ATOM     14  C   UNL     1       2.848   2.589  19.082  0.00  0.00    +0.000 A 
ATOM     15 CL   UNL     1       3.654   1.187  18.543  0.00  0.00    +0.000 Cl
ATOM     16  C   UNL     1       3.365   3.844  19.349  0.00  0.00    +0.000 A 
ENDBRANCH   9  16
ENDBRANCH   1   9
BRANCH   4  17
ATOM     17  C   UNL     1       7.026   4.577  13.841  0.00  0.00    +0.000 C 
BRANCH  17  18
ATOM     18  C   UNL     1       6.223   3.787  12.830  0.00  0.00    +0.000 A 
ATOM     19  C   UNL     1       4.913   4.171  12.492  0.00  0.00    +0.000 A 
ATOM     20  C   UNL     1       4.144   3.397  11.619  0.00  0.00    +0.000 A 
ATOM     21  C   UNL     1       4.679   2.238  11.062  0.00  0.00    +0.000 A 
ATOM     22  C   UNL     1       5.986   1.878  11.365  0.00  0.00    +0.000 A 
ATOM     23  F   UNL     1       6.507   0.771  10.818  0.00  0.00    +0.000 F 
ATOM     24  C   UNL     1       6.761   2.637  12.237  0.00  0.00    +0.000 A 
ENDBRANCH  17  18
ENDBRANCH   4  17
TORSDOF 5
ENDMDL
MODEL 5
REMARK VINA RESULT:      -7.2      1.635      2.188
REMARK  Name = 
REMARK  6 active torsions:
REMARK  status: ('A' for Active; 'I' for Inactive)
REMARK    1  A    between atoms: C_1  and  N_2
REMARK    2  A    between atoms: C_7  and  C_8
REMARK    3  A    between atoms: C_8  and  N_9
REMARK    4  A    between atoms: C_12  and  O_13
REMARK    5  A    between atoms: C_12  and  C_14
REMARK    6  A    between atoms: C_14  and  C_15
REMARK                            x       y       z     vdW  Elec       q    Type
REMARK                         _______ _______ _______ _____ _____    ______ ____
ROOT
ATOM      1  N   UNL     1       5.306   5.423  18.155  0.00  0.00    +0.000 NA
ATOM      2  C   UNL     1       4.341   5.060  17.120  0.00  0.00    +0.000 C 
ATOM      3  C   UNL     1       4.843   5.071  15.673  0.00  0.00    +0.000 C 
ATOM      4  C   UNL     1       6.238   4.458  15.493  0.00  0.00    +0.000 C 
ATOM      5  C   UNL     1       7.194   5.048  16.529  0.00  0.00    +0.000 C 
ATOM      6  C   UNL     1       6.674   4.977  17.958  0.00  0.00    +0.000 C 
ENDROOT
BRANCH   4   7
ATOM      7  O   UNL     1       6.148   3.043  15.693  0.00  0.00    +0.000 OA
ATOM      8  H   UNL     1       7.025   2.715  15.962  0.00  0.00    +0.000 HD
ENDBRANCH   4   7
BRANCH   1   9
ATOM      9  C   UNL     1       4.832   5.186  19.539  0.00  0.00    +0.000 C 
BRANCH   9  16
ATOM     10  C   UNL     1       3.976   2.046  19.376  0.00  0.00    +0.000 C 
ATOM     11  N   UNL     1       3.136   3.209  19.609  0.00  0.00    +0.000 N 
ATOM     12  N   UNL     1       1.838   2.975  19.825  0.00  0.00    +0.000 NA
ATOM     13  C   UNL     1       1.324   4.158  20.107  0.00  0.00    +0.000 A 
ATOM     14  C   UNL     1       2.291   5.166  20.065  0.00  0.00    +0.000 A 
ATOM     15 CL   UNL     1       1.994   6.807  20.417  0.00  0.00    +0.000 Cl
ATOM     16  C   UNL     1       3.477   4.553  19.701  0.00  0.00    +0.000 A 
ENDBRANCH   9  16
ENDBRANCH   1   9
BRANCH   4  17
ATOM     17  C   UNL     1       6.737   4.759  14.053  0.00  0.00    +0.000 C 
BRANCH  17  18
ATOM     18  C   UNL     1       6.302   3.789  12.975  0.00  0.00    +0.000 A 
ATOM     19  C   UNL     1       7.231   2.930  12.362  0.00  0.00    +0.000 A 
ATOM     20  C   UNL     1       6.846   2.091  11.313  0.00  0.00    +0.000 A 
ATOM     21  C   UNL     1       5.524   2.091  10.874  0.00  0.00    +0.000 A 
ATOM     22  C   UNL     1       4.596   2.911  11.504  0.00  0.00    +0.000 A 
ATOM     23  F   UNL     1       3.322   2.900  11.092  0.00  0.00    +0.000 F 
ATOM     24  C   UNL     1       4.970   3.754  12.546  0.00  0.00    +0.000 A 
ENDBRANCH  17  18
ENDBRANCH   4  17
TORSDOF 5
ENDMDL
MODEL 6
REMARK VINA RESULT:      -7.1      1.953      2.568
REMARK  Name = 
REMARK  6 active torsions:
REMARK  status: ('A' for Active; 'I' for Inactive)
REMARK    1  A    between atoms: C_1  and  N_2
REMARK    2  A    between atoms: C_7  and  C_8
REMARK    3  A    between atoms: C_8  and  N_9
REMARK    4  A    between atoms: C_12  and  O_13
REMARK    5  A    between atoms: C_12  and  C_14
REMARK    6  A    between atoms: C_14  and  C_15
REMARK                            x       y       z     vdW  Elec       q    Type
REMARK                         _______ _______ _______ _____ _____    ______ ____
ROOT
ATOM      1  N   UNL     1       4.623   4.628  17.189  0.00  0.00    +0.000 NA
ATOM      2  C   UNL     1       5.537   3.572  16.758  0.00  0.00    +0.000 C 
ATOM      3  C   UNL     1       6.070   3.662  15.325  0.00  0.00    +0.000 C 
ATOM      4  C   UNL     1       6.480   5.079  14.900  0.00  0.00    +0.000 C 
ATOM      5  C   UNL     1       5.364   6.062  15.254  0.00  0.00    +0.000 C 
ATOM      6  C   UNL     1       4.895   5.968  16.700  0.00  0.00    +0.000 C 
ENDROOT
BRANCH   4   7
ATOM      7  O   UNL     1       7.668   5.445  15.610  0.00  0.00    +0.000 OA
ATOM      8  H   UNL     1       8.380   4.832  15.353  0.00  0.00    +0.000 HD
ENDBRANCH   4   7
BRANCH   1   9
ATOM      9  C   UNL     1       4.314   4.611  18.638  0.00  0.00    +0.000 C 
BRANCH   9  16
ATOM     10  C   UNL     1       3.210   1.555  18.380  0.00  0.00    +0.000 C 
ATOM     11  N   UNL     1       2.534   2.727  18.911  0.00  0.00    +0.000 N 
ATOM     12  N   UNL     1       1.305   2.537  19.401  0.00  0.00    +0.000 NA
ATOM     13  C   UNL     1       0.958   3.706  19.905  0.00  0.00    +0.000 A 
ATOM     14  C   UNL     1       1.963   4.663  19.736  0.00  0.00    +0.000 A 
ATOM     15 CL   UNL     1       1.877   6.268  20.302  0.00  0.00    +0.000 Cl
ATOM     16  C   UNL     1       2.987   4.034  19.049  0.00  0.00    +0.000 A 
ENDBRANCH   9  16
ENDBRANCH   1   9
BRANCH   4  17
ATOM     17  C   UNL     1       6.751   5.087  13.371  0.00  0.00    +0.000 C 
BRANCH  17  18
ATOM     18  C   UNL     1       6.201   3.915  12.586  0.00  0.00    +0.000 A 
ATOM     19  C   UNL     1       7.039   2.860  12.185  0.00  0.00    +0.000 A 
ATOM     20  C   UNL     1       6.549   1.818  11.394  0.00  0.00    +0.000 A 
ATOM     21  C   UNL     1       5.211   1.811  11.005  0.00  0.00    +0.000 A 
ATOM     22  C   UNL     1       4.373   2.833  11.432  0.00  0.00    +0.000 A 
ATOM     23  F   UNL     1       3.083   2.820  11.070  0.00  0.00    +0.000 F 
ATOM     24  C   UNL     1       4.851   3.879  12.216  0.00  0.00    +0.000 A 
ENDBRANCH  17  18
ENDBRANCH   4  17
TORSDOF 5
ENDMDL
MODEL 7
REMARK VINA RESULT:      -7.1      1.441      1.794
REMARK  Name = 
REMARK  6 active torsions:
REMARK  status: ('A' for Active; 'I' for Inactive)
REMARK    1  A    between atoms: C_1  and  N_2
REMARK    2  A    between atoms: C_7  and  C_8
REMARK    3  A    between atoms: C_8  and  N_9
REMARK    4  A    between atoms: C_12  and  O_13
REMARK    5  A    between atoms: C_12  and  C_14
REMARK    6  A    between atoms: C_14  and  C_15
REMARK                            x       y       z     vdW  Elec       q    Type
REMARK                         _______ _______ _______ _____ _____    ______ ____
ROOT
ATOM      1  N   UNL     1       5.310   5.412  18.257  0.00  0.00    +0.000 NA
ATOM      2  C   UNL     1       4.402   4.965  17.203  0.00  0.00    +0.000 C 
ATOM      3  C   UNL     1       4.941   4.992  15.769  0.00  0.00    +0.000 C 
ATOM      4  C   UNL     1       6.382   4.479  15.636  0.00  0.00    +0.000 C 
ATOM      5  C   UNL     1       7.263   5.152  16.687  0.00  0.00    +0.000 C 
ATOM      6  C   UNL     1       6.711   5.064  18.103  0.00  0.00    +0.000 C 
ENDROOT
BRANCH   4   7
ATOM      7  O   UNL     1       6.388   3.065  15.857  0.00  0.00    +0.000 OA
ATOM      8  H   UNL     1       6.996   2.658  15.214  0.00  0.00    +0.000 HD
ENDBRANCH   4   7
BRANCH   1   9
ATOM      9  C   UNL     1       4.817   5.162  19.632  0.00  0.00    +0.000 C 
BRANCH   9  16
ATOM     10  C   UNL     1       3.772   2.076  19.719  0.00  0.00    +0.000 C 
ATOM     11  N   UNL     1       2.997   3.303  19.788  0.00  0.00    +0.000 N 
ATOM     12  N   UNL     1       1.676   3.168  19.947  0.00  0.00    +0.000 NA
ATOM     13  C   UNL     1       1.224   4.401  20.083  0.00  0.00    +0.000 A 
ATOM     14  C   UNL     1       2.255   5.342  20.003  0.00  0.00    +0.000 A 
ATOM     15 CL   UNL     1       2.044   7.025  20.178  0.00  0.00    +0.000 Cl
ATOM     16  C   UNL     1       3.417   4.628  19.771  0.00  0.00    +0.000 A 
ENDBRANCH   9  16
ENDBRANCH   1   9
BRANCH   4  17
ATOM     17  C   UNL     1       6.897   4.796  14.205  0.00  0.00    +0.000 C 
BRANCH  17  18
ATOM     18  C   UNL     1       6.330   3.948  13.085  0.00  0.00    +0.000 A 
ATOM     19  C   UNL     1       4.953   3.956  12.802  0.00  0.00    +0.000 A 
ATOM     20  C   UNL     1       4.420   3.116  11.822  0.00  0.00    +0.000 A 
ATOM     21  C   UNL     1       5.258   2.267  11.103  0.00  0.00    +0.000 A 
ATOM     22  C   UNL     1       6.625   2.285  11.355  0.00  0.00    +0.000 A 
ATOM     23  F   UNL     1       7.434   1.481  10.654  0.00  0.00    +0.000 F 
ATOM     24  C   UNL     1       7.167   3.115  12.333  0.00  0.00    +0.000 A 
ENDBRANCH  17  18
ENDBRANCH   4  17
TORSDOF 5
ENDMDL
MODEL 8
REMARK VINA RESULT:      -7.0      1.087      1.182
REMARK  Name = 
REMARK  6 active torsions:
REMARK  status: ('A' for Active; 'I' for Inactive)
REMARK    1  A    between atoms: C_1  and  N_2
REMARK    2  A    between atoms: C_7  and  C_8
REMARK    3  A    between atoms: C_8  and  N_9
REMARK    4  A    between atoms: C_12  and  O_13
REMARK    5  A    between atoms: C_12  and  C_14
REMARK    6  A    between atoms: C_14  and  C_15
REMARK                            x       y       z     vdW  Elec       q    Type
REMARK                         _______ _______ _______ _____ _____    ______ ____
ROOT
ATOM      1  N   UNL     1       4.788   4.708  17.762  0.00  0.00    +0.000 NA
ATOM      2  C   UNL     1       5.141   3.505  17.012  0.00  0.00    +0.000 C 
ATOM      3  C   UNL     1       5.689   3.708  15.597  0.00  0.00    +0.000 C 
ATOM      4  C   UNL     1       6.700   4.856  15.480  0.00  0.00    +0.000 C 
ATOM      5  C   UNL     1       6.137   6.105  16.157  0.00  0.00    +0.000 C 
ATOM      6  C   UNL     1       5.644   5.867  17.577  0.00  0.00    +0.000 C 
ENDROOT
BRANCH   4   7
ATOM      7  O   UNL     1       7.911   4.472  16.140  0.00  0.00    +0.000 OA
ATOM      8  H   UNL     1       7.748   4.472  17.101  0.00  0.00    +0.000 HD
ENDBRANCH   4   7
BRANCH   1   9
ATOM      9  C   UNL     1       4.473   4.465  19.190  0.00  0.00    +0.000 C 
BRANCH   9  16
ATOM     10  C   UNL     1       1.992   6.290  20.256  0.00  0.00    +0.000 C 
ATOM     11  N   UNL     1       2.026   4.861  19.993  0.00  0.00    +0.000 N 
ATOM     12  N   UNL     1       0.881   4.194  20.170  0.00  0.00    +0.000 NA
ATOM     13  C   UNL     1       1.143   2.962  19.774  0.00  0.00    +0.000 A 
ATOM     14  C   UNL     1       2.467   2.827  19.344  0.00  0.00    +0.000 A 
ATOM     15 CL   UNL     1       3.141   1.389  18.725  0.00  0.00    +0.000 Cl
ATOM     16  C   UNL     1       3.062   4.063  19.522  0.00  0.00    +0.000 A 
ENDBRANCH   9  16
ENDBRANCH   1   9
BRANCH   4  17
ATOM     17  C   UNL     1       6.980   5.128  13.976  0.00  0.00    +0.000 C 
BRANCH  17  18
ATOM     18  C   UNL     1       6.381   4.144  12.994  0.00  0.00    +0.000 A 
ATOM     19  C   UNL     1       4.999   4.133  12.738  0.00  0.00    +0.000 A 
ATOM     20  C   UNL     1       4.435   3.174  11.892  0.00  0.00    +0.000 A 
ATOM     21  C   UNL     1       5.249   2.223  11.280  0.00  0.00    +0.000 A 
ATOM     22  C   UNL     1       6.620   2.256  11.502  0.00  0.00    +0.000 A 
ATOM     23  F   UNL     1       7.405   1.351  10.903  0.00  0.00    +0.000 F 
ATOM     24  C   UNL     1       7.192   3.203  12.347  0.00  0.00    +0.000 A 
ENDBRANCH  17  18
ENDBRANCH   4  17
TORSDOF 5
ENDMDL
MODEL 9
REMARK VINA RESULT:      -7.0      1.783      2.234
REMARK  Name = 
REMARK  6 active torsions:
REMARK  status: ('A' for Active; 'I' for Inactive)
REMARK    1  A    between atoms: C_1  and  N_2
REMARK    2  A    between atoms: C_7  and  C_8
REMARK    3  A    between atoms: C_8  and  N_9
REMARK    4  A    between atoms: C_12  and  O_13
REMARK    5  A    between atoms: C_12  and  C_14
REMARK    6  A    between atoms: C_14  and  C_15
REMARK                            x       y       z     vdW  Elec       q    Type
REMARK                         _______ _______ _______ _____ _____    ______ ____
ROOT
ATOM      1  N   UNL     1       4.612   4.672  17.245  0.00  0.00    +0.000 NA
ATOM      2  C   UNL     1       5.547   3.640  16.801  0.00  0.00    +0.000 C 
ATOM      3  C   UNL     1       6.106   3.778  15.382  0.00  0.00    +0.000 C 
ATOM      4  C   UNL     1       6.506   5.212  15.007  0.00  0.00    +0.000 C 
ATOM      5  C   UNL     1       5.372   6.170  15.368  0.00  0.00    +0.000 C 
ATOM      6  C   UNL     1       4.877   6.029  16.800  0.00  0.00    +0.000 C 
ENDROOT
BRANCH   4   7
ATOM      7  O   UNL     1       7.676   5.571  15.750  0.00  0.00    +0.000 OA
ATOM      8  H   UNL     1       8.165   4.756  15.964  0.00  0.00    +0.000 HD
ENDBRANCH   4   7
BRANCH   1   9
ATOM      9  C   UNL     1       4.275   4.609  18.687  0.00  0.00    +0.000 C 
BRANCH   9  16
ATOM     10  C   UNL     1       3.218   1.544  18.356  0.00  0.00    +0.000 C 
ATOM     11  N   UNL     1       2.514   2.699  18.887  0.00  0.00    +0.000 N 
ATOM     12  N   UNL     1       1.275   2.487  19.341  0.00  0.00    +0.000 NA
ATOM     13  C   UNL     1       0.900   3.643  19.853  0.00  0.00    +0.000 A 
ATOM     14  C   UNL     1       1.897   4.615  19.724  0.00  0.00    +0.000 A 
ATOM     15 CL   UNL     1       1.775   6.211  20.311  0.00  0.00    +0.000 Cl
ATOM     16  C   UNL     1       2.946   4.009  19.055  0.00  0.00    +0.000 A 
ENDBRANCH   9  16
ENDBRANCH   1   9
BRANCH   4  17
ATOM     17  C   UNL     1       6.807   5.267  13.484  0.00  0.00    +0.000 C 
BRANCH  17  18
ATOM     18  C   UNL     1       6.263   4.125  12.651  0.00  0.00    +0.000 A 
ATOM     19  C   UNL     1       4.885   4.008  12.403  0.00  0.00    +0.000 A 
ATOM     20  C   UNL     1       4.375   2.913  11.701  0.00  0.00    +0.000 A 
ATOM     21  C   UNL     1       5.239   1.928  11.227  0.00  0.00    +0.000 A 
ATOM     22  C   UNL     1       6.605   2.062  11.438  0.00  0.00    +0.000 A 
ATOM     23  F   UNL     1       7.439   1.124  10.969  0.00  0.00    +0.000 F 
ATOM     24  C   UNL     1       7.124   3.146  12.140  0.00  0.00    +0.000 A 
ENDBRANCH  17  18
ENDBRANCH   4  17
TORSDOF 5
ENDMDL
