MODEL 1
REMARK VINA RESULT:      -9.2      0.000      0.000
REMARK  Name = 
REMARK  8 active torsions:
REMARK  status: ('A' for Active; 'I' for Inactive)
REMARK    1  A    between atoms: C_1  and  C_2
REMARK    2  A    between atoms: C_5  and  C_6
REMARK    3  A    between atoms: C_6  and  C_7
REMARK    4  A    between atoms: C_7  and  O_9
REMARK    5  A    between atoms: C_15  and  C_17
REMARK    6  A    between atoms: C_20  and  O_21
REMARK    7  A    between atoms: O_21  and  C_22
REMARK    8  A    between atoms: C_22  and  C_23
REMARK                            x       y       z     vdW  Elec       q    Type
REMARK                         _______ _______ _______ _____ _____    ______ ____
ROOT
ATOM      1  C   UNL     1       1.932   2.239  18.972  0.00  0.00    +0.000 C 
ATOM      2  C   UNL     1       2.901   3.222  18.405  0.00  0.00    +0.000 A 
ATOM      3  C   UNL     1       3.783   3.033  17.363  0.00  0.00    +0.000 A 
ATOM      4  C   UNL     1       4.507   4.231  17.153  0.00  0.00    +0.000 A 
ATOM      5  C   UNL     1       5.541   4.602  16.248  0.00  0.00    +0.000 A 
ATOM      6  C   UNL     1       6.064   5.908  16.337  0.00  0.00    +0.000 A 
ATOM      7  C   UNL     1       5.650   6.783  17.328  0.00  0.00    +0.000 A 
ATOM      8  C   UNL     1       4.685   6.399  18.256  0.00  0.00    +0.000 A 
ATOM      9  C   UNL     1       4.059   5.141  18.119  0.00  0.00    +0.000 A 
ATOM     10  N   UNL     1       3.000   4.548  18.835  0.00  0.00    +0.000 N 
ATOM     11  C   UNL     1       2.160   5.175  19.802  0.00  0.00    +0.000 C 
ATOM     12  O   UNL     1       1.553   4.460  20.597  0.00  0.00    +0.000 OA
ENDROOT
BRANCH  11  13
ATOM     13  C   UNL     1       1.936   6.639  19.895  0.00  0.00    +0.000 A 
ATOM     14  C   UNL     1       1.611   7.218  21.126  0.00  0.00    +0.000 A 
ATOM     15  C   UNL     1       1.265   8.566  21.200  0.00  0.00    +0.000 A 
ATOM     16  C   UNL     1       1.310   9.362  20.060  0.00  0.00    +0.000 A 
ATOM     17  C   UNL     1       1.723   8.801  18.845  0.00  0.00    +0.000 A 
ATOM     18  C   UNL     1       2.041   7.442  18.756  0.00  0.00    +0.000 A 
BRANCH  16  19
ATOM     19  O   UNL     1       0.980  10.681  20.007  0.00  0.00    +0.000 OA
BRANCH  19  20
ATOM     20  C   UNL     1      -0.362  11.086  20.309  0.00  0.00    +0.000 C 
BRANCH  20  21
ATOM     21  C   UNL     1      -1.141  11.606  19.089  0.00  0.00    +0.000 C 
ATOM     22  O   UNL     1      -2.518  11.841  19.456  0.00  0.00    +0.000 OA
ATOM     23  C   UNL     1      -3.140  11.514  18.292  0.00  0.00    +0.000 A 
ATOM     24  C   UNL     1      -4.476  11.693  18.029  0.00  0.00    +0.000 A 
ATOM     25  C   UNL     1      -4.928  11.399  16.744  0.00  0.00    +0.000 A 
ATOM     26  C   UNL     1      -4.028  10.951  15.759  0.00  0.00    +0.000 A 
ATOM     27  C   UNL     1      -2.679  10.721  16.072  0.00  0.00    +0.000 A 
ATOM     28  C   UNL     1      -2.267  10.988  17.362  0.00  0.00    +0.000 A 
ATOM     29  O   UNL     1      -1.018  10.803  17.888  0.00  0.00    +0.000 OA
ENDBRANCH  20  21
ENDBRANCH  19  20
ENDBRANCH  16  19
ENDBRANCH  11  13
BRANCH   5  30
ATOM     30  C   UNL     1       6.157   3.642  15.247  0.00  0.00    +0.000 C 
BRANCH  30  31
ATOM     31  C   UNL     1       6.468   4.210  13.880  0.00  0.00    +0.000 C 
ATOM     32  O   UNL     1       7.289   5.101  13.703  0.00  0.00    +0.000 OA
BRANCH  31  33
ATOM     33  O   UNL     1       5.836   3.613  12.846  0.00  0.00    +0.000 OA
ATOM     34  H   UNL     1       4.908   3.899  12.737  0.00  0.00    +0.000 HD
ENDBRANCH  31  33
ENDBRANCH  30  31
ENDBRANCH   5  30
TORSDOF 7
ENDMDL
MODEL 2
REMARK VINA RESULT:      -9.0      0.679      1.283
REMARK  Name = 
REMARK  8 active torsions:
REMARK  status: ('A' for Active; 'I' for Inactive)
REMARK    1  A    between atoms: C_1  and  C_2
REMARK    2  A    between atoms: C_5  and  C_6
REMARK    3  A    between atoms: C_6  and  C_7
REMARK    4  A    between atoms: C_7  and  O_9
REMARK    5  A    between atoms: C_15  and  C_17
REMARK    6  A    between atoms: C_20  and  O_21
REMARK    7  A    between atoms: O_21  and  C_22
REMARK    8  A    between atoms: C_22  and  C_23
REMARK                            x       y       z     vdW  Elec       q    Type
REMARK                         _______ _______ _______ _____ _____    ______ ____
ROOT
ATOM      1  C   UNL     1       1.918   2.405  19.043  0.00  0.00    +0.000 C 
ATOM      2  C   UNL     1       2.857   3.373  18.403  0.00  0.00    +0.000 A 
ATOM      3  C   UNL     1       3.714   3.146  17.347  0.00  0.00    +0.000 A 
ATOM      4  C   UNL     1       4.413   4.342  17.061  0.00  0.00    +0.000 A 
ATOM      5  C   UNL     1       5.417   4.683  16.110  0.00  0.00    +0.000 A 
ATOM      6  C   UNL     1       5.921   5.999  16.122  0.00  0.00    +0.000 A 
ATOM      7  C   UNL     1       5.521   6.916  17.080  0.00  0.00    +0.000 A 
ATOM      8  C   UNL     1       4.587   6.563  18.052  0.00  0.00    +0.000 A 
ATOM      9  C   UNL     1       3.977   5.292  17.993  0.00  0.00    +0.000 A 
ATOM     10  N   UNL     1       2.947   4.719  18.765  0.00  0.00    +0.000 N 
ATOM     11  C   UNL     1       2.123   5.381  19.723  0.00  0.00    +0.000 C 
ATOM     12  O   UNL     1       1.548   4.697  20.568  0.00  0.00    +0.000 OA
ENDROOT
BRANCH  11  13
ATOM     13  C   UNL     1       1.879   6.844  19.751  0.00  0.00    +0.000 A 
ATOM     14  C   UNL     1       1.560   7.475  20.959  0.00  0.00    +0.000 A 
ATOM     15  C   UNL     1       1.196   8.821  20.974  0.00  0.00    +0.000 A 
ATOM     16  C   UNL     1       1.216   9.563  19.799  0.00  0.00    +0.000 A 
ATOM     17  C   UNL     1       1.622   8.952  18.605  0.00  0.00    +0.000 A 
ATOM     18  C   UNL     1       1.958   7.595  18.575  0.00  0.00    +0.000 A 
BRANCH  16  19
ATOM     19  O   UNL     1       0.865  10.873  19.688  0.00  0.00    +0.000 OA
BRANCH  19  20
ATOM     20  C   UNL     1       0.076  11.302  18.570  0.00  0.00    +0.000 C 
BRANCH  20  21
ATOM     21  C   UNL     1      -1.425  11.002  18.722  0.00  0.00    +0.000 C 
ATOM     22  O   UNL     1      -2.038  10.922  17.416  0.00  0.00    +0.000 OA
ATOM     23  C   UNL     1      -3.268  11.431  17.693  0.00  0.00    +0.000 A 
ATOM     24  C   UNL     1      -4.330  11.457  16.822  0.00  0.00    +0.000 A 
ATOM     25  C   UNL     1      -5.551  11.922  17.306  0.00  0.00    +0.000 A 
ATOM     26  C   UNL     1      -5.677  12.331  18.647  0.00  0.00    +0.000 A 
ATOM     27  C   UNL     1      -4.561  12.349  19.497  0.00  0.00    +0.000 A 
ATOM     28  C   UNL     1      -3.356  11.916  18.982  0.00  0.00    +0.000 A 
ATOM     29  O   UNL     1      -2.146  11.884  19.618  0.00  0.00    +0.000 OA
ENDBRANCH  20  21
ENDBRANCH  19  20
ENDBRANCH  16  19
ENDBRANCH  11  13
BRANCH   5  30
ATOM     30  C   UNL     1       6.020   3.684  15.141  0.00  0.00    +0.000 C 
BRANCH  30  31
ATOM     31  C   UNL     1       6.511   4.243  13.824  0.00  0.00    +0.000 C 
ATOM     32  O   UNL     1       7.344   5.138  13.752  0.00  0.00    +0.000 OA
BRANCH  31  33
ATOM     33  O   UNL     1       6.027   3.635  12.719  0.00  0.00    +0.000 OA
ATOM     34  H   UNL     1       6.639   3.662  11.958  0.00  0.00    +0.000 HD
ENDBRANCH  31  33
ENDBRANCH  30  31
ENDBRANCH   5  30
TORSDOF 7
ENDMDL
MODEL 3
REMARK VINA RESULT:      -9.0      0.911      1.131
REMARK  Name = 
REMARK  8 active torsions:
REMARK  status: ('A' for Active; 'I' for Inactive)
REMARK    1  A    between atoms: C_1  and  C_2
REMARK    2  A    between atoms: C_5  and  C_6
REMARK    3  A    between atoms: C_6  and  C_7
REMARK    4  A    between atoms: C_7  and  O_9
REMARK    5  A    between atoms: C_15  and  C_17
REMARK    6  A    between atoms: C_20  and  O_21
REMARK    7  A    between atoms: O_21  and  C_22
REMARK    8  A    between atoms: C_22  and  C_23
REMARK                            x       y       z     vdW  Elec       q    Type
REMARK                         _______ _______ _______ _____ _____    ______ ____
ROOT
ATOM      1  C   UNL     1       2.459   2.659  19.523  0.00  0.00    +0.000 C 
ATOM      2  C   UNL     1       3.207   3.571  18.609  0.00  0.00    +0.000 A 
ATOM      3  C   UNL     1       3.951   3.231  17.499  0.00  0.00    +0.000 A 
ATOM      4  C   UNL     1       4.481   4.410  16.925  0.00  0.00    +0.000 A 
ATOM      5  C   UNL     1       5.323   4.658  15.804  0.00  0.00    +0.000 A 
ATOM      6  C   UNL     1       5.685   5.992  15.528  0.00  0.00    +0.000 A 
ATOM      7  C   UNL     1       5.307   7.029  16.365  0.00  0.00    +0.000 A 
ATOM      8  C   UNL     1       4.539   6.780  17.501  0.00  0.00    +0.000 A 
ATOM      9  C   UNL     1       4.063   5.472  17.737  0.00  0.00    +0.000 A 
ATOM     10  N   UNL     1       3.198   4.963  18.727  0.00  0.00    +0.000 N 
ATOM     11  C   UNL     1       2.430   5.715  19.664  0.00  0.00    +0.000 C 
ATOM     12  O   UNL     1       2.035   5.147  20.681  0.00  0.00    +0.000 OA
ENDROOT
BRANCH  11  13
ATOM     13  C   UNL     1       2.039   7.134  19.482  0.00  0.00    +0.000 A 
ATOM     14  C   UNL     1       1.634   7.894  20.584  0.00  0.00    +0.000 A 
ATOM     15  C   UNL     1       1.136   9.183  20.406  0.00  0.00    +0.000 A 
ATOM     16  C   UNL     1       1.104   9.750  19.136  0.00  0.00    +0.000 A 
ATOM     17  C   UNL     1       1.594   9.021  18.044  0.00  0.00    +0.000 A 
ATOM     18  C   UNL     1       2.066   7.715  18.211  0.00  0.00    +0.000 A 
BRANCH  16  19
ATOM     19  O   UNL     1       0.625  10.988  18.838  0.00  0.00    +0.000 OA
BRANCH  19  20
ATOM     20  C   UNL     1      -0.296  11.625  19.733  0.00  0.00    +0.000 C 
BRANCH  20  21
ATOM     21  C   UNL     1      -1.558  12.166  19.039  0.00  0.00    +0.000 C 
ATOM     22  O   UNL     1      -2.577  12.436  20.027  0.00  0.00    +0.000 OA
ATOM     23  C   UNL     1      -3.693  12.127  19.315  0.00  0.00    +0.000 A 
ATOM     24  C   UNL     1      -4.984  12.341  19.733  0.00  0.00    +0.000 A 
ATOM     25  C   UNL     1      -6.010  12.061  18.833  0.00  0.00    +0.000 A 
ATOM     26  C   UNL     1      -5.713  11.591  17.540  0.00  0.00    +0.000 A 
ATOM     27  C   UNL     1      -4.389  11.327  17.160  0.00  0.00    +0.000 A 
ATOM     28  C   UNL     1      -3.395  11.581  18.085  0.00  0.00    +0.000 A 
ATOM     29  O   UNL     1      -2.053  11.363  17.939  0.00  0.00    +0.000 OA
ENDBRANCH  20  21
ENDBRANCH  19  20
ENDBRANCH  16  19
ENDBRANCH  11  13
BRANCH   5  30
ATOM     30  C   UNL     1       5.908   3.555  14.941  0.00  0.00    +0.000 C 
BRANCH  30  31
ATOM     31  C   UNL     1       5.990   3.840  13.458  0.00  0.00    +0.000 C 
ATOM     32  O   UNL     1       7.020   4.211  12.909  0.00  0.00    +0.000 OA
BRANCH  31  33
ATOM     33  O   UNL     1       4.867   3.581  12.754  0.00  0.00    +0.000 OA
ATOM     34  H   UNL     1       4.860   2.697  12.338  0.00  0.00    +0.000 HD
ENDBRANCH  31  33
ENDBRANCH  30  31
ENDBRANCH   5  30
TORSDOF 7
ENDMDL
MODEL 4
REMARK VINA RESULT:      -8.9      2.844      9.714
REMARK  Name = 
REMARK  8 active torsions:
REMARK  status: ('A' for Active; 'I' for Inactive)
REMARK    1  A    between atoms: C_1  and  C_2
REMARK    2  A    between atoms: C_5  and  C_6
REMARK    3  A    between atoms: C_6  and  C_7
REMARK    4  A    between atoms: C_7  and  O_9
REMARK    5  A    between atoms: C_15  and  C_17
REMARK    6  A    between atoms: C_20  and  O_21
REMARK    7  A    between atoms: O_21  and  C_22
REMARK    8  A    between atoms: C_22  and  C_23
REMARK                            x       y       z     vdW  Elec       q    Type
REMARK                         _______ _______ _______ _____ _____    ______ ____
ROOT
ATOM      1  C   UNL     1      -0.951  13.378  21.873  0.00  0.00    +0.000 C 
ATOM      2  C   UNL     1      -1.607  12.610  20.774  0.00  0.00    +0.000 A 
ATOM      3  C   UNL     1      -2.761  12.930  20.092  0.00  0.00    +0.000 A 
ATOM      4  C   UNL     1      -3.016  11.927  19.127  0.00  0.00    +0.000 A 
ATOM      5  C   UNL     1      -4.056  11.729  18.175  0.00  0.00    +0.000 A 
ATOM      6  C   UNL     1      -4.005  10.574  17.369  0.00  0.00    +0.000 A 
ATOM      7  C   UNL     1      -3.024   9.613  17.547  0.00  0.00    +0.000 A 
ATOM      8  C   UNL     1      -2.043   9.774  18.524  0.00  0.00    +0.000 A 
ATOM      9  C   UNL     1      -1.999  10.974  19.265  0.00  0.00    +0.000 A 
ATOM     10  N   UNL     1      -1.076  11.442  20.222  0.00  0.00    +0.000 N 
ATOM     11  C   UNL     1       0.182  10.859  20.557  0.00  0.00    +0.000 C 
ATOM     12  O   UNL     1       0.686  11.146  21.642  0.00  0.00    +0.000 OA
ENDROOT
BRANCH  11  13
ATOM     13  C   UNL     1       0.949   9.952  19.669  0.00  0.00    +0.000 A 
ATOM     14  C   UNL     1       1.215   8.639  20.074  0.00  0.00    +0.000 A 
ATOM     15  C   UNL     1       2.049   7.823  19.311  0.00  0.00    +0.000 A 
ATOM     16  C   UNL     1       2.566   8.285  18.106  0.00  0.00    +0.000 A 
ATOM     17  C   UNL     1       2.227   9.568  17.658  0.00  0.00    +0.000 A 
ATOM     18  C   UNL     1       1.417  10.404  18.432  0.00  0.00    +0.000 A 
BRANCH  16  19
ATOM     19  O   UNL     1       3.402   7.588  17.289  0.00  0.00    +0.000 OA
BRANCH  19  20
ATOM     20  C   UNL     1       4.500   6.860  17.854  0.00  0.00    +0.000 C 
BRANCH  20  21
ATOM     21  C   UNL     1       4.123   5.451  18.340  0.00  0.00    +0.000 C 
ATOM     22  O   UNL     1       2.997   4.961  17.580  0.00  0.00    +0.000 OA
ATOM     23  C   UNL     1       2.361   4.229  18.533  0.00  0.00    +0.000 A 
ATOM     24  C   UNL     1       1.279   3.411  18.314  0.00  0.00    +0.000 A 
ATOM     25  C   UNL     1       0.815   2.651  19.386  0.00  0.00    +0.000 A 
ATOM     26  C   UNL     1       1.456   2.720  20.637  0.00  0.00    +0.000 A 
ATOM     27  C   UNL     1       2.522   3.608  20.848  0.00  0.00    +0.000 A 
ATOM     28  C   UNL     1       2.938   4.374  19.777  0.00  0.00    +0.000 A 
ATOM     29  O   UNL     1       3.925   5.321  19.770  0.00  0.00    +0.000 OA
ENDBRANCH  20  21
ENDBRANCH  19  20
ENDBRANCH  16  19
ENDBRANCH  11  13
BRANCH   5  30
ATOM     30  C   UNL     1      -5.249  12.656  18.039  0.00  0.00    +0.000 C 
BRANCH  30  31
ATOM     31  C   UNL     1      -6.480  12.281  18.834  0.00  0.00    +0.000 C 
ATOM     32  O   UNL     1      -7.197  11.334  18.540  0.00  0.00    +0.000 OA
BRANCH  31  33
ATOM     33  O   UNL     1      -6.699  13.016  19.946  0.00  0.00    +0.000 OA
ATOM     34  H   UNL     1      -6.861  13.963  19.764  0.00  0.00    +0.000 HD
ENDBRANCH  31  33
ENDBRANCH  30  31
ENDBRANCH   5  30
TORSDOF 7
ENDMDL
MODEL 5
REMARK VINA RESULT:      -8.8      2.622      3.430
REMARK  Name = 
REMARK  8 active torsions:
REMARK  status: ('A' for Active; 'I' for Inactive)
REMARK    1  A    between atoms: C_1  and  C_2
REMARK    2  A    between atoms: C_5  and  C_6
REMARK    3  A    between atoms: C_6  and  C_7
REMARK    4  A    between atoms: C_7  and  O_9
REMARK    5  A    between atoms: C_15  and  C_17
REMARK    6  A    between atoms: C_20  and  O_21
REMARK    7  A    between atoms: O_21  and  C_22
REMARK    8  A    between atoms: C_22  and  C_23
REMARK                            x       y       z     vdW  Elec       q    Type
REMARK                         _______ _______ _______ _____ _____    ______ ____
ROOT
ATOM      1  C   UNL     1       2.421   2.229  17.635  0.00  0.00    +0.000 C 
ATOM      2  C   UNL     1       3.450   3.295  17.450  0.00  0.00    +0.000 A 
ATOM      3  C   UNL     1       4.530   3.287  16.593  0.00  0.00    +0.000 A 
ATOM      4  C   UNL     1       5.239   4.502  16.739  0.00  0.00    +0.000 A 
ATOM      5  C   UNL     1       6.421   5.022  16.138  0.00  0.00    +0.000 A 
ATOM      6  C   UNL     1       6.869   6.293  16.549  0.00  0.00    +0.000 A 
ATOM      7  C   UNL     1       6.235   6.987  17.567  0.00  0.00    +0.000 A 
ATOM      8  C   UNL     1       5.117   6.449  18.202  0.00  0.00    +0.000 A 
ATOM      9  C   UNL     1       4.575   5.234  17.731  0.00  0.00    +0.000 A 
ATOM     10  N   UNL     1       3.415   4.527  18.107  0.00  0.00    +0.000 N 
ATOM     11  C   UNL     1       2.377   4.981  18.973  0.00  0.00    +0.000 C 
ATOM     12  O   UNL     1       1.647   4.140  19.497  0.00  0.00    +0.000 OA
ENDROOT
BRANCH  11  13
ATOM     13  C   UNL     1       2.089   6.407  19.262  0.00  0.00    +0.000 A 
ATOM     14  C   UNL     1       1.846   6.817  20.578  0.00  0.00    +0.000 A 
ATOM     15  C   UNL     1       1.441   8.123  20.844  0.00  0.00    +0.000 A 
ATOM     16  C   UNL     1       1.344   9.049  19.811  0.00  0.00    +0.000 A 
ATOM     17  C   UNL     1       1.674   8.660  18.506  0.00  0.00    +0.000 A 
ATOM     18  C   UNL     1       2.051   7.343  18.226  0.00  0.00    +0.000 A 
BRANCH  16  19
ATOM     19  O   UNL     1       0.943  10.342  19.946  0.00  0.00    +0.000 OA
BRANCH  19  20
ATOM     20  C   UNL     1       0.907  10.939  21.250  0.00  0.00    +0.000 C 
BRANCH  20  21
ATOM     21  C   UNL     1      -0.336  11.810  21.496  0.00  0.00    +0.000 C 
ATOM     22  O   UNL     1       0.054  13.041  22.143  0.00  0.00    +0.000 OA
ATOM     23  C   UNL     1      -1.033  13.258  22.930  0.00  0.00    +0.000 A 
ATOM     24  C   UNL     1      -1.261  14.391  23.672  0.00  0.00    +0.000 A 
ATOM     25  C   UNL     1      -2.480  14.492  24.341  0.00  0.00    +0.000 A 
ATOM     26  C   UNL     1      -3.437  13.465  24.234  0.00  0.00    +0.000 A 
ATOM     27  C   UNL     1      -3.153  12.293  23.518  0.00  0.00    +0.000 A 
ATOM     28  C   UNL     1      -1.924  12.206  22.893  0.00  0.00    +0.000 A 
ATOM     29  O   UNL     1      -1.431  11.149  22.179  0.00  0.00    +0.000 OA
ENDBRANCH  20  21
ENDBRANCH  19  20
ENDBRANCH  16  19
ENDBRANCH  11  13
BRANCH   5  30
ATOM     30  C   UNL     1       7.257   4.247  15.138  0.00  0.00    +0.000 C 
BRANCH  30  31
ATOM     31  C   UNL     1       6.887   4.419  13.681  0.00  0.00    +0.000 C 
ATOM     32  O   UNL     1       5.954   3.824  13.159  0.00  0.00    +0.000 OA
BRANCH  31  33
ATOM     33  O   UNL     1       7.608   5.339  13.004  0.00  0.00    +0.000 OA
ATOM     34  H   UNL     1       8.550   5.100  12.901  0.00  0.00    +0.000 HD
ENDBRANCH  31  33
ENDBRANCH  30  31
ENDBRANCH   5  30
TORSDOF 7
ENDMDL
MODEL 6
REMARK VINA RESULT:      -8.8      1.505      2.065
REMARK  Name = 
REMARK  8 active torsions:
REMARK  status: ('A' for Active; 'I' for Inactive)
REMARK    1  A    between atoms: C_1  and  C_2
REMARK    2  A    between atoms: C_5  and  C_6
REMARK    3  A    between atoms: C_6  and  C_7
REMARK    4  A    between atoms: C_7  and  O_9
REMARK    5  A    between atoms: C_15  and  C_17
REMARK    6  A    between atoms: C_20  and  O_21
REMARK    7  A    between atoms: O_21  and  C_22
REMARK    8  A    between atoms: C_22  and  C_23
REMARK                            x       y       z     vdW  Elec       q    Type
REMARK                         _______ _______ _______ _____ _____    ______ ____
ROOT
ATOM      1  C   UNL     1       2.215   2.423  17.849  0.00  0.00    +0.000 C 
ATOM      2  C   UNL     1       3.281   3.443  17.621  0.00  0.00    +0.000 A 
ATOM      3  C   UNL     1       4.366   3.357  16.775  0.00  0.00    +0.000 A 
ATOM      4  C   UNL     1       5.115   4.554  16.868  0.00  0.00    +0.000 A 
ATOM      5  C   UNL     1       6.317   5.004  16.253  0.00  0.00    +0.000 A 
ATOM      6  C   UNL     1       6.806   6.279  16.606  0.00  0.00    +0.000 A 
ATOM      7  C   UNL     1       6.188   7.042  17.583  0.00  0.00    +0.000 A 
ATOM      8  C   UNL     1       5.048   6.574  18.234  0.00  0.00    +0.000 A 
ATOM      9  C   UNL     1       4.469   5.356  17.818  0.00  0.00    +0.000 A 
ATOM     10  N   UNL     1       3.283   4.707  18.217  0.00  0.00    +0.000 N 
ATOM     11  C   UNL     1       2.254   5.237  19.052  0.00  0.00    +0.000 C 
ATOM     12  O   UNL     1       1.494   4.447  19.609  0.00  0.00    +0.000 OA
ENDROOT
BRANCH  11  13
ATOM     13  C   UNL     1       2.013   6.684  19.269  0.00  0.00    +0.000 A 
ATOM     14  C   UNL     1       1.804   7.170  20.564  0.00  0.00    +0.000 A 
ATOM     15  C   UNL     1       1.442   8.500  20.767  0.00  0.00    +0.000 A 
ATOM     16  C   UNL     1       1.354   9.372  19.687  0.00  0.00    +0.000 A 
ATOM     17  C   UNL     1       1.651   8.906  18.400  0.00  0.00    +0.000 A 
ATOM     18  C   UNL     1       1.984   7.565  18.184  0.00  0.00    +0.000 A 
BRANCH  16  19
ATOM     19  O   UNL     1       0.993  10.682  19.759  0.00  0.00    +0.000 OA
BRANCH  19  20
ATOM     20  C   UNL     1       0.235  11.267  18.692  0.00  0.00    +0.000 C 
BRANCH  20  21
ATOM     21  C   UNL     1      -0.891  12.198  19.171  0.00  0.00    +0.000 C 
ATOM     22  O   UNL     1      -0.888  12.261  20.614  0.00  0.00    +0.000 OA
ATOM     23  C   UNL     1      -2.220  12.389  20.855  0.00  0.00    +0.000 A 
ATOM     24  C   UNL     1      -2.783  12.637  22.083  0.00  0.00    +0.000 A 
ATOM     25  C   UNL     1      -4.161  12.843  22.132  0.00  0.00    +0.000 A 
ATOM     26  C   UNL     1      -4.928  12.810  20.953  0.00  0.00    +0.000 A 
ATOM     27  C   UNL     1      -4.335  12.496  19.721  0.00  0.00    +0.000 A 
ATOM     28  C   UNL     1      -2.974  12.263  19.707  0.00  0.00    +0.000 A 
ATOM     29  O   UNL     1      -2.205  11.908  18.632  0.00  0.00    +0.000 OA
ENDBRANCH  20  21
ENDBRANCH  19  20
ENDBRANCH  16  19
ENDBRANCH  11  13
BRANCH   5  30
ATOM     30  C   UNL     1       7.134   4.154  15.298  0.00  0.00    +0.000 C 
BRANCH  30  31
ATOM     31  C   UNL     1       6.924   4.416  13.823  0.00  0.00    +0.000 C 
ATOM     32  O   UNL     1       7.445   5.354  13.235  0.00  0.00    +0.000 OA
BRANCH  31  33
ATOM     33  O   UNL     1       6.183   3.495  13.171  0.00  0.00    +0.000 OA
ATOM     34  H   UNL     1       6.697   2.954  12.540  0.00  0.00    +0.000 HD
ENDBRANCH  31  33
ENDBRANCH  30  31
ENDBRANCH   5  30
TORSDOF 7
ENDMDL
MODEL 7
REMARK VINA RESULT:      -8.7      0.821      1.631
REMARK  Name = 
REMARK  8 active torsions:
REMARK  status: ('A' for Active; 'I' for Inactive)
REMARK    1  A    between atoms: C_1  and  C_2
REMARK    2  A    between atoms: C_5  and  C_6
REMARK    3  A    between atoms: C_6  and  C_7
REMARK    4  A    between atoms: C_7  and  O_9
REMARK    5  A    between atoms: C_15  and  C_17
REMARK    6  A    between atoms: C_20  and  O_21
REMARK    7  A    between atoms: O_21  and  C_22
REMARK    8  A    between atoms: C_22  and  C_23
REMARK                            x       y       z     vdW  Elec       q    Type
REMARK                         _______ _______ _______ _____ _____    ______ ____
ROOT
ATOM      1  C   UNL     1       2.271   2.172  17.844  0.00  0.00    +0.000 C 
ATOM      2  C   UNL     1       3.255   3.242  17.506  0.00  0.00    +0.000 A 
ATOM      3  C   UNL     1       4.270   3.192  16.574  0.00  0.00    +0.000 A 
ATOM      4  C   UNL     1       4.956   4.430  16.578  0.00  0.00    +0.000 A 
ATOM      5  C   UNL     1       6.077   4.928  15.855  0.00  0.00    +0.000 A 
ATOM      6  C   UNL     1       6.520   6.236  16.137  0.00  0.00    +0.000 A 
ATOM      7  C   UNL     1       5.943   6.991  17.146  0.00  0.00    +0.000 A 
ATOM      8  C   UNL     1       4.888   6.479  17.899  0.00  0.00    +0.000 A 
ATOM      9  C   UNL     1       4.346   5.221  17.560  0.00  0.00    +0.000 A 
ATOM     10  N   UNL     1       3.235   4.520  18.071  0.00  0.00    +0.000 N 
ATOM     11  C   UNL     1       2.250   5.015  18.976  0.00  0.00    +0.000 C 
ATOM     12  O   UNL     1       1.583   4.201  19.612  0.00  0.00    +0.000 OA
ENDROOT
BRANCH  11  13
ATOM     13  C   UNL     1       1.946   6.452  19.180  0.00  0.00    +0.000 A 
ATOM     14  C   UNL     1       1.936   7.326  18.087  0.00  0.00    +0.000 A 
ATOM     15  C   UNL     1       1.788   8.697  18.284  0.00  0.00    +0.000 A 
ATOM     16  C   UNL     1       1.578   9.200  19.564  0.00  0.00    +0.000 A 
ATOM     17  C   UNL     1       1.499   8.315  20.647  0.00  0.00    +0.000 A 
ATOM     18  C   UNL     1       1.678   6.941  20.462  0.00  0.00    +0.000 A 
BRANCH  16  19
ATOM     19  O   UNL     1       1.438  10.516  19.880  0.00  0.00    +0.000 OA
BRANCH  19  20
ATOM     20  C   UNL     1       0.596  11.352  19.074  0.00  0.00    +0.000 C 
BRANCH  20  21
ATOM     21  C   UNL     1      -0.894  10.980  19.146  0.00  0.00    +0.000 C 
ATOM     22  O   UNL     1      -1.329  10.467  17.867  0.00  0.00    +0.000 OA
ATOM     23  C   UNL     1      -2.608  10.926  17.843  0.00  0.00    +0.000 A 
ATOM     24  C   UNL     1      -3.549  10.602  16.895  0.00  0.00    +0.000 A 
ATOM     25  C   UNL     1      -4.845  11.080  17.081  0.00  0.00    +0.000 A 
ATOM     26  C   UNL     1      -5.163  11.852  18.214  0.00  0.00    +0.000 A 
ATOM     27  C   UNL     1      -4.169  12.217  19.134  0.00  0.00    +0.000 A 
ATOM     28  C   UNL     1      -2.886  11.758  18.907  0.00  0.00    +0.000 A 
ATOM     29  O   UNL     1      -1.769  12.020  19.650  0.00  0.00    +0.000 OA
ENDBRANCH  20  21
ENDBRANCH  19  20
ENDBRANCH  16  19
ENDBRANCH  11  13
BRANCH   5  30
ATOM     30  C   UNL     1       6.859   4.098  14.855  0.00  0.00    +0.000 C 
BRANCH  30  31
ATOM     31  C   UNL     1       6.308   4.051  13.447  0.00  0.00    +0.000 C 
ATOM     32  O   UNL     1       5.132   3.814  13.203  0.00  0.00    +0.000 OA
BRANCH  31  33
ATOM     33  O   UNL     1       7.184   4.369  12.470  0.00  0.00    +0.000 OA
ATOM     34  H   UNL     1       7.954   4.881  12.785  0.00  0.00    +0.000 HD
ENDBRANCH  31  33
ENDBRANCH  30  31
ENDBRANCH   5  30
TORSDOF 7
ENDMDL
MODEL 8
REMARK VINA RESULT:      -8.7      2.115      2.733
REMARK  Name = 
REMARK  8 active torsions:
REMARK  status: ('A' for Active; 'I' for Inactive)
REMARK    1  A    between atoms: C_1  and  C_2
REMARK    2  A    between atoms: C_5  and  C_6
REMARK    3  A    between atoms: C_6  and  C_7
REMARK    4  A    between atoms: C_7  and  O_9
REMARK    5  A    between atoms: C_15  and  C_17
REMARK    6  A    between atoms: C_20  and  O_21
REMARK    7  A    between atoms: O_21  and  C_22
REMARK    8  A    between atoms: C_22  and  C_23
REMARK                            x       y       z     vdW  Elec       q    Type
REMARK                         _______ _______ _______ _____ _____    ______ ____
ROOT
ATOM      1  C   UNL     1       2.442   2.295  18.196  0.00  0.00    +0.000 C 
ATOM      2  C   UNL     1       3.417   3.355  17.803  0.00  0.00    +0.000 A 
ATOM      3  C   UNL     1       4.428   3.268  16.870  0.00  0.00    +0.000 A 
ATOM      4  C   UNL     1       5.104   4.510  16.812  0.00  0.00    +0.000 A 
ATOM      5  C   UNL     1       6.218   4.981  16.061  0.00  0.00    +0.000 A 
ATOM      6  C   UNL     1       6.653   6.304  16.280  0.00  0.00    +0.000 A 
ATOM      7  C   UNL     1       6.075   7.101  17.254  0.00  0.00    +0.000 A 
ATOM      8  C   UNL     1       5.027   6.618  18.035  0.00  0.00    +0.000 A 
ATOM      9  C   UNL     1       4.493   5.342  17.759  0.00  0.00    +0.000 A 
ATOM     10  N   UNL     1       3.390   4.657  18.308  0.00  0.00    +0.000 N 
ATOM     11  C   UNL     1       2.405   5.188  19.193  0.00  0.00    +0.000 C 
ATOM     12  O   UNL     1       1.747   4.400  19.870  0.00  0.00    +0.000 OA
ENDROOT
BRANCH  11  13
ATOM     13  C   UNL     1       2.091   6.631  19.331  0.00  0.00    +0.000 A 
ATOM     14  C   UNL     1       1.818   7.168  20.593  0.00  0.00    +0.000 A 
ATOM     15  C   UNL     1       1.389   8.488  20.718  0.00  0.00    +0.000 A 
ATOM     16  C   UNL     1       1.297   9.302  19.594  0.00  0.00    +0.000 A 
ATOM     17  C   UNL     1       1.657   8.788  18.341  0.00  0.00    +0.000 A 
ATOM     18  C   UNL     1       2.058   7.456  18.203  0.00  0.00    +0.000 A 
BRANCH  16  19
ATOM     19  O   UNL     1       0.876  10.596  19.590  0.00  0.00    +0.000 OA
BRANCH  19  20
ATOM     20  C   UNL     1       0.621  11.261  20.835  0.00  0.00    +0.000 C 
BRANCH  20  21
ATOM     21  C   UNL     1      -0.853  11.216  21.270  0.00  0.00    +0.000 C 
ATOM     22  O   UNL     1      -1.637  12.080  20.417  0.00  0.00    +0.000 OA
ATOM     23  C   UNL     1      -2.564  12.523  21.306  0.00  0.00    +0.000 A 
ATOM     24  C   UNL     1      -3.666  13.281  20.991  0.00  0.00    +0.000 A 
ATOM     25  C   UNL     1      -4.572  13.561  22.013  0.00  0.00    +0.000 A 
ATOM     26  C   UNL     1      -4.356  13.063  23.311  0.00  0.00    +0.000 A 
ATOM     27  C   UNL     1      -3.192  12.342  23.618  0.00  0.00    +0.000 A 
ATOM     28  C   UNL     1      -2.295  12.108  22.594  0.00  0.00    +0.000 A 
ATOM     29  O   UNL     1      -1.092  11.465  22.678  0.00  0.00    +0.000 OA
ENDBRANCH  20  21
ENDBRANCH  19  20
ENDBRANCH  16  19
ENDBRANCH  11  13
BRANCH   5  30
ATOM     30  C   UNL     1       7.003   4.111  15.098  0.00  0.00    +0.000 C 
BRANCH  30  31
ATOM     31  C   UNL     1       6.952   4.513  13.641  0.00  0.00    +0.000 C 
ATOM     32  O   UNL     1       7.690   5.364  13.161  0.00  0.00    +0.000 OA
BRANCH  31  33
ATOM     33  O   UNL     1       6.088   3.812  12.875  0.00  0.00    +0.000 OA
ATOM     34  H   UNL     1       5.415   4.367  12.436  0.00  0.00    +0.000 HD
ENDBRANCH  31  33
ENDBRANCH  30  31
ENDBRANCH   5  30
TORSDOF 7
ENDMDL
MODEL 9
REMARK VINA RESULT:      -8.6      1.656      2.453
REMARK  Name = 
REMARK  8 active torsions:
REMARK  status: ('A' for Active; 'I' for Inactive)
REMARK    1  A    between atoms: C_1  and  C_2
REMARK    2  A    between atoms: C_5  and  C_6
REMARK    3  A    between atoms: C_6  and  C_7
REMARK    4  A    between atoms: C_7  and  O_9
REMARK    5  A    between atoms: C_15  and  C_17
REMARK    6  A    between atoms: C_20  and  O_21
REMARK    7  A    between atoms: O_21  and  C_22
REMARK    8  A    between atoms: C_22  and  C_23
REMARK                            x       y       z     vdW  Elec       q    Type
REMARK                         _______ _______ _______ _____ _____    ______ ____
ROOT
ATOM      1  C   UNL     1       2.480   2.651  19.658  0.00  0.00    +0.000 C 
ATOM      2  C   UNL     1       3.245   3.590  18.786  0.00  0.00    +0.000 A 
ATOM      3  C   UNL     1       4.026   3.280  17.692  0.00  0.00    +0.000 A 
ATOM      4  C   UNL     1       4.560   4.477  17.158  0.00  0.00    +0.000 A 
ATOM      5  C   UNL     1       5.433   4.756  16.068  0.00  0.00    +0.000 A 
ATOM      6  C   UNL     1       5.787   6.099  15.830  0.00  0.00    +0.000 A 
ATOM      7  C   UNL     1       5.372   7.115  16.675  0.00  0.00    +0.000 A 
ATOM      8  C   UNL     1       4.572   6.834  17.782  0.00  0.00    +0.000 A 
ATOM      9  C   UNL     1       4.105   5.517  17.977  0.00  0.00    +0.000 A 
ATOM     10  N   UNL     1       3.216   4.979  18.930  0.00  0.00    +0.000 N 
ATOM     11  C   UNL     1       2.411   5.704  19.858  0.00  0.00    +0.000 C 
ATOM     12  O   UNL     1       1.992   5.112  20.852  0.00  0.00    +0.000 OA
ENDROOT
BRANCH  11  13
ATOM     13  C   UNL     1       2.010   7.122  19.692  0.00  0.00    +0.000 A 
ATOM     14  C   UNL     1       1.609   7.869  20.805  0.00  0.00    +0.000 A 
ATOM     15  C   UNL     1       1.101   9.157  20.642  0.00  0.00    +0.000 A 
ATOM     16  C   UNL     1       1.055   9.734  19.378  0.00  0.00    +0.000 A 
ATOM     17  C   UNL     1       1.540   9.018  18.275  0.00  0.00    +0.000 A 
ATOM     18  C   UNL     1       2.021   7.714  18.426  0.00  0.00    +0.000 A 
BRANCH  16  19
ATOM     19  O   UNL     1       0.566  10.972  19.094  0.00  0.00    +0.000 OA
BRANCH  19  20
ATOM     20  C   UNL     1      -0.774  11.107  18.601  0.00  0.00    +0.000 C 
BRANCH  20  21
ATOM     21  C   UNL     1      -1.614  12.143  19.367  0.00  0.00    +0.000 C 
ATOM     22  O   UNL     1      -1.299  12.077  20.775  0.00  0.00    +0.000 OA
ATOM     23  C   UNL     1      -2.513  12.372  21.310  0.00  0.00    +0.000 A 
ATOM     24  C   UNL     1      -2.761  12.588  22.644  0.00  0.00    +0.000 A 
ATOM     25  C   UNL     1      -4.047  12.982  23.007  0.00  0.00    +0.000 A 
ATOM     26  C   UNL     1      -5.040  13.163  22.026  0.00  0.00    +0.000 A 
ATOM     27  C   UNL     1      -4.775  12.877  20.678  0.00  0.00    +0.000 A 
ATOM     28  C   UNL     1      -3.501  12.455  20.351  0.00  0.00    +0.000 A 
ATOM     29  O   UNL     1      -3.041  12.091  19.116  0.00  0.00    +0.000 OA
ENDBRANCH  20  21
ENDBRANCH  19  20
ENDBRANCH  16  19
ENDBRANCH  11  13
BRANCH   5  30
ATOM     30  C   UNL     1       6.056   3.677  15.202  0.00  0.00    +0.000 C 
BRANCH  30  31
ATOM     31  C   UNL     1       6.390   4.071  13.781  0.00  0.00    +0.000 C 
ATOM     32  O   UNL     1       5.830   3.583  12.808  0.00  0.00    +0.000 OA
BRANCH  31  33
ATOM     33  O   UNL     1       7.297   5.063  13.651  0.00  0.00    +0.000 OA
ATOM     34  H   UNL     1       8.044   4.996  14.279  0.00  0.00    +0.000 HD
ENDBRANCH  31  33
ENDBRANCH  30  31
ENDBRANCH   5  30
TORSDOF 7
ENDMDL
