MODEL 1
REMARK VINA RESULT:      -7.4      0.000      0.000
REMARK  Name = 
REMARK  6 active torsions:
REMARK  status: ('A' for Active; 'I' for Inactive)
REMARK    1  A    between atoms: C_1  and  C_2
REMARK    2  A    between atoms: C_4  and  C_5
REMARK    3  A    between atoms: C_6  and  C_7
REMARK    4  A    between atoms: C_10  and  N_11
REMARK    5  A    between atoms: C_16  and  C_17
REMARK    6  A    between atoms: C_19  and  C_20
REMARK                            x       y       z     vdW  Elec       q    Type
REMARK                         _______ _______ _______ _____ _____    ______ ____
ROOT
ATOM      1  C   UNL     1       3.104   6.721  18.317  0.00  0.00    +0.000 A 
ATOM      2  C   UNL     1       4.201   7.340  17.728  0.00  0.00    +0.000 A 
ATOM      3  N   UNL     1       5.050   6.772  16.826  0.00  0.00    +0.000 NA
ATOM      4  C   UNL     1       4.865   5.463  16.520  0.00  0.00    +0.000 A 
ATOM      5  C   UNL     1       3.902   4.690  17.159  0.00  0.00    +0.000 A 
ATOM      6  C   UNL     1       3.898   3.188  17.254  0.00  0.00    +0.000 C 
ATOM      7  C   UNL     1       2.961   5.369  17.966  0.00  0.00    +0.000 A 
ENDROOT
BRANCH   1  13
ATOM      8  C   UNL     1      -0.408   9.451  22.159  0.00  0.00    +0.000 C 
ATOM      9  C   UNL     1       0.470   8.735  21.178  0.00  0.00    +0.000 A 
ATOM     10  C   UNL     1       0.915   7.440  21.412  0.00  0.00    +0.000 A 
ATOM     11  C   UNL     1       1.781   6.773  20.511  0.00  0.00    +0.000 A 
ATOM     12  C   UNL     1       2.194   5.385  20.932  0.00  0.00    +0.000 C 
ATOM     13  C   UNL     1       2.194   7.403  19.295  0.00  0.00    +0.000 A 
ATOM     14  C   UNL     1       1.687   8.719  19.053  0.00  0.00    +0.000 A 
ATOM     15  C   UNL     1       1.971   9.554  17.824  0.00  0.00    +0.000 C 
ATOM     16  C   UNL     1       0.871   9.367  20.008  0.00  0.00    +0.000 A 
ENDBRANCH   1  13
BRANCH   4  17
ATOM     17  N   UNL     1       5.693   4.955  15.484  0.00  0.00    +0.000 N 
ATOM     18  C   UNL     1       5.347   4.343  14.310  0.00  0.00    +0.000 A 
ATOM     19  N   UNL     1       6.421   4.033  13.619  0.00  0.00    +0.000 NA
ATOM     20  N   UNL     1       7.507   4.509  14.311  0.00  0.00    +0.000 NA
ATOM     21  C   UNL     1       7.053   5.090  15.397  0.00  0.00    +0.000 A 
ENDBRANCH   4  17
TORSDOF 2
ENDMDL
MODEL 2
REMARK VINA RESULT:      -7.3      3.343      7.380
REMARK  Name = 
REMARK  6 active torsions:
REMARK  status: ('A' for Active; 'I' for Inactive)
REMARK    1  A    between atoms: C_1  and  C_2
REMARK    2  A    between atoms: C_4  and  C_5
REMARK    3  A    between atoms: C_6  and  C_7
REMARK    4  A    between atoms: C_10  and  N_11
REMARK    5  A    between atoms: C_16  and  C_17
REMARK    6  A    between atoms: C_19  and  C_20
REMARK                            x       y       z     vdW  Elec       q    Type
REMARK                         _______ _______ _______ _____ _____    ______ ____
ROOT
ATOM      1  C   UNL     1       3.154   6.538  18.409  0.00  0.00    +0.000 A 
ATOM      2  C   UNL     1       3.145   6.237  19.767  0.00  0.00    +0.000 A 
ATOM      3  N   UNL     1       2.442   6.900  20.727  0.00  0.00    +0.000 NA
ATOM      4  C   UNL     1       1.741   8.000  20.353  0.00  0.00    +0.000 A 
ATOM      5  C   UNL     1       1.796   8.497  19.056  0.00  0.00    +0.000 A 
ATOM      6  C   UNL     1       1.462   9.904  18.637  0.00  0.00    +0.000 C 
ATOM      7  C   UNL     1       2.415   7.684  18.079  0.00  0.00    +0.000 A 
ENDROOT
BRANCH   1  13
ATOM      8  C   UNL     1       6.213   3.549  14.377  0.00  0.00    +0.000 C 
ATOM      9  C   UNL     1       5.435   4.291  15.422  0.00  0.00    +0.000 A 
ATOM     10  C   UNL     1       4.302   3.744  16.009  0.00  0.00    +0.000 A 
ATOM     11  C   UNL     1       3.537   4.457  16.964  0.00  0.00    +0.000 A 
ATOM     12  C   UNL     1       2.319   3.730  17.477  0.00  0.00    +0.000 C 
ATOM     13  C   UNL     1       3.939   5.761  17.393  0.00  0.00    +0.000 A 
ATOM     14  C   UNL     1       5.134   6.286  16.809  0.00  0.00    +0.000 A 
ATOM     15  C   UNL     1       5.753   7.627  17.138  0.00  0.00    +0.000 C 
ATOM     16  C   UNL     1       5.833   5.562  15.817  0.00  0.00    +0.000 A 
ENDBRANCH   1  13
BRANCH   4  17
ATOM     17  N   UNL     1       0.928   8.578  21.363  0.00  0.00    +0.000 N 
ATOM     18  C   UNL     1      -0.423   8.472  21.564  0.00  0.00    +0.000 A 
ATOM     19  N   UNL     1      -0.785   9.157  22.626  0.00  0.00    +0.000 NA
ATOM     20  N   UNL     1       0.355   9.675  23.189  0.00  0.00    +0.000 NA
ATOM     21  C   UNL     1       1.368   9.287  22.449  0.00  0.00    +0.000 A 
ENDBRANCH   4  17
TORSDOF 2
ENDMDL
MODEL 3
REMARK VINA RESULT:      -7.2      0.157      1.926
REMARK  Name = 
REMARK  6 active torsions:
REMARK  status: ('A' for Active; 'I' for Inactive)
REMARK    1  A    between atoms: C_1  and  C_2
REMARK    2  A    between atoms: C_4  and  C_5
REMARK    3  A    between atoms: C_6  and  C_7
REMARK    4  A    between atoms: C_10  and  N_11
REMARK    5  A    between atoms: C_16  and  C_17
REMARK    6  A    between atoms: C_19  and  C_20
REMARK                            x       y       z     vdW  Elec       q    Type
REMARK                         _______ _______ _______ _____ _____    ______ ____
ROOT
ATOM      1  C   UNL     1       3.100   6.659  18.238  0.00  0.00    +0.000 A 
ATOM      2  C   UNL     1       4.130   7.296  17.554  0.00  0.00    +0.000 A 
ATOM      3  N   UNL     1       4.949   6.720  16.629  0.00  0.00    +0.000 NA
ATOM      4  C   UNL     1       4.809   5.391  16.398  0.00  0.00    +0.000 A 
ATOM      5  C   UNL     1       3.922   4.610  17.132  0.00  0.00    +0.000 A 
ATOM      6  C   UNL     1       3.996   3.115  17.298  0.00  0.00    +0.000 C 
ATOM      7  C   UNL     1       3.000   5.286  17.962  0.00  0.00    +0.000 A 
ENDROOT
BRANCH   1  13
ATOM      8  C   UNL     1      -0.408   9.306  22.142  0.00  0.00    +0.000 C 
ATOM      9  C   UNL     1       0.503   8.652  21.148  0.00  0.00    +0.000 A 
ATOM     10  C   UNL     1       0.888   9.297  19.980  0.00  0.00    +0.000 A 
ATOM     11  C   UNL     1       1.713   8.668  19.016  0.00  0.00    +0.000 A 
ATOM     12  C   UNL     1       2.009   9.498  17.791  0.00  0.00    +0.000 C 
ATOM     13  C   UNL     1       2.218   7.349  19.237  0.00  0.00    +0.000 A 
ATOM     14  C   UNL     1       1.845   6.720  20.467  0.00  0.00    +0.000 A 
ATOM     15  C   UNL     1       2.289   5.345  20.916  0.00  0.00    +0.000 C 
ATOM     16  C   UNL     1       0.974   7.364  21.374  0.00  0.00    +0.000 A 
ENDBRANCH   1  13
BRANCH   4  17
ATOM     17  N   UNL     1       5.596   4.869  15.339  0.00  0.00    +0.000 N 
ATOM     18  C   UNL     1       5.205   4.254  14.180  0.00  0.00    +0.000 A 
ATOM     19  N   UNL     1       6.253   3.929  13.456  0.00  0.00    +0.000 NA
ATOM     20  N   UNL     1       7.366   4.397  14.109  0.00  0.00    +0.000 NA
ATOM     21  C   UNL     1       6.955   4.989  15.206  0.00  0.00    +0.000 A 
ENDBRANCH   4  17
TORSDOF 2
ENDMDL
MODEL 4
REMARK VINA RESULT:      -7.1      3.368      7.543
REMARK  Name = 
REMARK  6 active torsions:
REMARK  status: ('A' for Active; 'I' for Inactive)
REMARK    1  A    between atoms: C_1  and  C_2
REMARK    2  A    between atoms: C_4  and  C_5
REMARK    3  A    between atoms: C_6  and  C_7
REMARK    4  A    between atoms: C_10  and  N_11
REMARK    5  A    between atoms: C_16  and  C_17
REMARK    6  A    between atoms: C_19  and  C_20
REMARK                            x       y       z     vdW  Elec       q    Type
REMARK                         _______ _______ _______ _____ _____    ______ ____
ROOT
ATOM      1  C   UNL     1       3.115   6.581  18.442  0.00  0.00    +0.000 A 
ATOM      2  C   UNL     1       3.104   6.273  19.798  0.00  0.00    +0.000 A 
ATOM      3  N   UNL     1       2.402   6.934  20.761  0.00  0.00    +0.000 NA
ATOM      4  C   UNL     1       1.705   8.038  20.392  0.00  0.00    +0.000 A 
ATOM      5  C   UNL     1       1.761   8.540  19.096  0.00  0.00    +0.000 A 
ATOM      6  C   UNL     1       1.432   9.950  18.683  0.00  0.00    +0.000 C 
ATOM      7  C   UNL     1       2.378   7.730  18.116  0.00  0.00    +0.000 A 
ENDROOT
BRANCH   1  13
ATOM      8  C   UNL     1       6.194   3.489  14.503  0.00  0.00    +0.000 C 
ATOM      9  C   UNL     1       5.406   4.297  15.490  0.00  0.00    +0.000 A 
ATOM     10  C   UNL     1       5.791   5.583  15.848  0.00  0.00    +0.000 A 
ATOM     11  C   UNL     1       5.077   6.335  16.812  0.00  0.00    +0.000 A 
ATOM     12  C   UNL     1       5.649   7.699  17.108  0.00  0.00    +0.000 C 
ATOM     13  C   UNL     1       3.897   5.806  17.422  0.00  0.00    +0.000 A 
ATOM     14  C   UNL     1       3.494   4.498  17.006  0.00  0.00    +0.000 A 
ATOM     15  C   UNL     1       2.267   3.762  17.498  0.00  0.00    +0.000 C 
ATOM     16  C   UNL     1       4.269   3.762  16.082  0.00  0.00    +0.000 A 
ENDBRANCH   1  13
BRANCH   4  17
ATOM     17  N   UNL     1       0.893   8.613  21.403  0.00  0.00    +0.000 N 
ATOM     18  C   UNL     1      -0.456   8.503  21.609  0.00  0.00    +0.000 A 
ATOM     19  N   UNL     1      -0.817   9.187  22.672  0.00  0.00    +0.000 NA
ATOM     20  N   UNL     1       0.323   9.710  23.231  0.00  0.00    +0.000 NA
ATOM     21  C   UNL     1       1.334   9.325  22.488  0.00  0.00    +0.000 A 
ENDBRANCH   4  17
TORSDOF 2
ENDMDL
MODEL 5
REMARK VINA RESULT:      -7.0      3.369      6.920
REMARK  Name = 
REMARK  6 active torsions:
REMARK  status: ('A' for Active; 'I' for Inactive)
REMARK    1  A    between atoms: C_1  and  C_2
REMARK    2  A    between atoms: C_4  and  C_5
REMARK    3  A    between atoms: C_6  and  C_7
REMARK    4  A    between atoms: C_10  and  N_11
REMARK    5  A    between atoms: C_16  and  C_17
REMARK    6  A    between atoms: C_19  and  C_20
REMARK                            x       y       z     vdW  Elec       q    Type
REMARK                         _______ _______ _______ _____ _____    ______ ____
ROOT
ATOM      1  C   UNL     1       2.427   6.857  19.236  0.00  0.00    +0.000 A 
ATOM      2  C   UNL     1       2.233   7.510  18.023  0.00  0.00    +0.000 A 
ATOM      3  N   UNL     1       1.707   8.757  17.862  0.00  0.00    +0.000 NA
ATOM      4  C   UNL     1       1.261   9.403  18.969  0.00  0.00    +0.000 A 
ATOM      5  C   UNL     1       1.254   8.795  20.219  0.00  0.00    +0.000 A 
ATOM      6  C   UNL     1       0.398   9.199  21.390  0.00  0.00    +0.000 C 
ATOM      7  C   UNL     1       1.947   7.570  20.345  0.00  0.00    +0.000 A 
ENDROOT
BRANCH   1  13
ATOM      8  C   UNL     1       4.767   1.492  19.770  0.00  0.00    +0.000 C 
ATOM      9  C   UNL     1       4.176   2.859  19.608  0.00  0.00    +0.000 A 
ATOM     10  C   UNL     1       4.888   3.894  19.016  0.00  0.00    +0.000 A 
ATOM     11  C   UNL     1       4.352   5.200  18.899  0.00  0.00    +0.000 A 
ATOM     12  C   UNL     1       5.271   6.212  18.261  0.00  0.00    +0.000 C 
ATOM     13  C   UNL     1       3.026   5.486  19.352  0.00  0.00    +0.000 A 
ATOM     14  C   UNL     1       2.294   4.395  19.918  0.00  0.00    +0.000 A 
ATOM     15  C   UNL     1       0.873   4.468  20.431  0.00  0.00    +0.000 C 
ATOM     16  C   UNL     1       2.891   3.123  20.065  0.00  0.00    +0.000 A 
ENDBRANCH   1  13
BRANCH   4  17
ATOM     17  N   UNL     1       0.841  10.744  18.764  0.00  0.00    +0.000 N 
ATOM     18  C   UNL     1      -0.420  11.247  18.587  0.00  0.00    +0.000 A 
ATOM     19  N   UNL     1      -0.378  12.552  18.441  0.00  0.00    +0.000 NA
ATOM     20  N   UNL     1       0.930  12.941  18.593  0.00  0.00    +0.000 NA
ATOM     21  C   UNL     1       1.635  11.858  18.825  0.00  0.00    +0.000 A 
ENDBRANCH   4  17
TORSDOF 2
ENDMDL
MODEL 6
REMARK VINA RESULT:      -7.0      3.645      7.637
REMARK  Name = 
REMARK  6 active torsions:
REMARK  status: ('A' for Active; 'I' for Inactive)
REMARK    1  A    between atoms: C_1  and  C_2
REMARK    2  A    between atoms: C_4  and  C_5
REMARK    3  A    between atoms: C_6  and  C_7
REMARK    4  A    between atoms: C_10  and  N_11
REMARK    5  A    between atoms: C_16  and  C_17
REMARK    6  A    between atoms: C_19  and  C_20
REMARK                            x       y       z     vdW  Elec       q    Type
REMARK                         _______ _______ _______ _____ _____    ______ ____
ROOT
ATOM      1  C   UNL     1       2.632   7.040  18.703  0.00  0.00    +0.000 A 
ATOM      2  C   UNL     1       2.441   6.870  20.070  0.00  0.00    +0.000 A 
ATOM      3  N   UNL     1       1.751   7.712  20.890  0.00  0.00    +0.000 NA
ATOM      4  C   UNL     1       1.264   8.860  20.355  0.00  0.00    +0.000 A 
ATOM      5  C   UNL     1       1.524   9.221  19.038  0.00  0.00    +0.000 A 
ATOM      6  C   UNL     1       1.449  10.616  18.476  0.00  0.00    +0.000 C 
ATOM      7  C   UNL     1       2.110   8.242  18.203  0.00  0.00    +0.000 A 
ENDROOT
BRANCH   1  13
ATOM      8  C   UNL     1       5.607   3.186  15.409  0.00  0.00    +0.000 C 
ATOM      9  C   UNL     1       4.849   4.187  16.229  0.00  0.00    +0.000 A 
ATOM     10  C   UNL     1       5.341   5.466  16.451  0.00  0.00    +0.000 A 
ATOM     11  C   UNL     1       4.652   6.401  17.261  0.00  0.00    +0.000 A 
ATOM     12  C   UNL     1       5.342   7.733  17.426  0.00  0.00    +0.000 C 
ATOM     13  C   UNL     1       3.390   6.069  17.847  0.00  0.00    +0.000 A 
ATOM     14  C   UNL     1       2.881   4.761  17.567  0.00  0.00    +0.000 A 
ATOM     15  C   UNL     1       1.559   4.214  18.057  0.00  0.00    +0.000 C 
ATOM     16  C   UNL     1       3.631   3.842  16.800  0.00  0.00    +0.000 A 
ENDBRANCH   1  13
BRANCH   4  17
ATOM     17  N   UNL     1       0.448   9.638  21.217  0.00  0.00    +0.000 N 
ATOM     18  C   UNL     1      -0.597  10.469  20.917  0.00  0.00    +0.000 A 
ATOM     19  N   UNL     1      -1.096  10.996  22.013  0.00  0.00    +0.000 NA
ATOM     20  N   UNL     1      -0.417  10.454  23.076  0.00  0.00    +0.000 NA
ATOM     21  C   UNL     1       0.469   9.618  22.587  0.00  0.00    +0.000 A 
ENDBRANCH   4  17
TORSDOF 2
ENDMDL
MODEL 7
REMARK VINA RESULT:      -7.0      3.400      6.828
REMARK  Name = 
REMARK  6 active torsions:
REMARK  status: ('A' for Active; 'I' for Inactive)
REMARK    1  A    between atoms: C_1  and  C_2
REMARK    2  A    between atoms: C_4  and  C_5
REMARK    3  A    between atoms: C_6  and  C_7
REMARK    4  A    between atoms: C_10  and  N_11
REMARK    5  A    between atoms: C_16  and  C_17
REMARK    6  A    between atoms: C_19  and  C_20
REMARK                            x       y       z     vdW  Elec       q    Type
REMARK                         _______ _______ _______ _____ _____    ______ ____
ROOT
ATOM      1  C   UNL     1       2.442   6.787  19.341  0.00  0.00    +0.000 A 
ATOM      2  C   UNL     1       2.281   7.449  18.129  0.00  0.00    +0.000 A 
ATOM      3  N   UNL     1       1.770   8.702  17.965  0.00  0.00    +0.000 NA
ATOM      4  C   UNL     1       1.304   9.345  19.066  0.00  0.00    +0.000 A 
ATOM      5  C   UNL     1       1.263   8.728  20.311  0.00  0.00    +0.000 A 
ATOM      6  C   UNL     1       0.384   9.131  21.465  0.00  0.00    +0.000 C 
ATOM      7  C   UNL     1       1.943   7.495  20.444  0.00  0.00    +0.000 A 
ENDROOT
BRANCH   1  13
ATOM      8  C   UNL     1       4.742   1.392  19.733  0.00  0.00    +0.000 C 
ATOM      9  C   UNL     1       4.150   2.766  19.659  0.00  0.00    +0.000 A 
ATOM     10  C   UNL     1       2.853   3.023  20.086  0.00  0.00    +0.000 A 
ATOM     11  C   UNL     1       2.272   4.310  19.978  0.00  0.00    +0.000 A 
ATOM     12  C   UNL     1       0.845   4.408  20.457  0.00  0.00    +0.000 C 
ATOM     13  C   UNL     1       3.027   5.410  19.461  0.00  0.00    +0.000 A 
ATOM     14  C   UNL     1       4.375   5.132  19.070  0.00  0.00    +0.000 A 
ATOM     15  C   UNL     1       5.355   6.149  18.528  0.00  0.00    +0.000 C 
ATOM     16  C   UNL     1       4.894   3.820  19.143  0.00  0.00    +0.000 A 
ENDBRANCH   1  13
BRANCH   4  17
ATOM     17  N   UNL     1       0.900  10.690  18.862  0.00  0.00    +0.000 N 
ATOM     18  C   UNL     1       1.660  11.824  18.757  0.00  0.00    +0.000 A 
ATOM     19  N   UNL     1       0.895  12.874  18.559  0.00  0.00    +0.000 NA
ATOM     20  N   UNL     1      -0.399  12.426  18.457  0.00  0.00    +0.000 NA
ATOM     21  C   UNL     1      -0.373  11.121  18.599  0.00  0.00    +0.000 A 
ENDBRANCH   4  17
TORSDOF 2
ENDMDL
MODEL 8
REMARK VINA RESULT:      -6.9      3.397      7.125
REMARK  Name = 
REMARK  6 active torsions:
REMARK  status: ('A' for Active; 'I' for Inactive)
REMARK    1  A    between atoms: C_1  and  C_2
REMARK    2  A    between atoms: C_4  and  C_5
REMARK    3  A    between atoms: C_6  and  C_7
REMARK    4  A    between atoms: C_10  and  N_11
REMARK    5  A    between atoms: C_16  and  C_17
REMARK    6  A    between atoms: C_19  and  C_20
REMARK                            x       y       z     vdW  Elec       q    Type
REMARK                         _______ _______ _______ _____ _____    ______ ____
ROOT
ATOM      1  C   UNL     1       2.172   7.045  18.836  0.00  0.00    +0.000 A 
ATOM      2  C   UNL     1       1.861   7.874  17.764  0.00  0.00    +0.000 A 
ATOM      3  N   UNL     1       1.450   9.171  17.852  0.00  0.00    +0.000 NA
ATOM      4  C   UNL     1       1.252   9.691  19.090  0.00  0.00    +0.000 A 
ATOM      5  C   UNL     1       1.377   8.916  20.238  0.00  0.00    +0.000 A 
ATOM      6  C   UNL     1       0.761   9.221  21.577  0.00  0.00    +0.000 C 
ATOM      7  C   UNL     1       1.949   7.632  20.091  0.00  0.00    +0.000 A 
ENDROOT
BRANCH   1  13
ATOM      8  C   UNL     1       4.003   1.485  18.292  0.00  0.00    +0.000 C 
ATOM      9  C   UNL     1       3.534   2.904  18.404  0.00  0.00    +0.000 A 
ATOM     10  C   UNL     1       4.138   3.929  17.688  0.00  0.00    +0.000 A 
ATOM     11  C   UNL     1       3.728   5.278  17.823  0.00  0.00    +0.000 A 
ATOM     12  C   UNL     1       4.511   6.268  16.998  0.00  0.00    +0.000 C 
ATOM     13  C   UNL     1       2.635   5.626  18.678  0.00  0.00    +0.000 A 
ATOM     14  C   UNL     1       1.999   4.549  19.371  0.00  0.00    +0.000 A 
ATOM     15  C   UNL     1       0.811   4.686  20.299  0.00  0.00    +0.000 C 
ATOM     16  C   UNL     1       2.479   3.225  19.249  0.00  0.00    +0.000 A 
ENDBRANCH   1  13
BRANCH   4  17
ATOM     17  N   UNL     1       0.948  11.076  19.128  0.00  0.00    +0.000 N 
ATOM     18  C   UNL     1       1.786  12.152  19.256  0.00  0.00    +0.000 A 
ATOM     19  N   UNL     1       1.102  13.273  19.235  0.00  0.00    +0.000 NA
ATOM     20  N   UNL     1      -0.214  12.948  19.018  0.00  0.00    +0.000 NA
ATOM     21  C   UNL     1      -0.282  11.641  18.916  0.00  0.00    +0.000 A 
ENDBRANCH   4  17
TORSDOF 2
ENDMDL
MODEL 9
REMARK VINA RESULT:      -6.9      3.457      7.355
REMARK  Name = 
REMARK  6 active torsions:
REMARK  status: ('A' for Active; 'I' for Inactive)
REMARK    1  A    between atoms: C_1  and  C_2
REMARK    2  A    between atoms: C_4  and  C_5
REMARK    3  A    between atoms: C_6  and  C_7
REMARK    4  A    between atoms: C_10  and  N_11
REMARK    5  A    between atoms: C_16  and  C_17
REMARK    6  A    between atoms: C_19  and  C_20
REMARK                            x       y       z     vdW  Elec       q    Type
REMARK                         _______ _______ _______ _____ _____    ______ ____
ROOT
ATOM      1  C   UNL     1       2.717   7.411  18.332  0.00  0.00    +0.000 A 
ATOM      2  C   UNL     1       2.155   8.474  17.634  0.00  0.00    +0.000 A 
ATOM      3  N   UNL     1       1.410   9.479  18.176  0.00  0.00    +0.000 NA
ATOM      4  C   UNL     1       1.120   9.410  19.499  0.00  0.00    +0.000 A 
ATOM      5  C   UNL     1       1.490   8.317  20.274  0.00  0.00    +0.000 A 
ATOM      6  C   UNL     1       0.861   7.909  21.579  0.00  0.00    +0.000 C 
ATOM      7  C   UNL     1       2.385   7.388  19.695  0.00  0.00    +0.000 A 
ENDROOT
BRANCH   1  13
ATOM      8  C   UNL     1       5.958   3.257  15.725  0.00  0.00    +0.000 C 
ATOM      9  C   UNL     1       5.128   4.300  16.411  0.00  0.00    +0.000 A 
ATOM     10  C   UNL     1       3.845   4.024  16.866  0.00  0.00    +0.000 A 
ATOM     11  C   UNL     1       3.039   5.017  17.476  0.00  0.00    +0.000 A 
ATOM     12  C   UNL     1       1.661   4.558  17.882  0.00  0.00    +0.000 C 
ATOM     13  C   UNL     1       3.544   6.339  17.683  0.00  0.00    +0.000 A 
ATOM     14  C   UNL     1       4.883   6.588  17.247  0.00  0.00    +0.000 A 
ATOM     15  C   UNL     1       5.622   7.900  17.394  0.00  0.00    +0.000 C 
ATOM     16  C   UNL     1       5.630   5.582  16.593  0.00  0.00    +0.000 A 
ENDBRANCH   1  13
BRANCH   4  17
ATOM     17  N   UNL     1       0.452  10.541  20.037  0.00  0.00    +0.000 N 
ATOM     18  C   UNL     1       0.952  11.588  20.764  0.00  0.00    +0.000 A 
ATOM     19  N   UNL     1      -0.004  12.439  21.062  0.00  0.00    +0.000 NA
ATOM     20  N   UNL     1      -1.155  11.991  20.463  0.00  0.00    +0.000 NA
ATOM     21  C   UNL     1      -0.857  10.884  19.824  0.00  0.00    +0.000 A 
ENDBRANCH   4  17
TORSDOF 2
ENDMDL
