MODEL 1
REMARK VINA RESULT:      -8.2      0.000      0.000
REMARK  Name = 
REMARK  5 active torsions:
REMARK  status: ('A' for Active; 'I' for Inactive)
REMARK    1  A    between atoms: C_1  and  C_2
REMARK    2  A    between atoms: C_5  and  C_6
REMARK    3  A    between atoms: C_13  and  C_14
REMARK    4  A    between atoms: C_17  and  S_18
REMARK    5  A    between atoms: S_18  and  C_19
REMARK                            x       y       z     vdW  Elec       q    Type
REMARK                         _______ _______ _______ _____ _____    ______ ____
ROOT
ATOM      1  C   UNL     1       3.559   4.730  18.241  0.00  0.00    +0.000 A 
ATOM      2  C   UNL     1       3.680   3.369  17.853  0.00  0.00    +0.000 A 
ATOM      3  C   UNL     1       2.625   2.476  17.969  0.00  0.00    +0.000 A 
ATOM      4  F   UNL     1       2.792   1.203  17.587  0.00  0.00    +0.000 F 
ATOM      5  C   UNL     1       1.416   2.900  18.479  0.00  0.00    +0.000 A 
ATOM      6  F   UNL     1       0.402   2.036  18.629  0.00  0.00    +0.000 F 
ATOM      7  C   UNL     1       1.242   4.227  18.849  0.00  0.00    +0.000 A 
ATOM      8  C   UNL     1       2.283   5.176  18.739  0.00  0.00    +0.000 A 
ENDROOT
BRANCH   1  13
ATOM      9  C   UNL     1       8.420   7.930  17.572  0.00  0.00    +0.000 C 
ATOM     10  C   UNL     1       7.175   7.116  17.783  0.00  0.00    +0.000 A 
ATOM     11  C   UNL     1       6.039   7.380  17.014  0.00  0.00    +0.000 A 
ATOM     12  C   UNL     1       4.855   6.658  17.211  0.00  0.00    +0.000 A 
ATOM     13  C   UNL     1       4.783   5.582  18.108  0.00  0.00    +0.000 A 
ATOM     14  C   UNL     1       5.931   5.340  18.892  0.00  0.00    +0.000 A 
ATOM     15  C   UNL     1       7.094   6.110  18.753  0.00  0.00    +0.000 A 
ATOM     16 CL   UNL     1       8.413   5.781  19.822  0.00  0.00    +0.000 Cl
ENDBRANCH   1  13
BRANCH   8  17
ATOM     17  C   UNL     1       1.990   6.584  19.159  0.00  0.00    +0.000 A 
ATOM     18  C   UNL     1       1.869   7.615  18.199  0.00  0.00    +0.000 A 
ATOM     19  C   UNL     1       1.493   8.916  18.557  0.00  0.00    +0.000 A 
ATOM     20  C   UNL     1       1.185   9.199  19.882  0.00  0.00    +0.000 A 
ATOM     21  C   UNL     1       1.356   8.227  20.867  0.00  0.00    +0.000 A 
ATOM     22  C   UNL     1       1.795   6.947  20.505  0.00  0.00    +0.000 A 
BRANCH  20  23
ATOM     23  S   UNL     1       0.609  10.819  20.333  0.00  0.00    +0.000 S 
ATOM     24  C   UNL     1       1.354  11.874  19.115  0.00  0.00    +0.000 C 
ATOM     25  O   UNL     1      -0.826  10.847  20.127  0.00  0.00    +0.000 OA
ATOM     26  O   UNL     1       1.189  11.138  21.622  0.00  0.00    +0.000 OA
ENDBRANCH  20  23
ENDBRANCH   8  17
TORSDOF 3
ENDMDL
MODEL 2
REMARK VINA RESULT:      -7.9      0.660      1.017
REMARK  Name = 
REMARK  5 active torsions:
REMARK  status: ('A' for Active; 'I' for Inactive)
REMARK    1  A    between atoms: C_1  and  C_2
REMARK    2  A    between atoms: C_5  and  C_6
REMARK    3  A    between atoms: C_13  and  C_14
REMARK    4  A    between atoms: C_17  and  S_18
REMARK    5  A    between atoms: S_18  and  C_19
REMARK                            x       y       z     vdW  Elec       q    Type
REMARK                         _______ _______ _______ _____ _____    ______ ____
ROOT
ATOM      1  C   UNL     1       3.589   4.677  18.258  0.00  0.00    +0.000 A 
ATOM      2  C   UNL     1       3.745   3.325  17.854  0.00  0.00    +0.000 A 
ATOM      3  C   UNL     1       2.715   2.402  17.967  0.00  0.00    +0.000 A 
ATOM      4  F   UNL     1       2.913   1.138  17.570  0.00  0.00    +0.000 F 
ATOM      5  C   UNL     1       1.499   2.787  18.491  0.00  0.00    +0.000 A 
ATOM      6  F   UNL     1       0.509   1.894  18.637  0.00  0.00    +0.000 F 
ATOM      7  C   UNL     1       1.291   4.105  18.877  0.00  0.00    +0.000 A 
ATOM      8  C   UNL     1       2.306   5.083  18.771  0.00  0.00    +0.000 A 
ENDROOT
BRANCH   1  13
ATOM      9  C   UNL     1       8.356   8.016  17.592  0.00  0.00    +0.000 C 
ATOM     10  C   UNL     1       7.136   7.166  17.802  0.00  0.00    +0.000 A 
ATOM     11  C   UNL     1       5.983   7.414  17.052  0.00  0.00    +0.000 A 
ATOM     12  C   UNL     1       4.821   6.657  17.249  0.00  0.00    +0.000 A 
ATOM     13  C   UNL     1       4.789   5.564  18.127  0.00  0.00    +0.000 A 
ATOM     14  C   UNL     1       5.953   5.337  18.892  0.00  0.00    +0.000 A 
ATOM     15  C   UNL     1       7.093   6.140  18.754  0.00  0.00    +0.000 A 
ATOM     16 CL   UNL     1       8.434   5.827  19.801  0.00  0.00    +0.000 Cl
ENDBRANCH   1  13
BRANCH   8  17
ATOM     17  C   UNL     1       1.977   6.478  19.209  0.00  0.00    +0.000 A 
ATOM     18  C   UNL     1       1.912   7.534  18.271  0.00  0.00    +0.000 A 
ATOM     19  C   UNL     1       1.506   8.823  18.639  0.00  0.00    +0.000 A 
ATOM     20  C   UNL     1       1.112   9.069  19.949  0.00  0.00    +0.000 A 
ATOM     21  C   UNL     1       1.226   8.070  20.916  0.00  0.00    +0.000 A 
ATOM     22  C   UNL     1       1.695   6.803  20.549  0.00  0.00    +0.000 A 
BRANCH  20  23
ATOM     23  S   UNL     1       0.498  10.673  20.405  0.00  0.00    +0.000 S 
ATOM     24  C   UNL     1       0.114  10.490  22.129  0.00  0.00    +0.000 C 
ATOM     25  O   UNL     1       1.596  11.612  20.291  0.00  0.00    +0.000 OA
ATOM     26  O   UNL     1      -0.743  10.878  19.686  0.00  0.00    +0.000 OA
ENDBRANCH  20  23
ENDBRANCH   8  17
TORSDOF 3
ENDMDL
MODEL 3
REMARK VINA RESULT:      -7.8      0.799      1.318
REMARK  Name = 
REMARK  5 active torsions:
REMARK  status: ('A' for Active; 'I' for Inactive)
REMARK    1  A    between atoms: C_1  and  C_2
REMARK    2  A    between atoms: C_5  and  C_6
REMARK    3  A    between atoms: C_13  and  C_14
REMARK    4  A    between atoms: C_17  and  S_18
REMARK    5  A    between atoms: S_18  and  C_19
REMARK                            x       y       z     vdW  Elec       q    Type
REMARK                         _______ _______ _______ _____ _____    ______ ____
ROOT
ATOM      1  C   UNL     1       3.724   4.638  18.217  0.00  0.00    +0.000 A 
ATOM      2  C   UNL     1       3.970   3.263  17.963  0.00  0.00    +0.000 A 
ATOM      3  C   UNL     1       2.970   2.307  18.066  0.00  0.00    +0.000 A 
ATOM      4  F   UNL     1       3.254   1.023  17.815  0.00  0.00    +0.000 F 
ATOM      5  C   UNL     1       1.694   2.682  18.432  0.00  0.00    +0.000 A 
ATOM      6  F   UNL     1       0.729   1.761  18.569  0.00  0.00    +0.000 F 
ATOM      7  C   UNL     1       1.399   4.018  18.666  0.00  0.00    +0.000 A 
ATOM      8  C   UNL     1       2.382   5.029  18.563  0.00  0.00    +0.000 A 
ENDROOT
BRANCH   1  13
ATOM      9  C   UNL     1       8.390   8.137  17.663  0.00  0.00    +0.000 C 
ATOM     10  C   UNL     1       7.195   7.245  17.845  0.00  0.00    +0.000 A 
ATOM     11  C   UNL     1       6.040   7.477  17.094  0.00  0.00    +0.000 A 
ATOM     12  C   UNL     1       4.900   6.680  17.266  0.00  0.00    +0.000 A 
ATOM     13  C   UNL     1       4.897   5.564  18.115  0.00  0.00    +0.000 A 
ATOM     14  C   UNL     1       6.064   5.354  18.882  0.00  0.00    +0.000 A 
ATOM     15  C   UNL     1       7.180   6.195  18.770  0.00  0.00    +0.000 A 
ATOM     16 CL   UNL     1       8.523   5.896  19.817  0.00  0.00    +0.000 Cl
ENDBRANCH   1  13
BRANCH   8  17
ATOM     17  C   UNL     1       1.959   6.442  18.830  0.00  0.00    +0.000 A 
ATOM     18  C   UNL     1       1.780   6.906  20.153  0.00  0.00    +0.000 A 
ATOM     19  C   UNL     1       1.487   8.247  20.431  0.00  0.00    +0.000 A 
ATOM     20  C   UNL     1       1.414   9.162  19.389  0.00  0.00    +0.000 A 
ATOM     21  C   UNL     1       1.519   8.731  18.066  0.00  0.00    +0.000 A 
ATOM     22  C   UNL     1       1.747   7.375  17.797  0.00  0.00    +0.000 A 
BRANCH  20  23
ATOM     23  S   UNL     1       1.145  10.884  19.735  0.00  0.00    +0.000 S 
ATOM     24  C   UNL     1      -0.573  11.117  19.350  0.00  0.00    +0.000 C 
ATOM     25  O   UNL     1       1.310  11.076  21.163  0.00  0.00    +0.000 OA
ATOM     26  O   UNL     1       1.928  11.642  18.781  0.00  0.00    +0.000 OA
ENDBRANCH  20  23
ENDBRANCH   8  17
TORSDOF 3
ENDMDL
MODEL 4
REMARK VINA RESULT:      -7.4      2.709      4.526
REMARK  Name = 
REMARK  5 active torsions:
REMARK  status: ('A' for Active; 'I' for Inactive)
REMARK    1  A    between atoms: C_1  and  C_2
REMARK    2  A    between atoms: C_5  and  C_6
REMARK    3  A    between atoms: C_13  and  C_14
REMARK    4  A    between atoms: C_17  and  S_18
REMARK    5  A    between atoms: S_18  and  C_19
REMARK                            x       y       z     vdW  Elec       q    Type
REMARK                         _______ _______ _______ _____ _____    ______ ____
ROOT
ATOM      1  C   UNL     1       3.975   4.675  17.603  0.00  0.00    +0.000 A 
ATOM      2  C   UNL     1       4.793   3.852  16.785  0.00  0.00    +0.000 A 
ATOM      3  C   UNL     1       5.508   4.364  15.711  0.00  0.00    +0.000 A 
ATOM      4  F   UNL     1       6.267   3.545  14.972  0.00  0.00    +0.000 F 
ATOM      5  C   UNL     1       5.429   5.707  15.408  0.00  0.00    +0.000 A 
ATOM      6  F   UNL     1       6.087   6.204  14.351  0.00  0.00    +0.000 F 
ATOM      7  C   UNL     1       4.660   6.555  16.194  0.00  0.00    +0.000 A 
ATOM      8  C   UNL     1       3.924   6.083  17.304  0.00  0.00    +0.000 A 
ENDROOT
BRANCH   1  13
ATOM      9  C   UNL     1       1.050   2.190  22.029  0.00  0.00    +0.000 C 
ATOM     10  C   UNL     1       1.817   2.791  20.886  0.00  0.00    +0.000 A 
ATOM     11  C   UNL     1       1.145   3.562  19.934  0.00  0.00    +0.000 A 
ATOM     12  C   UNL     1       1.828   4.110  18.841  0.00  0.00    +0.000 A 
ATOM     13  C   UNL     1       3.219   3.995  18.704  0.00  0.00    +0.000 A 
ATOM     14  C   UNL     1       3.882   3.197  19.661  0.00  0.00    +0.000 A 
ATOM     15  C   UNL     1       3.190   2.583  20.714  0.00  0.00    +0.000 A 
ATOM     16 CL   UNL     1       4.087   1.560  21.781  0.00  0.00    +0.000 Cl
ENDBRANCH   1  13
BRANCH   8  17
ATOM     17  C   UNL     1       3.132   7.082  18.091  0.00  0.00    +0.000 A 
ATOM     18  C   UNL     1       2.587   8.228  17.467  0.00  0.00    +0.000 A 
ATOM     19  C   UNL     1       1.757   9.120  18.157  0.00  0.00    +0.000 A 
ATOM     20  C   UNL     1       1.418   8.857  19.478  0.00  0.00    +0.000 A 
ATOM     21  C   UNL     1       1.989   7.774  20.148  0.00  0.00    +0.000 A 
ATOM     22  C   UNL     1       2.868   6.925  19.465  0.00  0.00    +0.000 A 
BRANCH  20  23
ATOM     23  S   UNL     1       0.286   9.926  20.334  0.00  0.00    +0.000 S 
ATOM     24  C   UNL     1      -0.211   8.958  21.738  0.00  0.00    +0.000 C 
ATOM     25  O   UNL     1       1.039  11.064  20.823  0.00  0.00    +0.000 OA
ATOM     26  O   UNL     1      -0.869  10.103  19.477  0.00  0.00    +0.000 OA
ENDBRANCH  20  23
ENDBRANCH   8  17
TORSDOF 3
ENDMDL
MODEL 5
REMARK VINA RESULT:      -7.2      1.801      2.006
REMARK  Name = 
REMARK  5 active torsions:
REMARK  status: ('A' for Active; 'I' for Inactive)
REMARK    1  A    between atoms: C_1  and  C_2
REMARK    2  A    between atoms: C_5  and  C_6
REMARK    3  A    between atoms: C_13  and  C_14
REMARK    4  A    between atoms: C_17  and  S_18
REMARK    5  A    between atoms: S_18  and  C_19
REMARK                            x       y       z     vdW  Elec       q    Type
REMARK                         _______ _______ _______ _____ _____    ______ ____
ROOT
ATOM      1  C   UNL     1       3.263   4.381  19.242  0.00  0.00    +0.000 A 
ATOM      2  C   UNL     1       3.279   2.990  19.523  0.00  0.00    +0.000 A 
ATOM      3  C   UNL     1       2.385   2.410  20.412  0.00  0.00    +0.000 A 
ATOM      4  F   UNL     1       2.442   1.091  20.641  0.00  0.00    +0.000 F 
ATOM      5  C   UNL     1       1.449   3.191  21.056  0.00  0.00    +0.000 A 
ATOM      6  F   UNL     1       0.604   2.647  21.943  0.00  0.00    +0.000 F 
ATOM      7  C   UNL     1       1.378   4.554  20.794  0.00  0.00    +0.000 A 
ATOM      8  C   UNL     1       2.260   5.187  19.889  0.00  0.00    +0.000 A 
ENDROOT
BRANCH   1  13
ATOM      9  C   UNL     1       7.441   6.185  15.553  0.00  0.00    +0.000 C 
ATOM     10  C   UNL     1       6.372   5.758  16.517  0.00  0.00    +0.000 A 
ATOM     11  C   UNL     1       5.177   5.221  16.031  0.00  0.00    +0.000 A 
ATOM     12  C   UNL     1       4.151   4.843  16.906  0.00  0.00    +0.000 A 
ATOM     13  C   UNL     1       4.308   4.892  18.298  0.00  0.00    +0.000 A 
ATOM     14  C   UNL     1       5.511   5.455  18.776  0.00  0.00    +0.000 A 
ATOM     15  C   UNL     1       6.511   5.906  17.902  0.00  0.00    +0.000 A 
ATOM     16 CL   UNL     1       7.908   6.655  18.593  0.00  0.00    +0.000 Cl
ENDBRANCH   1  13
BRANCH   8  17
ATOM     17  C   UNL     1       2.096   6.661  19.672  0.00  0.00    +0.000 A 
ATOM     18  C   UNL     1       2.289   7.230  18.393  0.00  0.00    +0.000 A 
ATOM     19  C   UNL     1       2.041   8.585  18.143  0.00  0.00    +0.000 A 
ATOM     20  C   UNL     1       1.547   9.390  19.162  0.00  0.00    +0.000 A 
ATOM     21  C   UNL     1       1.407   8.881  20.454  0.00  0.00    +0.000 A 
ATOM     22  C   UNL     1       1.720   7.540  20.706  0.00  0.00    +0.000 A 
BRANCH  20  23
ATOM     23  S   UNL     1       1.131  11.085  18.833  0.00  0.00    +0.000 S 
ATOM     24  C   UNL     1       1.114  11.826  20.447  0.00  0.00    +0.000 C 
ATOM     25  O   UNL     1       2.228  11.670  18.087  0.00  0.00    +0.000 OA
ATOM     26  O   UNL     1      -0.222  11.103  18.314  0.00  0.00    +0.000 OA
ENDBRANCH  20  23
ENDBRANCH   8  17
TORSDOF 3
ENDMDL
MODEL 6
REMARK VINA RESULT:      -7.1      2.792      4.880
REMARK  Name = 
REMARK  5 active torsions:
REMARK  status: ('A' for Active; 'I' for Inactive)
REMARK    1  A    between atoms: C_1  and  C_2
REMARK    2  A    between atoms: C_5  and  C_6
REMARK    3  A    between atoms: C_13  and  C_14
REMARK    4  A    between atoms: C_17  and  S_18
REMARK    5  A    between atoms: S_18  and  C_19
REMARK                            x       y       z     vdW  Elec       q    Type
REMARK                         _______ _______ _______ _____ _____    ______ ____
ROOT
ATOM      1  C   UNL     1       4.782   5.111  17.949  0.00  0.00    +0.000 A 
ATOM      2  C   UNL     1       6.014   4.486  17.623  0.00  0.00    +0.000 A 
ATOM      3  C   UNL     1       7.128   5.217  17.236  0.00  0.00    +0.000 A 
ATOM      4  F   UNL     1       8.268   4.579  16.940  0.00  0.00    +0.000 F 
ATOM      5  C   UNL     1       7.056   6.591  17.151  0.00  0.00    +0.000 A 
ATOM      6  F   UNL     1       8.116   7.304  16.744  0.00  0.00    +0.000 F 
ATOM      7  C   UNL     1       5.879   7.250  17.484  0.00  0.00    +0.000 A 
ATOM      8  C   UNL     1       4.722   6.549  17.894  0.00  0.00    +0.000 A 
ENDROOT
BRANCH   1  13
ATOM      9  C   UNL     1       0.199   1.756  19.385  0.00  0.00    +0.000 C 
ATOM     10  C   UNL     1       1.398   2.591  19.037  0.00  0.00    +0.000 A 
ATOM     11  C   UNL     1       1.628   2.949  17.706  0.00  0.00    +0.000 A 
ATOM     12  C   UNL     1       2.755   3.701  17.349  0.00  0.00    +0.000 A 
ATOM     13  C   UNL     1       3.642   4.209  18.309  0.00  0.00    +0.000 A 
ATOM     14  C   UNL     1       3.409   3.823  19.647  0.00  0.00    +0.000 A 
ATOM     15  C   UNL     1       2.326   3.006  20.000  0.00  0.00    +0.000 A 
ATOM     16 CL   UNL     1       2.183   2.526  21.655  0.00  0.00    +0.000 Cl
ENDBRANCH   1  13
BRANCH   8  17
ATOM     17  C   UNL     1       3.505   7.354  18.237  0.00  0.00    +0.000 A 
ATOM     18  C   UNL     1       2.840   7.170  19.471  0.00  0.00    +0.000 A 
ATOM     19  C   UNL     1       1.765   7.981  19.858  0.00  0.00    +0.000 A 
ATOM     20  C   UNL     1       1.364   9.024  19.034  0.00  0.00    +0.000 A 
ATOM     21  C   UNL     1       1.951   9.196  17.780  0.00  0.00    +0.000 A 
ATOM     22  C   UNL     1       2.982   8.338  17.377  0.00  0.00    +0.000 A 
BRANCH  20  23
ATOM     23  S   UNL     1       0.070  10.123  19.558  0.00  0.00    +0.000 S 
ATOM     24  C   UNL     1       0.937  11.621  19.955  0.00  0.00    +0.000 C 
ATOM     25  O   UNL     1      -0.774  10.389  18.410  0.00  0.00    +0.000 OA
ATOM     26  O   UNL     1      -0.481   9.583  20.785  0.00  0.00    +0.000 OA
ENDBRANCH  20  23
ENDBRANCH   8  17
TORSDOF 3
ENDMDL
MODEL 7
REMARK VINA RESULT:      -7.0      2.689      4.616
REMARK  Name = 
REMARK  5 active torsions:
REMARK  status: ('A' for Active; 'I' for Inactive)
REMARK    1  A    between atoms: C_1  and  C_2
REMARK    2  A    between atoms: C_5  and  C_6
REMARK    3  A    between atoms: C_13  and  C_14
REMARK    4  A    between atoms: C_17  and  S_18
REMARK    5  A    between atoms: S_18  and  C_19
REMARK                            x       y       z     vdW  Elec       q    Type
REMARK                         _______ _______ _______ _____ _____    ______ ____
ROOT
ATOM      1  C   UNL     1       3.729   5.032  17.834  0.00  0.00    +0.000 A 
ATOM      2  C   UNL     1       4.635   4.309  17.014  0.00  0.00    +0.000 A 
ATOM      3  C   UNL     1       5.317   4.911  15.966  0.00  0.00    +0.000 A 
ATOM      4  F   UNL     1       6.163   4.185  15.224  0.00  0.00    +0.000 F 
ATOM      5  C   UNL     1       5.118   6.247  15.691  0.00  0.00    +0.000 A 
ATOM      6  F   UNL     1       5.745   6.830  14.659  0.00  0.00    +0.000 F 
ATOM      7  C   UNL     1       4.259   7.002  16.480  0.00  0.00    +0.000 A 
ATOM      8  C   UNL     1       3.551   6.436  17.565  0.00  0.00    +0.000 A 
ENDROOT
BRANCH   1  13
ATOM      9  C   UNL     1       0.995   2.170  22.153  0.00  0.00    +0.000 C 
ATOM     10  C   UNL     1       1.713   2.869  21.034  0.00  0.00    +0.000 A 
ATOM     11  C   UNL     1       0.998   3.702  20.169  0.00  0.00    +0.000 A 
ATOM     12  C   UNL     1       1.635   4.342  19.098  0.00  0.00    +0.000 A 
ATOM     13  C   UNL     1       3.022   4.258  18.904  0.00  0.00    +0.000 A 
ATOM     14  C   UNL     1       3.728   3.399  19.772  0.00  0.00    +0.000 A 
ATOM     15  C   UNL     1       3.081   2.695  20.798  0.00  0.00    +0.000 A 
ATOM     16 CL   UNL     1       4.028   1.605  21.750  0.00  0.00    +0.000 Cl
ENDBRANCH   1  13
BRANCH   8  17
ATOM     17  C   UNL     1       2.655   7.337  18.358  0.00  0.00    +0.000 A 
ATOM     18  C   UNL     1       2.433   7.108  19.736  0.00  0.00    +0.000 A 
ATOM     19  C   UNL     1       1.685   7.995  20.520  0.00  0.00    +0.000 A 
ATOM     20  C   UNL     1       1.180   9.156  19.948  0.00  0.00    +0.000 A 
ATOM     21  C   UNL     1       1.321   9.384  18.579  0.00  0.00    +0.000 A 
ATOM     22  C   UNL     1       2.016   8.457  17.792  0.00  0.00    +0.000 A 
BRANCH  20  23
ATOM     23  S   UNL     1       0.317  10.339  20.954  0.00  0.00    +0.000 S 
ATOM     24  C   UNL     1      -0.128   9.404  22.398  0.00  0.00    +0.000 C 
ATOM     25  O   UNL     1       1.271  11.353  21.358  0.00  0.00    +0.000 OA
ATOM     26  O   UNL     1      -0.902  10.691  20.253  0.00  0.00    +0.000 OA
ENDBRANCH  20  23
ENDBRANCH   8  17
TORSDOF 3
ENDMDL
MODEL 8
REMARK VINA RESULT:      -7.0      1.915      2.229
REMARK  Name = 
REMARK  5 active torsions:
REMARK  status: ('A' for Active; 'I' for Inactive)
REMARK    1  A    between atoms: C_1  and  C_2
REMARK    2  A    between atoms: C_5  and  C_6
REMARK    3  A    between atoms: C_13  and  C_14
REMARK    4  A    between atoms: C_17  and  S_18
REMARK    5  A    between atoms: S_18  and  C_19
REMARK                            x       y       z     vdW  Elec       q    Type
REMARK                         _______ _______ _______ _____ _____    ______ ____
ROOT
ATOM      1  C   UNL     1       3.368   4.669  19.440  0.00  0.00    +0.000 A 
ATOM      2  C   UNL     1       3.434   3.264  19.638  0.00  0.00    +0.000 A 
ATOM      3  C   UNL     1       2.445   2.572  20.321  0.00  0.00    +0.000 A 
ATOM      4  F   UNL     1       2.555   1.246  20.479  0.00  0.00    +0.000 F 
ATOM      5  C   UNL     1       1.361   3.249  20.839  0.00  0.00    +0.000 A 
ATOM      6  F   UNL     1       0.418   2.594  21.532  0.00  0.00    +0.000 F 
ATOM      7  C   UNL     1       1.240   4.620  20.650  0.00  0.00    +0.000 A 
ATOM      8  C   UNL     1       2.216   5.366  19.951  0.00  0.00    +0.000 A 
ENDROOT
BRANCH   1  13
ATOM      9  C   UNL     1       7.807   7.349  16.715  0.00  0.00    +0.000 C 
ATOM     10  C   UNL     1       6.665   6.638  17.382  0.00  0.00    +0.000 A 
ATOM     11  C   UNL     1       6.810   6.175  18.693  0.00  0.00    +0.000 A 
ATOM     12  C   UNL     1       5.773   5.481  19.329  0.00  0.00    +0.000 A 
ATOM     13  C   UNL     1       4.519   5.306  18.725  0.00  0.00    +0.000 A 
ATOM     14  C   UNL     1       4.393   5.759  17.395  0.00  0.00    +0.000 A 
ATOM     15  C   UNL     1       5.454   6.387  16.727  0.00  0.00    +0.000 A 
ATOM     16 CL   UNL     1       5.218   6.828  15.071  0.00  0.00    +0.000 Cl
ENDBRANCH   1  13
BRANCH   8  17
ATOM     17  C   UNL     1       1.987   6.840  19.797  0.00  0.00    +0.000 A 
ATOM     18  C   UNL     1       2.148   7.469  18.541  0.00  0.00    +0.000 A 
ATOM     19  C   UNL     1       1.840   8.822  18.350  0.00  0.00    +0.000 A 
ATOM     20  C   UNL     1       1.320   9.561  19.404  0.00  0.00    +0.000 A 
ATOM     21  C   UNL     1       1.210   8.994  20.674  0.00  0.00    +0.000 A 
ATOM     22  C   UNL     1       1.582   7.658  20.868  0.00  0.00    +0.000 A 
BRANCH  20  23
ATOM     23  S   UNL     1       0.830  11.250  19.148  0.00  0.00    +0.000 S 
ATOM     24  C   UNL     1       0.630  11.875  20.798  0.00  0.00    +0.000 C 
ATOM     25  O   UNL     1       1.948  11.945  18.541  0.00  0.00    +0.000 OA
ATOM     26  O   UNL     1      -0.473  11.228  18.514  0.00  0.00    +0.000 OA
ENDBRANCH  20  23
ENDBRANCH   8  17
TORSDOF 3
ENDMDL
MODEL 9
REMARK VINA RESULT:      -7.0      2.653      4.493
REMARK  Name = 
REMARK  5 active torsions:
REMARK  status: ('A' for Active; 'I' for Inactive)
REMARK    1  A    between atoms: C_1  and  C_2
REMARK    2  A    between atoms: C_5  and  C_6
REMARK    3  A    between atoms: C_13  and  C_14
REMARK    4  A    between atoms: C_17  and  S_18
REMARK    5  A    between atoms: S_18  and  C_19
REMARK                            x       y       z     vdW  Elec       q    Type
REMARK                         _______ _______ _______ _____ _____    ______ ____
ROOT
ATOM      1  C   UNL     1       3.925   4.778  17.707  0.00  0.00    +0.000 A 
ATOM      2  C   UNL     1       4.821   3.993  16.935  0.00  0.00    +0.000 A 
ATOM      3  C   UNL     1       5.544   4.528  15.879  0.00  0.00    +0.000 A 
ATOM      4  F   UNL     1       6.378   3.744  15.183  0.00  0.00    +0.000 F 
ATOM      5  C   UNL     1       5.396   5.858  15.547  0.00  0.00    +0.000 A 
ATOM      6  F   UNL     1       6.063   6.377  14.506  0.00  0.00    +0.000 F 
ATOM      7  C   UNL     1       4.549   6.672  16.288  0.00  0.00    +0.000 A 
ATOM      8  C   UNL     1       3.801   6.175  17.379  0.00  0.00    +0.000 A 
ENDROOT
BRANCH   1  13
ATOM      9  C   UNL     1       1.007   2.188  22.077  0.00  0.00    +0.000 C 
ATOM     10  C   UNL     1       1.771   2.817  20.947  0.00  0.00    +0.000 A 
ATOM     11  C   UNL     1       1.099   3.616  20.019  0.00  0.00    +0.000 A 
ATOM     12  C   UNL     1       1.781   4.189  18.938  0.00  0.00    +0.000 A 
ATOM     13  C   UNL     1       3.171   4.072  18.792  0.00  0.00    +0.000 A 
ATOM     14  C   UNL     1       3.834   3.246  19.725  0.00  0.00    +0.000 A 
ATOM     15  C   UNL     1       3.143   2.608  20.764  0.00  0.00    +0.000 A 
ATOM     16 CL   UNL     1       4.040   1.552  21.800  0.00  0.00    +0.000 Cl
ENDBRANCH   1  13
BRANCH   8  17
ATOM     17  C   UNL     1       2.922   7.138  18.118  0.00  0.00    +0.000 A 
ATOM     18  C   UNL     1       2.650   6.961  19.494  0.00  0.00    +0.000 A 
ATOM     19  C   UNL     1       1.918   7.902  20.228  0.00  0.00    +0.000 A 
ATOM     20  C   UNL     1       1.481   9.065  19.607  0.00  0.00    +0.000 A 
ATOM     21  C   UNL     1       1.671   9.244  18.237  0.00  0.00    +0.000 A 
ATOM     22  C   UNL     1       2.349   8.265  17.499  0.00  0.00    +0.000 A 
BRANCH  20  23
ATOM     23  S   UNL     1       0.640  10.314  20.551  0.00  0.00    +0.000 S 
ATOM     24  C   UNL     1       1.127  11.826  19.759  0.00  0.00    +0.000 C 
ATOM     25  O   UNL     1      -0.784  10.139  20.340  0.00  0.00    +0.000 OA
ATOM     26  O   UNL     1       1.208  10.300  21.884  0.00  0.00    +0.000 OA
ENDBRANCH  20  23
ENDBRANCH   8  17
TORSDOF 3
ENDMDL
