MODEL 1
REMARK VINA RESULT:      -8.7      0.000      0.000
REMARK  Name = 
REMARK  3 active torsions:
REMARK  status: ('A' for Active; 'I' for Inactive)
REMARK    1  A    between atoms: C_2  and  C_3
REMARK    2  A    between atoms: C_2  and  C_9
REMARK    3  A    between atoms: C_13  and  C_14
REMARK                            x       y       z     vdW  Elec       q    Type
REMARK                         _______ _______ _______ _____ _____    ______ ____
ROOT
ATOM      1  C   UNL     1       6.120   4.887  17.119  0.00  0.00    +0.000 A 
ATOM      2  C   UNL     1       5.659   3.998  16.222  0.00  0.00    +0.000 A 
ATOM      3  C   UNL     1       6.070   4.090  14.829  0.00  0.00    +0.000 A 
ATOM      4  C   UNL     1       5.500   3.313  13.818  0.00  0.00    +0.000 A 
ATOM      5  C   UNL     1       5.972   3.414  12.495  0.00  0.00    +0.000 A 
ATOM      6  C   UNL     1       7.067   4.248  12.215  0.00  0.00    +0.000 A 
ATOM      7  C   UNL     1       7.633   5.028  13.220  0.00  0.00    +0.000 A 
ATOM      8  C   UNL     1       7.104   4.962  14.505  0.00  0.00    +0.000 A 
ATOM      9  O   UNL     1       7.617   5.856  15.455  0.00  0.00    +0.000 OA
ATOM     10  C   UNL     1       6.947   6.024  16.656  0.00  0.00    +0.000 A 
ATOM     11  O   UNL     1       7.083   7.048  17.316  0.00  0.00    +0.000 OA
ENDROOT
BRANCH   1  13
ATOM     12  O   UNL     1       6.499   4.917  19.457  0.00  0.00    +0.000 OA
ATOM     13  C   UNL     1       5.708   4.702  18.539  0.00  0.00    +0.000 C 
BRANCH  13  14
ATOM     14  C   UNL     1       4.310   4.294  18.871  0.00  0.00    +0.000 A 
ATOM     15  C   UNL     1       3.197   5.107  18.607  0.00  0.00    +0.000 A 
ATOM     16  C   UNL     1       1.911   4.666  18.930  0.00  0.00    +0.000 A 
ATOM     17  C   UNL     1       1.730   3.433  19.553  0.00  0.00    +0.000 A 
ATOM     18  C   UNL     1       2.832   2.637  19.857  0.00  0.00    +0.000 A 
ATOM     19  C   UNL     1       4.118   3.066  19.518  0.00  0.00    +0.000 A 
ENDBRANCH  13  14
ENDBRANCH   1  13
BRANCH   5  20
ATOM     20  C   UNL     1       5.321   2.625  11.391  0.00  0.00    +0.000 C 
ATOM     21 CL   UNL     1       3.744   3.314  10.975  0.00  0.00    +0.000 Cl
ENDBRANCH   5  20
TORSDOF 3
ENDMDL
MODEL 2
REMARK VINA RESULT:      -8.6      0.122      1.060
REMARK  Name = 
REMARK  3 active torsions:
REMARK  status: ('A' for Active; 'I' for Inactive)
REMARK    1  A    between atoms: C_2  and  C_3
REMARK    2  A    between atoms: C_2  and  C_9
REMARK    3  A    between atoms: C_13  and  C_14
REMARK                            x       y       z     vdW  Elec       q    Type
REMARK                         _______ _______ _______ _____ _____    ______ ____
ROOT
ATOM      1  C   UNL     1       6.055   4.871  17.130  0.00  0.00    +0.000 A 
ATOM      2  C   UNL     1       5.612   3.984  16.222  0.00  0.00    +0.000 A 
ATOM      3  C   UNL     1       6.046   4.085  14.836  0.00  0.00    +0.000 A 
ATOM      4  C   UNL     1       5.496   3.309  13.813  0.00  0.00    +0.000 A 
ATOM      5  C   UNL     1       5.988   3.418  12.497  0.00  0.00    +0.000 A 
ATOM      6  C   UNL     1       7.083   4.259  12.239  0.00  0.00    +0.000 A 
ATOM      7  C   UNL     1       7.630   5.037  13.257  0.00  0.00    +0.000 A 
ATOM      8  C   UNL     1       7.081   4.963  14.532  0.00  0.00    +0.000 A 
ATOM      9  O   UNL     1       7.574   5.855  15.494  0.00  0.00    +0.000 OA
ATOM     10  C   UNL     1       6.884   6.014  16.686  0.00  0.00    +0.000 A 
ATOM     11  O   UNL     1       7.005   7.036  17.353  0.00  0.00    +0.000 OA
ENDROOT
BRANCH   1  13
ATOM     12  O   UNL     1       6.390   4.912  19.475  0.00  0.00    +0.000 OA
ATOM     13  C   UNL     1       5.621   4.678  18.542  0.00  0.00    +0.000 C 
BRANCH  13  14
ATOM     14  C   UNL     1       4.227   4.239  18.849  0.00  0.00    +0.000 A 
ATOM     15  C   UNL     1       3.931   3.007  19.450  0.00  0.00    +0.000 A 
ATOM     16  C   UNL     1       2.606   2.657  19.724  0.00  0.00    +0.000 A 
ATOM     17  C   UNL     1       1.567   3.512  19.362  0.00  0.00    +0.000 A 
ATOM     18  C   UNL     1       1.849   4.720  18.726  0.00  0.00    +0.000 A 
ATOM     19  C   UNL     1       3.173   5.082  18.469  0.00  0.00    +0.000 A 
ENDBRANCH  13  14
ENDBRANCH   1  13
BRANCH   5  20
ATOM     20  C   UNL     1       5.358   2.632  11.380  0.00  0.00    +0.000 C 
ATOM     21 CL   UNL     1       3.739   3.249  11.014  0.00  0.00    +0.000 Cl
ENDBRANCH   5  20
TORSDOF 3
ENDMDL
MODEL 3
REMARK VINA RESULT:      -8.5      1.324      1.927
REMARK  Name = 
REMARK  3 active torsions:
REMARK  status: ('A' for Active; 'I' for Inactive)
REMARK    1  A    between atoms: C_2  and  C_3
REMARK    2  A    between atoms: C_2  and  C_9
REMARK    3  A    between atoms: C_13  and  C_14
REMARK                            x       y       z     vdW  Elec       q    Type
REMARK                         _______ _______ _______ _____ _____    ______ ____
ROOT
ATOM      1  C   UNL     1       6.046   5.064  16.659  0.00  0.00    +0.000 A 
ATOM      2  C   UNL     1       5.335   4.293  15.817  0.00  0.00    +0.000 A 
ATOM      3  C   UNL     1       5.730   4.188  14.419  0.00  0.00    +0.000 A 
ATOM      4  C   UNL     1       4.944   3.548  13.458  0.00  0.00    +0.000 A 
ATOM      5  C   UNL     1       5.399   3.437  12.129  0.00  0.00    +0.000 A 
ATOM      6  C   UNL     1       6.679   3.912  11.798  0.00  0.00    +0.000 A 
ATOM      7  C   UNL     1       7.462   4.555  12.754  0.00  0.00    +0.000 A 
ATOM      8  C   UNL     1       6.961   4.713  14.041  0.00  0.00    +0.000 A 
ATOM      9  O   UNL     1       7.723   5.477  14.936  0.00  0.00    +0.000 OA
ATOM     10  C   UNL     1       7.151   5.894  16.127  0.00  0.00    +0.000 A 
ATOM     11  O   UNL     1       7.583   6.873  16.726  0.00  0.00    +0.000 OA
ENDROOT
BRANCH   1  13
ATOM     12  O   UNL     1       6.287   4.496  18.946  0.00  0.00    +0.000 OA
ATOM     13  C   UNL     1       5.626   5.083  18.088  0.00  0.00    +0.000 C 
BRANCH  13  14
ATOM     14  C   UNL     1       4.418   5.853  18.508  0.00  0.00    +0.000 A 
ATOM     15  C   UNL     1       3.605   5.467  19.584  0.00  0.00    +0.000 A 
ATOM     16  C   UNL     1       2.493   6.236  19.938  0.00  0.00    +0.000 A 
ATOM     17  C   UNL     1       2.161   7.369  19.198  0.00  0.00    +0.000 A 
ATOM     18  C   UNL     1       2.938   7.737  18.101  0.00  0.00    +0.000 A 
ATOM     19  C   UNL     1       4.062   6.981  17.756  0.00  0.00    +0.000 A 
ENDBRANCH  13  14
ENDBRANCH   1  13
BRANCH   5  20
ATOM     20  C   UNL     1       4.531   2.805  11.076  0.00  0.00    +0.000 C 
ATOM     21 CL   UNL     1       3.450   4.005  10.351  0.00  0.00    +0.000 Cl
ENDBRANCH   5  20
TORSDOF 3
ENDMDL
MODEL 4
REMARK VINA RESULT:      -8.4      1.201      1.414
REMARK  Name = 
REMARK  3 active torsions:
REMARK  status: ('A' for Active; 'I' for Inactive)
REMARK    1  A    between atoms: C_2  and  C_3
REMARK    2  A    between atoms: C_2  and  C_9
REMARK    3  A    between atoms: C_13  and  C_14
REMARK                            x       y       z     vdW  Elec       q    Type
REMARK                         _______ _______ _______ _____ _____    ______ ____
ROOT
ATOM      1  C   UNL     1       6.075   5.014  16.980  0.00  0.00    +0.000 A 
ATOM      2  C   UNL     1       5.586   4.110  16.112  0.00  0.00    +0.000 A 
ATOM      3  C   UNL     1       6.017   4.129  14.722  0.00  0.00    +0.000 A 
ATOM      4  C   UNL     1       5.425   3.337  13.735  0.00  0.00    +0.000 A 
ATOM      5  C   UNL     1       5.916   3.365  12.415  0.00  0.00    +0.000 A 
ATOM      6  C   UNL     1       7.049   4.139  12.117  0.00  0.00    +0.000 A 
ATOM      7  C   UNL     1       7.637   4.934  13.098  0.00  0.00    +0.000 A 
ATOM      8  C   UNL     1       7.092   4.942  14.377  0.00  0.00    +0.000 A 
ATOM      9  O   UNL     1       7.632   5.850  15.298  0.00  0.00    +0.000 OA
ATOM     10  C   UNL     1       6.956   6.095  16.483  0.00  0.00    +0.000 A 
ATOM     11  O   UNL     1       7.130   7.138  17.104  0.00  0.00    +0.000 OA
ENDROOT
BRANCH   1  13
ATOM     12  O   UNL     1       6.370   4.385  19.244  0.00  0.00    +0.000 OA
ATOM     13  C   UNL     1       5.640   4.904  18.400  0.00  0.00    +0.000 C 
BRANCH  13  14
ATOM     14  C   UNL     1       4.324   5.466  18.830  0.00  0.00    +0.000 A 
ATOM     15  C   UNL     1       3.776   6.631  18.274  0.00  0.00    +0.000 A 
ATOM     16  C   UNL     1       2.534   7.101  18.709  0.00  0.00    +0.000 A 
ATOM     17  C   UNL     1       1.852   6.439  19.728  0.00  0.00    +0.000 A 
ATOM     18  C   UNL     1       2.409   5.305  20.315  0.00  0.00    +0.000 A 
ATOM     19  C   UNL     1       3.641   4.820  19.869  0.00  0.00    +0.000 A 
ENDBRANCH  13  14
ENDBRANCH   1  13
BRANCH   5  20
ATOM     20  C   UNL     1       5.243   2.562  11.335  0.00  0.00    +0.000 C 
ATOM     21 CL   UNL     1       6.127   1.058  11.029  0.00  0.00    +0.000 Cl
ENDBRANCH   5  20
TORSDOF 3
ENDMDL
MODEL 5
REMARK VINA RESULT:      -8.4      1.174      1.702
REMARK  Name = 
REMARK  3 active torsions:
REMARK  status: ('A' for Active; 'I' for Inactive)
REMARK    1  A    between atoms: C_2  and  C_3
REMARK    2  A    between atoms: C_2  and  C_9
REMARK    3  A    between atoms: C_13  and  C_14
REMARK                            x       y       z     vdW  Elec       q    Type
REMARK                         _______ _______ _______ _____ _____    ______ ____
ROOT
ATOM      1  C   UNL     1       6.183   5.073  17.018  0.00  0.00    +0.000 A 
ATOM      2  C   UNL     1       5.654   4.173  16.170  0.00  0.00    +0.000 A 
ATOM      3  C   UNL     1       6.059   4.167  14.771  0.00  0.00    +0.000 A 
ATOM      4  C   UNL     1       5.428   3.380  13.805  0.00  0.00    +0.000 A 
ATOM      5  C   UNL     1       5.894   3.381  12.476  0.00  0.00    +0.000 A 
ATOM      6  C   UNL     1       7.040   4.123  12.147  0.00  0.00    +0.000 A 
ATOM      7  C   UNL     1       7.667   4.913  13.108  0.00  0.00    +0.000 A 
ATOM      8  C   UNL     1       7.146   4.948  14.397  0.00  0.00    +0.000 A 
ATOM      9  O   UNL     1       7.727   5.852  15.297  0.00  0.00    +0.000 OA
ATOM     10  C   UNL     1       7.081   6.126  16.492  0.00  0.00    +0.000 A 
ATOM     11  O   UNL     1       7.292   7.171  17.098  0.00  0.00    +0.000 OA
ENDROOT
BRANCH   1  13
ATOM     12  O   UNL     1       6.551   4.567  19.303  0.00  0.00    +0.000 OA
ATOM     13  C   UNL     1       5.772   4.989  18.447  0.00  0.00    +0.000 C 
BRANCH  13  14
ATOM     14  C   UNL     1       4.420   5.460  18.871  0.00  0.00    +0.000 A 
ATOM     15  C   UNL     1       3.640   4.781  19.820  0.00  0.00    +0.000 A 
ATOM     16  C   UNL     1       2.386   5.278  20.185  0.00  0.00    +0.000 A 
ATOM     17  C   UNL     1       1.884   6.427  19.579  0.00  0.00    +0.000 A 
ATOM     18  C   UNL     1       2.633   7.085  18.605  0.00  0.00    +0.000 A 
ATOM     19  C   UNL     1       3.896   6.603  18.251  0.00  0.00    +0.000 A 
ENDBRANCH  13  14
ENDBRANCH   1  13
BRANCH   5  20
ATOM     20  C   UNL     1       5.181   2.584  11.418  0.00  0.00    +0.000 C 
ATOM     21 CL   UNL     1       6.056   1.085  11.065  0.00  0.00    +0.000 Cl
ENDBRANCH   5  20
TORSDOF 3
ENDMDL
MODEL 6
REMARK VINA RESULT:      -8.2      2.692      6.517
REMARK  Name = 
REMARK  3 active torsions:
REMARK  status: ('A' for Active; 'I' for Inactive)
REMARK    1  A    between atoms: C_2  and  C_3
REMARK    2  A    between atoms: C_2  and  C_9
REMARK    3  A    between atoms: C_13  and  C_14
REMARK                            x       y       z     vdW  Elec       q    Type
REMARK                         _______ _______ _______ _____ _____    ______ ____
ROOT
ATOM      1  C   UNL     1       5.974   5.260  16.996  0.00  0.00    +0.000 A 
ATOM      2  C   UNL     1       5.161   4.427  17.668  0.00  0.00    +0.000 A 
ATOM      3  C   UNL     1       4.032   4.960  18.418  0.00  0.00    +0.000 A 
ATOM      4  C   UNL     1       3.254   4.176  19.273  0.00  0.00    +0.000 A 
ATOM      5  C   UNL     1       2.146   4.738  19.937  0.00  0.00    +0.000 A 
ATOM      6  C   UNL     1       1.788   6.071  19.675  0.00  0.00    +0.000 A 
ATOM      7  C   UNL     1       2.566   6.855  18.827  0.00  0.00    +0.000 A 
ATOM      8  C   UNL     1       3.695   6.298  18.238  0.00  0.00    +0.000 A 
ATOM      9  O   UNL     1       4.520   7.155  17.496  0.00  0.00    +0.000 OA
ATOM     10  C   UNL     1       5.784   6.723  17.125  0.00  0.00    +0.000 A 
ATOM     11  O   UNL     1       6.674   7.526  16.869  0.00  0.00    +0.000 OA
ENDROOT
BRANCH   1  13
ATOM     12  O   UNL     1       8.091   4.225  16.753  0.00  0.00    +0.000 OA
ATOM     13  C   UNL     1       7.075   4.648  16.201  0.00  0.00    +0.000 C 
BRANCH  13  14
ATOM     14  C   UNL     1       6.941   4.497  14.721  0.00  0.00    +0.000 A 
ATOM     15  C   UNL     1       6.040   3.602  14.126  0.00  0.00    +0.000 A 
ATOM     16  C   UNL     1       5.951   3.514  12.734  0.00  0.00    +0.000 A 
ATOM     17  C   UNL     1       6.788   4.284  11.929  0.00  0.00    +0.000 A 
ATOM     18  C   UNL     1       7.716   5.145  12.511  0.00  0.00    +0.000 A 
ATOM     19  C   UNL     1       7.794   5.251  13.903  0.00  0.00    +0.000 A 
ENDBRANCH  13  14
ENDBRANCH   1  13
BRANCH   5  20
ATOM     20  C   UNL     1       1.342   3.916  20.906  0.00  0.00    +0.000 C 
ATOM     21 CL   UNL     1       2.354   2.681  21.672  0.00  0.00    +0.000 Cl
ENDBRANCH   5  20
TORSDOF 3
ENDMDL
MODEL 7
REMARK VINA RESULT:      -8.1      2.693      6.485
REMARK  Name = 
REMARK  3 active torsions:
REMARK  status: ('A' for Active; 'I' for Inactive)
REMARK    1  A    between atoms: C_2  and  C_3
REMARK    2  A    between atoms: C_2  and  C_9
REMARK    3  A    between atoms: C_13  and  C_14
REMARK                            x       y       z     vdW  Elec       q    Type
REMARK                         _______ _______ _______ _____ _____    ______ ____
ROOT
ATOM      1  C   UNL     1       5.996   5.279  17.006  0.00  0.00    +0.000 A 
ATOM      2  C   UNL     1       5.219   4.452  17.728  0.00  0.00    +0.000 A 
ATOM      3  C   UNL     1       4.084   4.983  18.468  0.00  0.00    +0.000 A 
ATOM      4  C   UNL     1       3.343   4.216  19.370  0.00  0.00    +0.000 A 
ATOM      5  C   UNL     1       2.225   4.772  20.023  0.00  0.00    +0.000 A 
ATOM      6  C   UNL     1       1.821   6.079  19.705  0.00  0.00    +0.000 A 
ATOM      7  C   UNL     1       2.561   6.847  18.810  0.00  0.00    +0.000 A 
ATOM      8  C   UNL     1       3.700   6.299  18.231  0.00  0.00    +0.000 A 
ATOM      9  O   UNL     1       4.487   7.146  17.438  0.00  0.00    +0.000 OA
ATOM     10  C   UNL     1       5.759   6.739  17.069  0.00  0.00    +0.000 A 
ATOM     11  O   UNL     1       6.619   7.557  16.762  0.00  0.00    +0.000 OA
ENDROOT
BRANCH   1  13
ATOM     12  O   UNL     1       8.107   4.225  16.791  0.00  0.00    +0.000 OA
ATOM     13  C   UNL     1       7.106   4.665  16.224  0.00  0.00    +0.000 C 
BRANCH  13  14
ATOM     14  C   UNL     1       7.000   4.534  14.740  0.00  0.00    +0.000 A 
ATOM     15  C   UNL     1       7.805   5.263  13.852  0.00  0.00    +0.000 A 
ATOM     16  C   UNL     1       7.668   5.088  12.473  0.00  0.00    +0.000 A 
ATOM     17  C   UNL     1       6.701   4.221  11.970  0.00  0.00    +0.000 A 
ATOM     18  C   UNL     1       5.867   3.524  12.843  0.00  0.00    +0.000 A 
ATOM     19  C   UNL     1       6.015   3.681  14.224  0.00  0.00    +0.000 A 
ENDBRANCH  13  14
ENDBRANCH   1  13
BRANCH   5  20
ATOM     20  C   UNL     1       1.461   3.971  21.042  0.00  0.00    +0.000 C 
ATOM     21 CL   UNL     1       2.446   2.633  21.654  0.00  0.00    +0.000 Cl
ENDBRANCH   5  20
TORSDOF 3
ENDMDL
MODEL 8
REMARK VINA RESULT:      -7.7      2.521      6.299
REMARK  Name = 
REMARK  3 active torsions:
REMARK  status: ('A' for Active; 'I' for Inactive)
REMARK    1  A    between atoms: C_2  and  C_3
REMARK    2  A    between atoms: C_2  and  C_9
REMARK    3  A    between atoms: C_13  and  C_14
REMARK                            x       y       z     vdW  Elec       q    Type
REMARK                         _______ _______ _______ _____ _____    ______ ____
ROOT
ATOM      1  C   UNL     1       6.204   4.480  15.700  0.00  0.00    +0.000 A 
ATOM      2  C   UNL     1       4.881   4.269  15.820  0.00  0.00    +0.000 A 
ATOM      3  C   UNL     1       4.286   4.117  17.139  0.00  0.00    +0.000 A 
ATOM      4  C   UNL     1       2.958   3.727  17.330  0.00  0.00    +0.000 A 
ATOM      5  C   UNL     1       2.424   3.641  18.630  0.00  0.00    +0.000 A 
ATOM      6  C   UNL     1       3.216   4.020  19.727  0.00  0.00    +0.000 A 
ATOM      7  C   UNL     1       4.541   4.404  19.539  0.00  0.00    +0.000 A 
ATOM      8  C   UNL     1       5.066   4.415  18.251  0.00  0.00    +0.000 A 
ATOM      9  O   UNL     1       6.435   4.681  18.120  0.00  0.00    +0.000 OA
ATOM     10  C   UNL     1       7.059   4.434  16.907  0.00  0.00    +0.000 A 
ATOM     11  O   UNL     1       8.268   4.241  16.848  0.00  0.00    +0.000 OA
ENDROOT
BRANCH   1  13
ATOM     12  O   UNL     1       7.648   5.494  14.119  0.00  0.00    +0.000 OA
ATOM     13  C   UNL     1       6.742   4.686  14.326  0.00  0.00    +0.000 C 
BRANCH  13  14
ATOM     14  C   UNL     1       6.218   3.880  13.183  0.00  0.00    +0.000 A 
ATOM     15  C   UNL     1       4.874   3.912  12.781  0.00  0.00    +0.000 A 
ATOM     16  C   UNL     1       4.446   3.143  11.695  0.00  0.00    +0.000 A 
ATOM     17  C   UNL     1       5.342   2.308  11.032  0.00  0.00    +0.000 A 
ATOM     18  C   UNL     1       6.670   2.238  11.450  0.00  0.00    +0.000 A 
ATOM     19  C   UNL     1       7.107   3.020  12.523  0.00  0.00    +0.000 A 
ENDBRANCH  13  14
ENDBRANCH   1  13
BRANCH   5  20
ATOM     20  C   UNL     1       1.014   3.162  18.845  0.00  0.00    +0.000 C 
ATOM     21 CL   UNL     1       0.693   2.914  20.569  0.00  0.00    +0.000 Cl
ENDBRANCH   5  20
TORSDOF 3
ENDMDL
MODEL 9
REMARK VINA RESULT:      -7.7      2.726      6.340
REMARK  Name = 
REMARK  3 active torsions:
REMARK  status: ('A' for Active; 'I' for Inactive)
REMARK    1  A    between atoms: C_2  and  C_3
REMARK    2  A    between atoms: C_2  and  C_9
REMARK    3  A    between atoms: C_13  and  C_14
REMARK                            x       y       z     vdW  Elec       q    Type
REMARK                         _______ _______ _______ _____ _____    ______ ____
ROOT
ATOM      1  C   UNL     1       5.604   5.084  15.781  0.00  0.00    +0.000 A 
ATOM      2  C   UNL     1       4.901   4.029  16.227  0.00  0.00    +0.000 A 
ATOM      3  C   UNL     1       3.902   4.210  17.270  0.00  0.00    +0.000 A 
ATOM      4  C   UNL     1       3.261   3.139  17.898  0.00  0.00    +0.000 A 
ATOM      5  C   UNL     1       2.269   3.377  18.869  0.00  0.00    +0.000 A 
ATOM      6  C   UNL     1       1.879   4.697  19.146  0.00  0.00    +0.000 A 
ATOM      7  C   UNL     1       2.520   5.767  18.526  0.00  0.00    +0.000 A 
ATOM      8  C   UNL     1       3.544   5.507  17.622  0.00  0.00    +0.000 A 
ATOM      9  O   UNL     1       4.249   6.609  17.118  0.00  0.00    +0.000 OA
ATOM     10  C   UNL     1       5.439   6.399  16.441  0.00  0.00    +0.000 A 
ATOM     11  O   UNL     1       6.282   7.286  16.358  0.00  0.00    +0.000 OA
ENDROOT
BRANCH   1  13
ATOM     12  O   UNL     1       7.732   5.242  14.751  0.00  0.00    +0.000 OA
ATOM     13  C   UNL     1       6.569   4.844  14.672  0.00  0.00    +0.000 C 
BRANCH  13  14
ATOM     14  C   UNL     1       6.150   4.074  13.462  0.00  0.00    +0.000 A 
ATOM     15  C   UNL     1       4.807   3.922  13.084  0.00  0.00    +0.000 A 
ATOM     16  C   UNL     1       4.478   3.200  11.934  0.00  0.00    +0.000 A 
ATOM     17  C   UNL     1       5.478   2.591  11.179  0.00  0.00    +0.000 A 
ATOM     18  C   UNL     1       6.811   2.701  11.570  0.00  0.00    +0.000 A 
ATOM     19  C   UNL     1       7.146   3.439  12.708  0.00  0.00    +0.000 A 
ENDBRANCH  13  14
ENDBRANCH   1  13
BRANCH   5  20
ATOM     20  C   UNL     1       1.620   2.229  19.593  0.00  0.00    +0.000 C 
ATOM     21 CL   UNL     1       1.540   2.550  21.333  0.00  0.00    +0.000 Cl
ENDBRANCH   5  20
TORSDOF 3
ENDMDL
