MODEL 1
REMARK VINA RESULT:      -6.7      0.000      0.000
REMARK  Name = 
REMARK  8 active torsions:
REMARK  status: ('A' for Active; 'I' for Inactive)
REMARK    1  A    between atoms: C_1  and  C_2
REMARK    2  A    between atoms: C_5  and  S_6
REMARK    3  A    between atoms: S_6  and  N_9
REMARK    4  A    between atoms: N_12  and  S_13
REMARK    5  A    between atoms: S_13  and  N_16
REMARK    6  A    between atoms: N_16  and  C_17
REMARK    7  A    between atoms: N_16  and  C_18
REMARK    8  A    between atoms: C_21  and  C_22
REMARK                            x       y       z     vdW  Elec       q    Type
REMARK                         _______ _______ _______ _____ _____    ______ ____
ROOT
ATOM      1  N   UNL     1       5.494   5.200  16.854  0.00  0.00    +0.000 NA
ATOM      2  C   UNL     1       6.355   4.422  17.769  0.00  0.00    +0.000 C 
ATOM      3  C   UNL     1       5.945   4.713  19.218  0.00  0.00    +0.000 C 
ATOM      4  N   UNL     1       4.491   4.445  19.458  0.00  0.00    +0.000 NA
ATOM      5  C   UNL     1       3.676   5.316  18.537  0.00  0.00    +0.000 C 
ATOM      6  C   UNL     1       4.033   5.088  17.053  0.00  0.00    +0.000 C 
ENDROOT
BRANCH   1   7
ATOM      7  S   UNL     1       6.177   6.046  15.587  0.00  0.00    +0.000 S 
ATOM      8  O   UNL     1       7.541   6.331  16.000  0.00  0.00    +0.000 OA
ATOM      9  O   UNL     1       5.297   7.113  15.171  0.00  0.00    +0.000 OA
BRANCH   7  14
ATOM     10  C   UNL     1       6.020   2.003  11.027  0.00  0.00    +0.000 C 
ATOM     11  C   UNL     1       6.112   2.950  12.186  0.00  0.00    +0.000 A 
ATOM     12  C   UNL     1       5.199   2.896  13.238  0.00  0.00    +0.000 A 
ATOM     13  C   UNL     1       5.267   3.830  14.272  0.00  0.00    +0.000 A 
ATOM     14  C   UNL     1       6.254   4.833  14.272  0.00  0.00    +0.000 A 
ATOM     15  C   UNL     1       7.220   4.868  13.251  0.00  0.00    +0.000 A 
ATOM     16  C   UNL     1       8.356   5.844  13.158  0.00  0.00    +0.000 C 
ATOM     17  C   UNL     1       7.121   3.921  12.212  0.00  0.00    +0.000 A 
ENDBRANCH   7  14
ENDBRANCH   1   7
BRANCH   4  18
ATOM     18  S   UNL     1       3.998   2.828  19.469  0.00  0.00    +0.000 S 
ATOM     19  O   UNL     1       3.919   2.382  18.105  0.00  0.00    +0.000 OA
ATOM     20  O   UNL     1       4.800   2.098  20.421  0.00  0.00    +0.000 OA
BRANCH  18  21
ATOM     21  N   UNL     1       2.422   2.932  20.084  0.00  0.00    +0.000 NA
ATOM     22  C   UNL     1       1.414   2.137  19.348  0.00  0.00    +0.000 C 
ATOM     23  C   UNL     1       2.377   2.643  21.539  0.00  0.00    +0.000 C 
ENDBRANCH  18  21
ENDBRANCH   4  18
TORSDOF 4
ENDMDL
MODEL 2
REMARK VINA RESULT:      -6.7      1.495      1.743
REMARK  Name = 
REMARK  8 active torsions:
REMARK  status: ('A' for Active; 'I' for Inactive)
REMARK    1  A    between atoms: C_1  and  C_2
REMARK    2  A    between atoms: C_5  and  S_6
REMARK    3  A    between atoms: S_6  and  N_9
REMARK    4  A    between atoms: N_12  and  S_13
REMARK    5  A    between atoms: S_13  and  N_16
REMARK    6  A    between atoms: N_16  and  C_17
REMARK    7  A    between atoms: N_16  and  C_18
REMARK    8  A    between atoms: C_21  and  C_22
REMARK                            x       y       z     vdW  Elec       q    Type
REMARK                         _______ _______ _______ _____ _____    ______ ____
ROOT
ATOM      1  N   UNL     1       5.765   5.091  17.165  0.00  0.00    +0.000 NA
ATOM      2  C   UNL     1       5.674   4.129  18.284  0.00  0.00    +0.000 C 
ATOM      3  C   UNL     1       5.075   4.831  19.507  0.00  0.00    +0.000 C 
ATOM      4  N   UNL     1       3.749   5.460  19.204  0.00  0.00    +0.000 NA
ATOM      5  C   UNL     1       3.929   6.471  18.101  0.00  0.00    +0.000 C 
ATOM      6  C   UNL     1       4.536   5.843  16.830  0.00  0.00    +0.000 C 
ENDROOT
BRANCH   1   7
ATOM      7  S   UNL     1       7.168   5.194  16.267  0.00  0.00    +0.000 S 
ATOM      8  O   UNL     1       8.094   4.259  16.884  0.00  0.00    +0.000 OA
ATOM      9  O   UNL     1       7.537   6.577  16.079  0.00  0.00    +0.000 OA
BRANCH   7  14
ATOM     10  C   UNL     1       5.154   3.030  10.935  0.00  0.00    +0.000 C 
ATOM     11  C   UNL     1       5.701   3.500  12.250  0.00  0.00    +0.000 A 
ATOM     12  C   UNL     1       5.079   3.165  13.453  0.00  0.00    +0.000 A 
ATOM     13  C   UNL     1       5.570   3.669  14.658  0.00  0.00    +0.000 A 
ATOM     14  C   UNL     1       6.695   4.514  14.679  0.00  0.00    +0.000 A 
ATOM     15  C   UNL     1       7.370   4.816  13.484  0.00  0.00    +0.000 A 
ATOM     16  C   UNL     1       8.609   5.655  13.369  0.00  0.00    +0.000 C 
ATOM     17  C   UNL     1       6.846   4.305  12.279  0.00  0.00    +0.000 A 
ENDBRANCH   7  14
ENDBRANCH   1   7
BRANCH   4  18
ATOM     18  S   UNL     1       2.442   4.416  18.956  0.00  0.00    +0.000 S 
ATOM     19  O   UNL     1       1.656   4.943  17.873  0.00  0.00    +0.000 OA
ATOM     20  O   UNL     1       2.927   3.059  18.901  0.00  0.00    +0.000 OA
BRANCH  18  21
ATOM     21  N   UNL     1       1.555   4.596  20.389  0.00  0.00    +0.000 NA
ATOM     22  C   UNL     1       1.911   3.644  21.464  0.00  0.00    +0.000 C 
ATOM     23  C   UNL     1       1.579   5.997  20.880  0.00  0.00    +0.000 C 
ENDBRANCH  18  21
ENDBRANCH   4  18
TORSDOF 4
ENDMDL
MODEL 3
REMARK VINA RESULT:      -6.6      3.432      4.935
REMARK  Name = 
REMARK  8 active torsions:
REMARK  status: ('A' for Active; 'I' for Inactive)
REMARK    1  A    between atoms: C_1  and  C_2
REMARK    2  A    between atoms: C_5  and  S_6
REMARK    3  A    between atoms: S_6  and  N_9
REMARK    4  A    between atoms: N_12  and  S_13
REMARK    5  A    between atoms: S_13  and  N_16
REMARK    6  A    between atoms: N_16  and  C_17
REMARK    7  A    between atoms: N_16  and  C_18
REMARK    8  A    between atoms: C_21  and  C_22
REMARK                            x       y       z     vdW  Elec       q    Type
REMARK                         _______ _______ _______ _____ _____    ______ ____
ROOT
ATOM      1  N   UNL     1       5.000   5.251  17.511  0.00  0.00    +0.000 NA
ATOM      2  C   UNL     1       4.676   3.857  17.880  0.00  0.00    +0.000 C 
ATOM      3  C   UNL     1       4.476   3.769  19.397  0.00  0.00    +0.000 C 
ATOM      4  N   UNL     1       3.437   4.731  19.887  0.00  0.00    +0.000 NA
ATOM      5  C   UNL     1       3.863   6.132  19.531  0.00  0.00    +0.000 C 
ATOM      6  C   UNL     1       4.092   6.304  18.015  0.00  0.00    +0.000 C 
ENDROOT
BRANCH   1   7
ATOM      7  S   UNL     1       6.262   5.562  16.464  0.00  0.00    +0.000 S 
ATOM      8  O   UNL     1       5.661   6.218  15.314  0.00  0.00    +0.000 OA
ATOM      9  O   UNL     1       7.071   4.378  16.295  0.00  0.00    +0.000 OA
BRANCH   7  14
ATOM     10  C   UNL     1       9.213   9.995  19.432  0.00  0.00    +0.000 C 
ATOM     11  C   UNL     1       8.558   8.884  18.667  0.00  0.00    +0.000 A 
ATOM     12  C   UNL     1       7.925   9.121  17.447  0.00  0.00    +0.000 A 
ATOM     13  C   UNL     1       7.266   8.083  16.788  0.00  0.00    +0.000 A 
ATOM     14  C   UNL     1       7.232   6.788  17.337  0.00  0.00    +0.000 A 
ATOM     15  C   UNL     1       7.913   6.516  18.536  0.00  0.00    +0.000 A 
ATOM     16  C   UNL     1       8.005   5.174  19.203  0.00  0.00    +0.000 C 
ATOM     17  C   UNL     1       8.560   7.584  19.190  0.00  0.00    +0.000 A 
ENDBRANCH   7  14
ENDBRANCH   1   7
BRANCH   4  18
ATOM     18  S   UNL     1       1.828   4.394  19.489  0.00  0.00    +0.000 S 
ATOM     19  O   UNL     1       0.987   5.118  20.403  0.00  0.00    +0.000 OA
ATOM     20  O   UNL     1       1.652   4.554  18.066  0.00  0.00    +0.000 OA
BRANCH  18  21
ATOM     21  N   UNL     1       1.702   2.743  19.849  0.00  0.00    +0.000 NA
ATOM     22  C   UNL     1       1.465   2.435  21.278  0.00  0.00    +0.000 C 
ATOM     23  C   UNL     1       0.710   2.063  18.980  0.00  0.00    +0.000 C 
ENDBRANCH  18  21
ENDBRANCH   4  18
TORSDOF 4
ENDMDL
MODEL 4
REMARK VINA RESULT:      -6.6      1.517      1.844
REMARK  Name = 
REMARK  8 active torsions:
REMARK  status: ('A' for Active; 'I' for Inactive)
REMARK    1  A    between atoms: C_1  and  C_2
REMARK    2  A    between atoms: C_5  and  S_6
REMARK    3  A    between atoms: S_6  and  N_9
REMARK    4  A    between atoms: N_12  and  S_13
REMARK    5  A    between atoms: S_13  and  N_16
REMARK    6  A    between atoms: N_16  and  C_17
REMARK    7  A    between atoms: N_16  and  C_18
REMARK    8  A    between atoms: C_21  and  C_22
REMARK                            x       y       z     vdW  Elec       q    Type
REMARK                         _______ _______ _______ _____ _____    ______ ____
ROOT
ATOM      1  N   UNL     1       5.762   5.195  17.230  0.00  0.00    +0.000 NA
ATOM      2  C   UNL     1       5.705   4.256  18.370  0.00  0.00    +0.000 C 
ATOM      3  C   UNL     1       5.151   4.986  19.599  0.00  0.00    +0.000 C 
ATOM      4  N   UNL     1       3.820   5.617  19.329  0.00  0.00    +0.000 NA
ATOM      5  C   UNL     1       3.967   6.604  18.200  0.00  0.00    +0.000 C 
ATOM      6  C   UNL     1       4.527   5.948  16.921  0.00  0.00    +0.000 C 
ENDROOT
BRANCH   1   7
ATOM      7  S   UNL     1       7.135   5.271  16.282  0.00  0.00    +0.000 S 
ATOM      8  O   UNL     1       8.075   4.341  16.885  0.00  0.00    +0.000 OA
ATOM      9  O   UNL     1       7.506   6.648  16.055  0.00  0.00    +0.000 OA
BRANCH   7  14
ATOM     10  C   UNL     1       4.928   3.038  11.056  0.00  0.00    +0.000 C 
ATOM     11  C   UNL     1       5.520   3.523  12.346  0.00  0.00    +0.000 A 
ATOM     12  C   UNL     1       4.909   3.249  13.569  0.00  0.00    +0.000 A 
ATOM     13  C   UNL     1       5.444   3.767  14.749  0.00  0.00    +0.000 A 
ATOM     14  C   UNL     1       6.602   4.566  14.724  0.00  0.00    +0.000 A 
ATOM     15  C   UNL     1       7.265   4.805  13.508  0.00  0.00    +0.000 A 
ATOM     16  C   UNL     1       8.534   5.589  13.345  0.00  0.00    +0.000 C 
ATOM     17  C   UNL     1       6.697   4.281  12.329  0.00  0.00    +0.000 A 
ENDBRANCH   7  14
ENDBRANCH   1   7
BRANCH   4  18
ATOM     18  S   UNL     1       2.499   4.577  19.146  0.00  0.00    +0.000 S 
ATOM     19  O   UNL     1       1.433   5.067  19.978  0.00  0.00    +0.000 OA
ATOM     20  O   UNL     1       2.270   4.350  17.740  0.00  0.00    +0.000 OA
BRANCH  18  21
ATOM     21  N   UNL     1       3.076   3.134  19.822  0.00  0.00    +0.000 NA
ATOM     22  C   UNL     1       2.560   2.832  21.176  0.00  0.00    +0.000 C 
ATOM     23  C   UNL     1       2.887   1.981  18.905  0.00  0.00    +0.000 C 
ENDBRANCH  18  21
ENDBRANCH   4  18
TORSDOF 4
ENDMDL
MODEL 5
REMARK VINA RESULT:      -6.3      3.337      4.902
REMARK  Name = 
REMARK  8 active torsions:
REMARK  status: ('A' for Active; 'I' for Inactive)
REMARK    1  A    between atoms: C_1  and  C_2
REMARK    2  A    between atoms: C_5  and  S_6
REMARK    3  A    between atoms: S_6  and  N_9
REMARK    4  A    between atoms: N_12  and  S_13
REMARK    5  A    between atoms: S_13  and  N_16
REMARK    6  A    between atoms: N_16  and  C_17
REMARK    7  A    between atoms: N_16  and  C_18
REMARK    8  A    between atoms: C_21  and  C_22
REMARK                            x       y       z     vdW  Elec       q    Type
REMARK                         _______ _______ _______ _____ _____    ______ ____
ROOT
ATOM      1  N   UNL     1       4.926   5.220  17.404  0.00  0.00    +0.000 NA
ATOM      2  C   UNL     1       4.180   6.334  18.025  0.00  0.00    +0.000 C 
ATOM      3  C   UNL     1       2.675   6.071  17.892  0.00  0.00    +0.000 C 
ATOM      4  N   UNL     1       2.280   4.746  18.468  0.00  0.00    +0.000 NA
ATOM      5  C   UNL     1       3.032   3.656  17.747  0.00  0.00    +0.000 C 
ATOM      6  C   UNL     1       4.560   3.851  17.829  0.00  0.00    +0.000 C 
ENDROOT
BRANCH   1   7
ATOM      7  S   UNL     1       6.203   5.543  16.378  0.00  0.00    +0.000 S 
ATOM      8  O   UNL     1       5.619   6.223  15.234  0.00  0.00    +0.000 OA
ATOM      9  O   UNL     1       7.007   4.358  16.197  0.00  0.00    +0.000 OA
BRANCH   7  14
ATOM     10  C   UNL     1       9.139   9.900  19.471  0.00  0.00    +0.000 C 
ATOM     11  C   UNL     1       8.487   8.810  18.675  0.00  0.00    +0.000 A 
ATOM     12  C   UNL     1       7.848   9.080  17.465  0.00  0.00    +0.000 A 
ATOM     13  C   UNL     1       7.193   8.059  16.776  0.00  0.00    +0.000 A 
ATOM     14  C   UNL     1       7.169   6.748  17.285  0.00  0.00    +0.000 A 
ATOM     15  C   UNL     1       7.856   6.443  18.473  0.00  0.00    +0.000 A 
ATOM     16  C   UNL     1       7.959   5.082  19.097  0.00  0.00    +0.000 C 
ATOM     17  C   UNL     1       8.500   7.494  19.156  0.00  0.00    +0.000 A 
ENDBRANCH   7  14
ENDBRANCH   1   7
BRANCH   4  18
ATOM     18  S   UNL     1       2.325   4.596  20.152  0.00  0.00    +0.000 S 
ATOM     19  O   UNL     1       3.566   3.961  20.505  0.00  0.00    +0.000 OA
ATOM     20  O   UNL     1       1.968   5.860  20.747  0.00  0.00    +0.000 OA
BRANCH  18  21
ATOM     21  N   UNL     1       1.067   3.501  20.453  0.00  0.00    +0.000 NA
ATOM     22  C   UNL     1       0.634   2.713  19.278  0.00  0.00    +0.000 C 
ATOM     23  C   UNL     1       1.366   2.621  21.611  0.00  0.00    +0.000 C 
ENDBRANCH  18  21
ENDBRANCH   4  18
TORSDOF 4
ENDMDL
MODEL 6
REMARK VINA RESULT:      -6.2      3.077      4.719
REMARK  Name = 
REMARK  8 active torsions:
REMARK  status: ('A' for Active; 'I' for Inactive)
REMARK    1  A    between atoms: C_1  and  C_2
REMARK    2  A    between atoms: C_5  and  S_6
REMARK    3  A    between atoms: S_6  and  N_9
REMARK    4  A    between atoms: N_12  and  S_13
REMARK    5  A    between atoms: S_13  and  N_16
REMARK    6  A    between atoms: N_16  and  C_17
REMARK    7  A    between atoms: N_16  and  C_18
REMARK    8  A    between atoms: C_21  and  C_22
REMARK                            x       y       z     vdW  Elec       q    Type
REMARK                         _______ _______ _______ _____ _____    ______ ____
ROOT
ATOM      1  N   UNL     1       4.907   4.937  17.051  0.00  0.00    +0.000 NA
ATOM      2  C   UNL     1       4.391   3.557  16.930  0.00  0.00    +0.000 C 
ATOM      3  C   UNL     1       4.327   2.917  18.321  0.00  0.00    +0.000 C 
ATOM      4  N   UNL     1       3.516   3.733  19.281  0.00  0.00    +0.000 NA
ATOM      5  C   UNL     1       4.136   5.102  19.402  0.00  0.00    +0.000 C 
ATOM      6  C   UNL     1       4.243   5.815  18.038  0.00  0.00    +0.000 C 
ENDROOT
BRANCH   1   7
ATOM      7  S   UNL     1       6.097   5.474  16.010  0.00  0.00    +0.000 S 
ATOM      8  O   UNL     1       5.408   6.274  15.012  0.00  0.00    +0.000 OA
ATOM      9  O   UNL     1       6.944   4.374  15.614  0.00  0.00    +0.000 OA
BRANCH   7  14
ATOM     10  C   UNL     1       9.022   9.532  19.495  0.00  0.00    +0.000 C 
ATOM     11  C   UNL     1       8.373   8.519  18.600  0.00  0.00    +0.000 A 
ATOM     12  C   UNL     1       7.719   8.902  17.429  0.00  0.00    +0.000 A 
ATOM     13  C   UNL     1       7.067   7.948  16.648  0.00  0.00    +0.000 A 
ATOM     14  C   UNL     1       7.061   6.593  17.024  0.00  0.00    +0.000 A 
ATOM     15  C   UNL     1       7.763   6.178  18.169  0.00  0.00    +0.000 A 
ATOM     16  C   UNL     1       7.885   4.762  18.654  0.00  0.00    +0.000 C 
ATOM     17  C   UNL     1       8.403   7.163  18.948  0.00  0.00    +0.000 A 
ENDBRANCH   7  14
ENDBRANCH   1   7
BRANCH   4  18
ATOM     18  S   UNL     1       1.843   3.769  19.039  0.00  0.00    +0.000 S 
ATOM     19  O   UNL     1       1.546   4.886  18.183  0.00  0.00    +0.000 OA
ATOM     20  O   UNL     1       1.391   2.447  18.683  0.00  0.00    +0.000 OA
BRANCH  18  21
ATOM     21  N   UNL     1       1.259   4.122  20.590  0.00  0.00    +0.000 NA
ATOM     22  C   UNL     1       1.811   3.274  21.671  0.00  0.00    +0.000 C 
ATOM     23  C   UNL     1       1.393   5.564  20.916  0.00  0.00    +0.000 C 
ENDBRANCH  18  21
ENDBRANCH   4  18
TORSDOF 4
ENDMDL
MODEL 7
REMARK VINA RESULT:      -6.2      1.698      2.125
REMARK  Name = 
REMARK  8 active torsions:
REMARK  status: ('A' for Active; 'I' for Inactive)
REMARK    1  A    between atoms: C_1  and  C_2
REMARK    2  A    between atoms: C_5  and  S_6
REMARK    3  A    between atoms: S_6  and  N_9
REMARK    4  A    between atoms: N_12  and  S_13
REMARK    5  A    between atoms: S_13  and  N_16
REMARK    6  A    between atoms: N_16  and  C_17
REMARK    7  A    between atoms: N_16  and  C_18
REMARK    8  A    between atoms: C_21  and  C_22
REMARK                            x       y       z     vdW  Elec       q    Type
REMARK                         _______ _______ _______ _____ _____    ______ ____
ROOT
ATOM      1  N   UNL     1       5.758   5.099  17.276  0.00  0.00    +0.000 NA
ATOM      2  C   UNL     1       5.046   6.336  17.660  0.00  0.00    +0.000 C 
ATOM      3  C   UNL     1       3.543   6.146  17.431  0.00  0.00    +0.000 C 
ATOM      4  N   UNL     1       3.008   4.948  18.155  0.00  0.00    +0.000 NA
ATOM      5  C   UNL     1       3.735   3.720  17.669  0.00  0.00    +0.000 C 
ATOM      6  C   UNL     1       5.261   3.833  17.859  0.00  0.00    +0.000 C 
ENDROOT
BRANCH   1   7
ATOM      7  S   UNL     1       7.133   5.188  16.334  0.00  0.00    +0.000 S 
ATOM      8  O   UNL     1       8.059   4.225  16.904  0.00  0.00    +0.000 OA
ATOM      9  O   UNL     1       7.524   6.567  16.155  0.00  0.00    +0.000 OA
BRANCH   7  14
ATOM     10  C   UNL     1       4.906   3.176  11.026  0.00  0.00    +0.000 C 
ATOM     11  C   UNL     1       5.501   3.605  12.335  0.00  0.00    +0.000 A 
ATOM     12  C   UNL     1       4.869   3.318  13.545  0.00  0.00    +0.000 A 
ATOM     13  C   UNL     1       5.409   3.785  14.744  0.00  0.00    +0.000 A 
ATOM     14  C   UNL     1       6.593   4.544  14.752  0.00  0.00    +0.000 A 
ATOM     15  C   UNL     1       7.276   4.795  13.549  0.00  0.00    +0.000 A 
ATOM     16  C   UNL     1       8.572   5.540  13.419  0.00  0.00    +0.000 C 
ATOM     17  C   UNL     1       6.703   4.323  12.350  0.00  0.00    +0.000 A 
ENDBRANCH   7  14
ENDBRANCH   1   7
BRANCH   4  18
ATOM     18  S   UNL     1       2.906   5.049  19.840  0.00  0.00    +0.000 S 
ATOM     19  O   UNL     1       4.245   5.027  20.364  0.00  0.00    +0.000 OA
ATOM     20  O   UNL     1       2.011   6.123  20.193  0.00  0.00    +0.000 OA
BRANCH  18  21
ATOM     21  N   UNL     1       2.156   3.585  20.247  0.00  0.00    +0.000 NA
ATOM     22  C   UNL     1       2.244   3.219  21.679  0.00  0.00    +0.000 C 
ATOM     23  C   UNL     1       0.753   3.531  19.764  0.00  0.00    +0.000 C 
ENDBRANCH  18  21
ENDBRANCH   4  18
TORSDOF 4
ENDMDL
MODEL 8
REMARK VINA RESULT:      -6.1      2.538      7.013
REMARK  Name = 
REMARK  8 active torsions:
REMARK  status: ('A' for Active; 'I' for Inactive)
REMARK    1  A    between atoms: C_1  and  C_2
REMARK    2  A    between atoms: C_5  and  S_6
REMARK    3  A    between atoms: S_6  and  N_9
REMARK    4  A    between atoms: N_12  and  S_13
REMARK    5  A    between atoms: S_13  and  N_16
REMARK    6  A    between atoms: N_16  and  C_17
REMARK    7  A    between atoms: N_16  and  C_18
REMARK    8  A    between atoms: C_21  and  C_22
REMARK                            x       y       z     vdW  Elec       q    Type
REMARK                         _______ _______ _______ _____ _____    ______ ____
ROOT
ATOM      1  N   UNL     1       4.834   4.679  17.654  0.00  0.00    +0.000 NA
ATOM      2  C   UNL     1       6.063   5.495  17.558  0.00  0.00    +0.000 C 
ATOM      3  C   UNL     1       7.206   4.627  17.021  0.00  0.00    +0.000 C 
ATOM      4  N   UNL     1       6.861   3.985  15.713  0.00  0.00    +0.000 NA
ATOM      5  C   UNL     1       5.640   3.121  15.900  0.00  0.00    +0.000 C 
ATOM      6  C   UNL     1       4.440   3.921  16.446  0.00  0.00    +0.000 C 
ENDROOT
BRANCH   1   7
ATOM      7  S   UNL     1       3.898   4.743  19.034  0.00  0.00    +0.000 S 
ATOM      8  O   UNL     1       4.838   4.798  20.140  0.00  0.00    +0.000 OA
ATOM      9  O   UNL     1       2.875   3.725  18.988  0.00  0.00    +0.000 OA
BRANCH   7  14
ATOM     10  C   UNL     1       1.084  10.094  18.243  0.00  0.00    +0.000 C 
ATOM     11  C   UNL     1       1.828   8.815  18.487  0.00  0.00    +0.000 A 
ATOM     12  C   UNL     1       2.825   8.381  17.614  0.00  0.00    +0.000 A 
ATOM     13  C   UNL     1       3.457   7.155  17.827  0.00  0.00    +0.000 A 
ATOM     14  C   UNL     1       3.104   6.345  18.922  0.00  0.00    +0.000 A 
ATOM     15  C   UNL     1       2.144   6.792  19.846  0.00  0.00    +0.000 A 
ATOM     16  C   UNL     1       1.714   6.057  21.082  0.00  0.00    +0.000 C 
ATOM     17  C   UNL     1       1.511   8.027  19.601  0.00  0.00    +0.000 A 
ENDBRANCH   7  14
ENDBRANCH   1   7
BRANCH   4  18
ATOM     18  S   UNL     1       6.772   4.995  14.359  0.00  0.00    +0.000 S 
ATOM     19  O   UNL     1       5.610   5.829  14.508  0.00  0.00    +0.000 OA
ATOM     20  O   UNL     1       8.065   5.592  14.132  0.00  0.00    +0.000 OA
BRANCH  18  21
ATOM     21  N   UNL     1       6.475   3.896  13.104  0.00  0.00    +0.000 NA
ATOM     22  C   UNL     1       5.058   3.792  12.690  0.00  0.00    +0.000 C 
ATOM     23  C   UNL     1       7.360   4.139  11.937  0.00  0.00    +0.000 C 
ENDBRANCH  18  21
ENDBRANCH   4  18
TORSDOF 4
ENDMDL
MODEL 9
REMARK VINA RESULT:      -6.1      3.062      7.309
REMARK  Name = 
REMARK  8 active torsions:
REMARK  status: ('A' for Active; 'I' for Inactive)
REMARK    1  A    between atoms: C_1  and  C_2
REMARK    2  A    between atoms: C_5  and  S_6
REMARK    3  A    between atoms: S_6  and  N_9
REMARK    4  A    between atoms: N_12  and  S_13
REMARK    5  A    between atoms: S_13  and  N_16
REMARK    6  A    between atoms: N_16  and  C_17
REMARK    7  A    between atoms: N_16  and  C_18
REMARK    8  A    between atoms: C_21  and  C_22
REMARK                            x       y       z     vdW  Elec       q    Type
REMARK                         _______ _______ _______ _____ _____    ______ ____
ROOT
ATOM      1  N   UNL     1       3.835   5.313  18.197  0.00  0.00    +0.000 NA
ATOM      2  C   UNL     1       5.178   5.859  18.480  0.00  0.00    +0.000 C 
ATOM      3  C   UNL     1       6.237   4.811  18.116  0.00  0.00    +0.000 C 
ATOM      4  N   UNL     1       6.110   4.349  16.697  0.00  0.00    +0.000 NA
ATOM      5  C   UNL     1       4.741   3.749  16.499  0.00  0.00    +0.000 C 
ATOM      6  C   UNL     1       3.614   4.742  16.851  0.00  0.00    +0.000 C 
ENDROOT
BRANCH   1   7
ATOM      7  S   UNL     1       2.617   5.474  19.328  0.00  0.00    +0.000 S 
ATOM      8  O   UNL     1       3.255   5.275  20.618  0.00  0.00    +0.000 OA
ATOM      9  O   UNL     1       1.474   4.680  18.943  0.00  0.00    +0.000 OA
BRANCH   7  14
ATOM     10  C   UNL     1       0.901  11.271  18.541  0.00  0.00    +0.000 C 
ATOM     11  C   UNL     1       1.388   9.872  18.774  0.00  0.00    +0.000 A 
ATOM     12  C   UNL     1       2.141   9.199  17.813  0.00  0.00    +0.000 A 
ATOM     13  C   UNL     1       2.526   7.875  18.026  0.00  0.00    +0.000 A 
ATOM     14  C   UNL     1       2.167   7.204  19.209  0.00  0.00    +0.000 A 
ATOM     15  C   UNL     1       1.459   7.883  20.216  0.00  0.00    +0.000 A 
ATOM     16  C   UNL     1       1.061   7.308  21.544  0.00  0.00    +0.000 C 
ATOM     17  C   UNL     1       1.071   9.215  19.970  0.00  0.00    +0.000 A 
ENDBRANCH   7  14
ENDBRANCH   1   7
BRANCH   4  18
ATOM     18  S   UNL     1       6.545   5.448  15.488  0.00  0.00    +0.000 S 
ATOM     19  O   UNL     1       5.358   6.154  15.086  0.00  0.00    +0.000 OA
ATOM     20  O   UNL     1       7.709   6.184  15.918  0.00  0.00    +0.000 OA
BRANCH  18  21
ATOM     21  N   UNL     1       7.009   4.428  14.218  0.00  0.00    +0.000 NA
ATOM     22  C   UNL     1       5.890   3.770  13.507  0.00  0.00    +0.000 C 
ATOM     23  C   UNL     1       7.922   5.111  13.267  0.00  0.00    +0.000 C 
ENDBRANCH  18  21
ENDBRANCH   4  18
TORSDOF 4
ENDMDL
