MODEL 1
REMARK VINA RESULT:      -8.2      0.000      0.000
REMARK  Name = 
REMARK  8 active torsions:
REMARK  status: ('A' for Active; 'I' for Inactive)
REMARK    1  A    between atoms: C_1  and  C_2
REMARK    2  A    between atoms: C_2  and  N_3
REMARK    3  A    between atoms: C_5  and  C_6
REMARK    4  A    between atoms: N_8  and  N_9
REMARK    5  A    between atoms: C_10  and  C_11
REMARK    6  A    between atoms: C_15  and  O_16
REMARK    7  A    between atoms: O_16  and  C_17
REMARK    8  A    between atoms: C_24  and  C_25
REMARK                            x       y       z     vdW  Elec       q    Type
REMARK                         _______ _______ _______ _____ _____    ______ ____
ROOT
ATOM      1  N   UNL     1       3.555   6.534  17.800  0.00  0.00    +0.000 N 
ATOM      2  C   UNL     1       4.782   7.138  17.574  0.00  0.00    +0.000 A 
ATOM      3  C   UNL     1       5.986   6.555  17.702  0.00  0.00    +0.000 A 
ATOM      4  C   UNL     1       5.991   5.140  18.141  0.00  0.00    +0.000 A 
ATOM      5  O   UNL     1       7.043   4.511  18.254  0.00  0.00    +0.000 OA
ATOM      6  C   UNL     1       4.698   4.498  18.449  0.00  0.00    +0.000 A 
ATOM      7  C   UNL     1       4.670   3.195  18.948  0.00  0.00    +0.000 A 
ATOM      8  C   UNL     1       3.446   2.605  19.224  0.00  0.00    +0.000 A 
ATOM      9  C   UNL     1       2.288   3.333  18.986  0.00  0.00    +0.000 A 
ATOM     10  C   UNL     1       0.940   2.719  19.211  0.00  0.00    +0.000 C 
ATOM     11  N   UNL     1       2.308   4.605  18.510  0.00  0.00    +0.000 NA
ATOM     12  C   UNL     1       3.502   5.196  18.255  0.00  0.00    +0.000 A 
ENDROOT
BRANCH   3  13
ATOM     13  C   UNL     1       7.216   7.346  17.411  0.00  0.00    +0.000 C 
ATOM     14  O   UNL     1       7.966   7.019  16.492  0.00  0.00    +0.000 OA
ATOM     15  N   UNL     1       7.416   8.434  18.244  0.00  0.00    +0.000 N 
ATOM     16  H   UNL     1       6.749   8.648  18.992  0.00  0.00    +0.000 HD
BRANCH  15  17
ATOM     17  N   UNL     1       8.509   9.218  18.055  0.00  0.00    +0.000 NA
ATOM     18  C   UNL     1       8.717  10.172  18.904  0.00  0.00    +0.000 C 
BRANCH  18  19
ATOM     19  C   UNL     1       9.894  11.057  18.743  0.00  0.00    +0.000 A 
ATOM     20  C   UNL     1      10.929  11.007  19.685  0.00  0.00    +0.000 A 
ATOM     21  C   UNL     1      12.046  11.824  19.537  0.00  0.00    +0.000 A 
ATOM     22  C   UNL     1      12.119  12.700  18.456  0.00  0.00    +0.000 A 
ATOM     23  C   UNL     1      11.082  12.770  17.519  0.00  0.00    +0.000 A 
ATOM     24  C   UNL     1       9.968  11.934  17.656  0.00  0.00    +0.000 A 
BRANCH  23  25
ATOM     25  O   UNL     1      11.280  13.691  16.528  0.00  0.00    +0.000 OA
ATOM     26  C   UNL     1      11.113  15.060  16.872  0.00  0.00    +0.000 C 
ENDBRANCH  23  25
ENDBRANCH  18  19
ENDBRANCH  15  17
ENDBRANCH   3  13
BRANCH   1  28
ATOM     27  C   UNL     1       2.489   8.761  17.776  0.00  0.00    +0.000 C 
ATOM     28  C   UNL     1       2.275   7.252  17.742  0.00  0.00    +0.000 C 
ENDBRANCH   1  28
TORSDOF 5
ENDMDL
MODEL 2
REMARK VINA RESULT:      -7.7      5.264      8.658
REMARK  Name = 
REMARK  8 active torsions:
REMARK  status: ('A' for Active; 'I' for Inactive)
REMARK    1  A    between atoms: C_1  and  C_2
REMARK    2  A    between atoms: C_2  and  N_3
REMARK    3  A    between atoms: C_5  and  C_6
REMARK    4  A    between atoms: N_8  and  N_9
REMARK    5  A    between atoms: C_10  and  C_11
REMARK    6  A    between atoms: C_15  and  O_16
REMARK    7  A    between atoms: O_16  and  C_17
REMARK    8  A    between atoms: C_24  and  C_25
REMARK                            x       y       z     vdW  Elec       q    Type
REMARK                         _______ _______ _______ _____ _____    ______ ____
ROOT
ATOM      1  N   UNL     1      -2.207  10.231  17.486  0.00  0.00    +0.000 N 
ATOM      2  C   UNL     1      -0.862   9.901  17.423  0.00  0.00    +0.000 A 
ATOM      3  C   UNL     1       0.093  10.312  18.274  0.00  0.00    +0.000 A 
ATOM      4  C   UNL     1      -0.339  11.214  19.367  0.00  0.00    +0.000 A 
ATOM      5  O   UNL     1       0.457  11.617  20.215  0.00  0.00    +0.000 OA
ATOM      6  C   UNL     1      -1.756  11.628  19.414  0.00  0.00    +0.000 A 
ATOM      7  C   UNL     1      -2.180  12.545  20.377  0.00  0.00    +0.000 A 
ATOM      8  C   UNL     1      -3.516  12.916  20.411  0.00  0.00    +0.000 A 
ATOM      9  C   UNL     1      -4.386  12.354  19.486  0.00  0.00    +0.000 A 
ATOM     10  C   UNL     1      -5.849  12.677  19.520  0.00  0.00    +0.000 C 
ATOM     11  N   UNL     1      -3.977  11.470  18.540  0.00  0.00    +0.000 NA
ATOM     12  C   UNL     1      -2.669  11.115  18.488  0.00  0.00    +0.000 A 
ENDROOT
BRANCH   3  13
ATOM     13  C   UNL     1       1.499   9.859  18.070  0.00  0.00    +0.000 C 
ATOM     14  O   UNL     1       2.418  10.675  18.023  0.00  0.00    +0.000 OA
ATOM     15  N   UNL     1       1.653   8.488  17.947  0.00  0.00    +0.000 N 
ATOM     16  H   UNL     1       0.841   7.865  17.996  0.00  0.00    +0.000 HD
BRANCH  15  17
ATOM     17  N   UNL     1       2.899   7.978  17.762  0.00  0.00    +0.000 NA
ATOM     18  C   UNL     1       3.123   6.776  18.184  0.00  0.00    +0.000 C 
BRANCH  18  19
ATOM     19  C   UNL     1       4.464   6.172  18.009  0.00  0.00    +0.000 A 
ATOM     20  C   UNL     1       5.047   5.465  19.068  0.00  0.00    +0.000 A 
ATOM     21  C   UNL     1       6.301   4.882  18.910  0.00  0.00    +0.000 A 
ATOM     22  C   UNL     1       6.977   5.022  17.700  0.00  0.00    +0.000 A 
ATOM     23  C   UNL     1       6.411   5.742  16.642  0.00  0.00    +0.000 A 
ATOM     24  C   UNL     1       5.141   6.311  16.793  0.00  0.00    +0.000 A 
BRANCH  23  25
ATOM     25  O   UNL     1       7.199   5.816  15.526  0.00  0.00    +0.000 OA
ATOM     26  C   UNL     1       6.991   4.835  14.520  0.00  0.00    +0.000 C 
ENDBRANCH  23  25
ENDBRANCH  18  19
ENDBRANCH  15  17
ENDBRANCH   3  13
BRANCH   1  28
ATOM     27  C   UNL     1      -2.919  10.533  15.142  0.00  0.00    +0.000 C 
ATOM     28  C   UNL     1      -3.188   9.832  16.469  0.00  0.00    +0.000 C 
ENDBRANCH   1  28
TORSDOF 5
ENDMDL
MODEL 3
REMARK VINA RESULT:      -7.7      6.620      9.566
REMARK  Name = 
REMARK  8 active torsions:
REMARK  status: ('A' for Active; 'I' for Inactive)
REMARK    1  A    between atoms: C_1  and  C_2
REMARK    2  A    between atoms: C_2  and  N_3
REMARK    3  A    between atoms: C_5  and  C_6
REMARK    4  A    between atoms: N_8  and  N_9
REMARK    5  A    between atoms: C_10  and  C_11
REMARK    6  A    between atoms: C_15  and  O_16
REMARK    7  A    between atoms: O_16  and  C_17
REMARK    8  A    between atoms: C_24  and  C_25
REMARK                            x       y       z     vdW  Elec       q    Type
REMARK                         _______ _______ _______ _____ _____    ______ ____
ROOT
ATOM      1  N   UNL     1       2.132   5.565  20.357  0.00  0.00    +0.000 N 
ATOM      2  C   UNL     1       1.361   6.470  21.069  0.00  0.00    +0.000 A 
ATOM      3  C   UNL     1       1.137   7.752  20.736  0.00  0.00    +0.000 A 
ATOM      4  C   UNL     1       1.792   8.237  19.498  0.00  0.00    +0.000 A 
ATOM      5  O   UNL     1       1.620   9.386  19.093  0.00  0.00    +0.000 OA
ATOM      6  C   UNL     1       2.669   7.306  18.760  0.00  0.00    +0.000 A 
ATOM      7  C   UNL     1       3.371   7.753  17.640  0.00  0.00    +0.000 A 
ATOM      8  C   UNL     1       4.183   6.863  16.954  0.00  0.00    +0.000 A 
ATOM      9  C   UNL     1       4.263   5.552  17.405  0.00  0.00    +0.000 A 
ATOM     10  C   UNL     1       5.080   4.537  16.664  0.00  0.00    +0.000 C 
ATOM     11  N   UNL     1       3.591   5.113  18.501  0.00  0.00    +0.000 NA
ATOM     12  C   UNL     1       2.809   5.983  19.188  0.00  0.00    +0.000 A 
ENDROOT
BRANCH   3  13
ATOM     13  C   UNL     1       0.272   8.596  21.610  0.00  0.00    +0.000 C 
ATOM     14  O   UNL     1      -0.800   8.164  22.032  0.00  0.00    +0.000 OA
ATOM     15  N   UNL     1       0.780   9.855  21.884  0.00  0.00    +0.000 N 
ATOM     16  H   UNL     1       1.681  10.149  21.498  0.00  0.00    +0.000 HD
BRANCH  15  17
ATOM     17  N   UNL     1       0.064  10.696  22.677  0.00  0.00    +0.000 NA
ATOM     18  C   UNL     1      -0.769  11.500  22.099  0.00  0.00    +0.000 C 
BRANCH  18  19
ATOM     19  C   UNL     1      -1.573  12.438  22.916  0.00  0.00    +0.000 A 
ATOM     20  C   UNL     1      -2.883  12.094  23.273  0.00  0.00    +0.000 A 
ATOM     21  C   UNL     1      -3.643  12.961  24.051  0.00  0.00    +0.000 A 
ATOM     22  C   UNL     1      -3.098  14.177  24.459  0.00  0.00    +0.000 A 
ATOM     23  C   UNL     1      -1.796  14.538  24.092  0.00  0.00    +0.000 A 
ATOM     24  C   UNL     1      -1.024  13.657  23.327  0.00  0.00    +0.000 A 
BRANCH  23  25
ATOM     25  O   UNL     1      -1.405  15.768  24.542  0.00  0.00    +0.000 OA
ATOM     26  C   UNL     1      -1.235  15.922  25.945  0.00  0.00    +0.000 C 
ENDBRANCH  23  25
ENDBRANCH  18  19
ENDBRANCH  15  17
ENDBRANCH   3  13
BRANCH   1  28
ATOM     27  C   UNL     1       1.192   3.310  20.716  0.00  0.00    +0.000 C 
ATOM     28  C   UNL     1       2.423   4.204  20.825  0.00  0.00    +0.000 C 
ENDBRANCH   1  28
TORSDOF 5
ENDMDL
MODEL 4
REMARK VINA RESULT:      -7.6      6.629      9.894
REMARK  Name = 
REMARK  8 active torsions:
REMARK  status: ('A' for Active; 'I' for Inactive)
REMARK    1  A    between atoms: C_1  and  C_2
REMARK    2  A    between atoms: C_2  and  N_3
REMARK    3  A    between atoms: C_5  and  C_6
REMARK    4  A    between atoms: N_8  and  N_9
REMARK    5  A    between atoms: C_10  and  C_11
REMARK    6  A    between atoms: C_15  and  O_16
REMARK    7  A    between atoms: O_16  and  C_17
REMARK    8  A    between atoms: C_24  and  C_25
REMARK                            x       y       z     vdW  Elec       q    Type
REMARK                         _______ _______ _______ _____ _____    ______ ____
ROOT
ATOM      1  N   UNL     1       2.148   5.497  20.455  0.00  0.00    +0.000 N 
ATOM      2  C   UNL     1       1.381   6.438  21.122  0.00  0.00    +0.000 A 
ATOM      3  C   UNL     1       1.175   7.709  20.734  0.00  0.00    +0.000 A 
ATOM      4  C   UNL     1       1.847   8.135  19.484  0.00  0.00    +0.000 A 
ATOM      5  O   UNL     1       1.692   9.269  19.030  0.00  0.00    +0.000 OA
ATOM      6  C   UNL     1       2.721   7.165  18.793  0.00  0.00    +0.000 A 
ATOM      7  C   UNL     1       3.438   7.559  17.663  0.00  0.00    +0.000 A 
ATOM      8  C   UNL     1       4.247   6.632  17.021  0.00  0.00    +0.000 A 
ATOM      9  C   UNL     1       4.307   5.340  17.527  0.00  0.00    +0.000 A 
ATOM     10  C   UNL     1       5.119   4.287  16.836  0.00  0.00    +0.000 C 
ATOM     11  N   UNL     1       3.620   4.954  18.633  0.00  0.00    +0.000 NA
ATOM     12  C   UNL     1       2.841   5.859  19.277  0.00  0.00    +0.000 A 
ENDROOT
BRANCH   3  13
ATOM     13  C   UNL     1       0.312   8.597  21.565  0.00  0.00    +0.000 C 
ATOM     14  O   UNL     1      -0.814   8.235  21.903  0.00  0.00    +0.000 OA
ATOM     15  N   UNL     1       0.884   9.813  21.898  0.00  0.00    +0.000 N 
ATOM     16  H   UNL     1       1.829  10.049  21.581  0.00  0.00    +0.000 HD
BRANCH  15  17
ATOM     17  N   UNL     1       0.175  10.689  22.657  0.00  0.00    +0.000 NA
ATOM     18  C   UNL     1      -0.762  11.364  22.075  0.00  0.00    +0.000 C 
BRANCH  18  19
ATOM     19  C   UNL     1      -1.564  12.334  22.856  0.00  0.00    +0.000 A 
ATOM     20  C   UNL     1      -0.982  13.541  23.265  0.00  0.00    +0.000 A 
ATOM     21  C   UNL     1      -1.731  14.465  23.988  0.00  0.00    +0.000 A 
ATOM     22  C   UNL     1      -3.054  14.175  24.314  0.00  0.00    +0.000 A 
ATOM     23  C   UNL     1      -3.639  12.964  23.926  0.00  0.00    +0.000 A 
ATOM     24  C   UNL     1      -2.893  12.043  23.181  0.00  0.00    +0.000 A 
BRANCH  23  25
ATOM     25  O   UNL     1      -4.933  12.807  24.337  0.00  0.00    +0.000 OA
ATOM     26  C   UNL     1      -5.901  13.688  23.784  0.00  0.00    +0.000 C 
ENDBRANCH  23  25
ENDBRANCH  18  19
ENDBRANCH  15  17
ENDBRANCH   3  13
BRANCH   1  28
ATOM     27  C   UNL     1       1.172   3.278  20.923  0.00  0.00    +0.000 C 
ATOM     28  C   UNL     1       2.419   4.153  20.981  0.00  0.00    +0.000 C 
ENDBRANCH   1  28
TORSDOF 5
ENDMDL
MODEL 5
REMARK VINA RESULT:      -7.6      5.370      8.210
REMARK  Name = 
REMARK  8 active torsions:
REMARK  status: ('A' for Active; 'I' for Inactive)
REMARK    1  A    between atoms: C_1  and  C_2
REMARK    2  A    between atoms: C_2  and  N_3
REMARK    3  A    between atoms: C_5  and  C_6
REMARK    4  A    between atoms: N_8  and  N_9
REMARK    5  A    between atoms: C_10  and  C_11
REMARK    6  A    between atoms: C_15  and  O_16
REMARK    7  A    between atoms: O_16  and  C_17
REMARK    8  A    between atoms: C_24  and  C_25
REMARK                            x       y       z     vdW  Elec       q    Type
REMARK                         _______ _______ _______ _____ _____    ______ ____
ROOT
ATOM      1  N   UNL     1      -0.905  11.143  18.964  0.00  0.00    +0.000 N 
ATOM      2  C   UNL     1       0.067  10.356  18.369  0.00  0.00    +0.000 A 
ATOM      3  C   UNL     1       0.905   9.520  19.006  0.00  0.00    +0.000 A 
ATOM      4  C   UNL     1       0.778   9.452  20.480  0.00  0.00    +0.000 A 
ATOM      5  O   UNL     1       1.478   8.691  21.148  0.00  0.00    +0.000 OA
ATOM      6  C   UNL     1      -0.209  10.332  21.139  0.00  0.00    +0.000 A 
ATOM      7  C   UNL     1      -0.296  10.359  22.531  0.00  0.00    +0.000 A 
ATOM      8  C   UNL     1      -1.235  11.184  23.132  0.00  0.00    +0.000 A 
ATOM      9  C   UNL     1      -2.062  11.951  22.321  0.00  0.00    +0.000 A 
ATOM     10  C   UNL     1      -3.132  12.813  22.919  0.00  0.00    +0.000 C 
ATOM     11  N   UNL     1      -1.975  11.937  20.966  0.00  0.00    +0.000 NA
ATOM     12  C   UNL     1      -1.047  11.146  20.371  0.00  0.00    +0.000 A 
ENDROOT
BRANCH   3  13
ATOM     13  C   UNL     1       1.895   8.733  18.215  0.00  0.00    +0.000 C 
ATOM     14  O   UNL     1       2.443   9.228  17.230  0.00  0.00    +0.000 OA
ATOM     15  N   UNL     1       2.122   7.450  18.683  0.00  0.00    +0.000 N 
ATOM     16  H   UNL     1       1.629   7.102  19.511  0.00  0.00    +0.000 HD
BRANCH  15  17
ATOM     17  N   UNL     1       3.012   6.657  18.030  0.00  0.00    +0.000 NA
ATOM     18  C   UNL     1       4.248   6.704  18.410  0.00  0.00    +0.000 C 
BRANCH  18  19
ATOM     19  C   UNL     1       5.258   5.860  17.730  0.00  0.00    +0.000 A 
ATOM     20  C   UNL     1       6.523   5.696  18.310  0.00  0.00    +0.000 A 
ATOM     21  C   UNL     1       7.476   4.895  17.688  0.00  0.00    +0.000 A 
ATOM     22  C   UNL     1       7.169   4.273  16.480  0.00  0.00    +0.000 A 
ATOM     23  C   UNL     1       5.914   4.446  15.883  0.00  0.00    +0.000 A 
ATOM     24  C   UNL     1       4.948   5.234  16.519  0.00  0.00    +0.000 A 
BRANCH  23  25
ATOM     25  O   UNL     1       5.764   3.796  14.689  0.00  0.00    +0.000 OA
ATOM     26  C   UNL     1       6.596   4.213  13.615  0.00  0.00    +0.000 C 
ENDBRANCH  23  25
ENDBRANCH  18  19
ENDBRANCH  15  17
ENDBRANCH   3  13
BRANCH   1  28
ATOM     27  C   UNL     1      -2.607  11.419  17.197  0.00  0.00    +0.000 C 
ATOM     28  C   UNL     1      -1.724  12.114  18.227  0.00  0.00    +0.000 C 
ENDBRANCH   1  28
TORSDOF 5
ENDMDL
MODEL 6
REMARK VINA RESULT:      -7.6      5.604      9.098
REMARK  Name = 
REMARK  8 active torsions:
REMARK  status: ('A' for Active; 'I' for Inactive)
REMARK    1  A    between atoms: C_1  and  C_2
REMARK    2  A    between atoms: C_2  and  N_3
REMARK    3  A    between atoms: C_5  and  C_6
REMARK    4  A    between atoms: N_8  and  N_9
REMARK    5  A    between atoms: C_10  and  C_11
REMARK    6  A    between atoms: C_15  and  O_16
REMARK    7  A    between atoms: O_16  and  C_17
REMARK    8  A    between atoms: C_24  and  C_25
REMARK                            x       y       z     vdW  Elec       q    Type
REMARK                         _______ _______ _______ _____ _____    ______ ____
ROOT
ATOM      1  N   UNL     1      -1.934  11.328  19.083  0.00  0.00    +0.000 N 
ATOM      2  C   UNL     1      -0.839  10.619  18.615  0.00  0.00    +0.000 A 
ATOM      3  C   UNL     1       0.275  10.336  19.311  0.00  0.00    +0.000 A 
ATOM      4  C   UNL     1       0.334  10.845  20.701  0.00  0.00    +0.000 A 
ATOM      5  O   UNL     1       1.298  10.608  21.428  0.00  0.00    +0.000 OA
ATOM      6  C   UNL     1      -0.796  11.658  21.197  0.00  0.00    +0.000 A 
ATOM      7  C   UNL     1      -0.736  12.227  22.470  0.00  0.00    +0.000 A 
ATOM      8  C   UNL     1      -1.809  12.980  22.922  0.00  0.00    +0.000 A 
ATOM      9  C   UNL     1      -2.911  13.133  22.091  0.00  0.00    +0.000 A 
ATOM     10  C   UNL     1      -4.120  13.886  22.556  0.00  0.00    +0.000 C 
ATOM     11  N   UNL     1      -2.971  12.591  20.847  0.00  0.00    +0.000 NA
ATOM     12  C   UNL     1      -1.917  11.868  20.390  0.00  0.00    +0.000 A 
ENDROOT
BRANCH   3  13
ATOM     13  C   UNL     1       1.365   9.552  18.661  0.00  0.00    +0.000 C 
ATOM     14  O   UNL     1       1.864   9.936  17.604  0.00  0.00    +0.000 OA
ATOM     15  N   UNL     1       1.737   8.404  19.340  0.00  0.00    +0.000 N 
ATOM     16  H   UNL     1       1.277   8.145  20.218  0.00  0.00    +0.000 HD
BRANCH  15  17
ATOM     17  N   UNL     1       2.726   7.626  18.827  0.00  0.00    +0.000 NA
ATOM     18  C   UNL     1       2.376   6.557  18.188  0.00  0.00    +0.000 C 
BRANCH  18  19
ATOM     19  C   UNL     1       3.414   5.673  17.609  0.00  0.00    +0.000 A 
ATOM     20  C   UNL     1       3.315   4.286  17.783  0.00  0.00    +0.000 A 
ATOM     21  C   UNL     1       4.277   3.445  17.233  0.00  0.00    +0.000 A 
ATOM     22  C   UNL     1       5.345   3.991  16.523  0.00  0.00    +0.000 A 
ATOM     23  C   UNL     1       5.462   5.376  16.360  0.00  0.00    +0.000 A 
ATOM     24  C   UNL     1       4.484   6.222  16.895  0.00  0.00    +0.000 A 
BRANCH  23  25
ATOM     25  O   UNL     1       6.572   5.769  15.664  0.00  0.00    +0.000 OA
ATOM     26  C   UNL     1       7.074   4.871  14.683  0.00  0.00    +0.000 C 
ENDBRANCH  23  25
ENDBRANCH  18  19
ENDBRANCH  15  17
ENDBRANCH   3  13
BRANCH   1  28
ATOM     27  C   UNL     1      -3.722  10.460  17.619  0.00  0.00    +0.000 C 
ATOM     28  C   UNL     1      -3.081  11.694  18.243  0.00  0.00    +0.000 C 
ENDBRANCH   1  28
TORSDOF 5
ENDMDL
MODEL 7
REMARK VINA RESULT:      -7.6      5.560      9.028
REMARK  Name = 
REMARK  8 active torsions:
REMARK  status: ('A' for Active; 'I' for Inactive)
REMARK    1  A    between atoms: C_1  and  C_2
REMARK    2  A    between atoms: C_2  and  N_3
REMARK    3  A    between atoms: C_5  and  C_6
REMARK    4  A    between atoms: N_8  and  N_9
REMARK    5  A    between atoms: C_10  and  C_11
REMARK    6  A    between atoms: C_15  and  O_16
REMARK    7  A    between atoms: O_16  and  C_17
REMARK    8  A    between atoms: C_24  and  C_25
REMARK                            x       y       z     vdW  Elec       q    Type
REMARK                         _______ _______ _______ _____ _____    ______ ____
ROOT
ATOM      1  N   UNL     1      -1.428  12.243  20.056  0.00  0.00    +0.000 N 
ATOM      2  C   UNL     1      -0.271  11.605  19.636  0.00  0.00    +0.000 A 
ATOM      3  C   UNL     1      -0.171  10.746  18.608  0.00  0.00    +0.000 A 
ATOM      4  C   UNL     1      -1.421  10.449  17.870  0.00  0.00    +0.000 A 
ATOM      5  O   UNL     1      -1.423   9.701  16.893  0.00  0.00    +0.000 OA
ATOM      6  C   UNL     1      -2.675  11.070  18.341  0.00  0.00    +0.000 A 
ATOM      7  C   UNL     1      -3.885  10.745  17.725  0.00  0.00    +0.000 A 
ATOM      8  C   UNL     1      -5.052  11.344  18.175  0.00  0.00    +0.000 A 
ATOM      9  C   UNL     1      -4.972  12.253  19.222  0.00  0.00    +0.000 A 
ATOM     10  C   UNL     1      -6.196  12.971  19.705  0.00  0.00    +0.000 C 
ATOM     11  N   UNL     1      -3.800  12.565  19.833  0.00  0.00    +0.000 NA
ATOM     12  C   UNL     1      -2.656  11.970  19.411  0.00  0.00    +0.000 A 
ENDROOT
BRANCH   3  13
ATOM     13  C   UNL     1       1.156  10.148  18.280  0.00  0.00    +0.000 C 
ATOM     14  O   UNL     1       2.154  10.861  18.180  0.00  0.00    +0.000 OA
ATOM     15  N   UNL     1       1.146   8.774  18.109  0.00  0.00    +0.000 N 
ATOM     16  H   UNL     1       0.276   8.243  18.207  0.00  0.00    +0.000 HD
BRANCH  15  17
ATOM     17  N   UNL     1       2.309   8.138  17.812  0.00  0.00    +0.000 NA
ATOM     18  C   UNL     1       2.628   7.108  18.526  0.00  0.00    +0.000 C 
BRANCH  18  19
ATOM     19  C   UNL     1       3.886   6.378  18.244  0.00  0.00    +0.000 A 
ATOM     20  C   UNL     1       4.412   5.510  19.209  0.00  0.00    +0.000 A 
ATOM     21  C   UNL     1       5.585   4.809  18.950  0.00  0.00    +0.000 A 
ATOM     22  C   UNL     1       6.240   4.989  17.734  0.00  0.00    +0.000 A 
ATOM     23  C   UNL     1       5.733   5.868  16.770  0.00  0.00    +0.000 A 
ATOM     24  C   UNL     1       4.542   6.558  17.022  0.00  0.00    +0.000 A 
BRANCH  23  25
ATOM     25  O   UNL     1       6.494   5.962  15.638  0.00  0.00    +0.000 OA
ATOM     26  C   UNL     1       6.956   4.747  15.064  0.00  0.00    +0.000 C 
ENDBRANCH  23  25
ENDBRANCH  18  19
ENDBRANCH  15  17
ENDBRANCH   3  13
BRANCH   1  28
ATOM     27  C   UNL     1      -1.023  12.341  22.489  0.00  0.00    +0.000 C 
ATOM     28  C   UNL     1      -1.496  13.094  21.250  0.00  0.00    +0.000 C 
ENDBRANCH   1  28
TORSDOF 5
ENDMDL
MODEL 8
REMARK VINA RESULT:      -7.4      5.284      8.717
REMARK  Name = 
REMARK  8 active torsions:
REMARK  status: ('A' for Active; 'I' for Inactive)
REMARK    1  A    between atoms: C_1  and  C_2
REMARK    2  A    between atoms: C_2  and  N_3
REMARK    3  A    between atoms: C_5  and  C_6
REMARK    4  A    between atoms: N_8  and  N_9
REMARK    5  A    between atoms: C_10  and  C_11
REMARK    6  A    between atoms: C_15  and  O_16
REMARK    7  A    between atoms: O_16  and  C_17
REMARK    8  A    between atoms: C_24  and  C_25
REMARK                            x       y       z     vdW  Elec       q    Type
REMARK                         _______ _______ _______ _____ _____    ______ ____
ROOT
ATOM      1  N   UNL     1      -2.320  10.522  17.761  0.00  0.00    +0.000 N 
ATOM      2  C   UNL     1      -0.993  10.145  17.626  0.00  0.00    +0.000 A 
ATOM      3  C   UNL     1       0.020  10.519  18.426  0.00  0.00    +0.000 A 
ATOM      4  C   UNL     1      -0.322  11.431  19.543  0.00  0.00    +0.000 A 
ATOM      5  O   UNL     1       0.531  11.802  20.349  0.00  0.00    +0.000 OA
ATOM      6  C   UNL     1      -1.719  11.894  19.665  0.00  0.00    +0.000 A 
ATOM      7  C   UNL     1      -2.060  12.821  20.652  0.00  0.00    +0.000 A 
ATOM      8  C   UNL     1      -3.378  13.238  20.758  0.00  0.00    +0.000 A 
ATOM      9  C   UNL     1      -4.315  12.711  19.878  0.00  0.00    +0.000 A 
ATOM     10  C   UNL     1      -5.762  13.085  19.990  0.00  0.00    +0.000 C 
ATOM     11  N   UNL     1      -3.988  11.817  18.909  0.00  0.00    +0.000 NA
ATOM     12  C   UNL     1      -2.697  11.418  18.788  0.00  0.00    +0.000 A 
ENDROOT
BRANCH   3  13
ATOM     13  C   UNL     1       1.397  10.017  18.147  0.00  0.00    +0.000 C 
ATOM     14  O   UNL     1       2.325  10.806  17.974  0.00  0.00    +0.000 OA
ATOM     15  N   UNL     1       1.512   8.638  18.107  0.00  0.00    +0.000 N 
ATOM     16  H   UNL     1       0.695   8.041  18.260  0.00  0.00    +0.000 HD
BRANCH  15  17
ATOM     17  N   UNL     1       2.730   8.086  17.863  0.00  0.00    +0.000 NA
ATOM     18  C   UNL     1       2.794   6.797  17.766  0.00  0.00    +0.000 C 
BRANCH  18  19
ATOM     19  C   UNL     1       4.097   6.144  17.502  0.00  0.00    +0.000 A 
ATOM     20  C   UNL     1       4.178   4.745  17.485  0.00  0.00    +0.000 A 
ATOM     21  C   UNL     1       5.393   4.121  17.225  0.00  0.00    +0.000 A 
ATOM     22  C   UNL     1       6.530   4.894  16.998  0.00  0.00    +0.000 A 
ATOM     23  C   UNL     1       6.464   6.292  17.031  0.00  0.00    +0.000 A 
ATOM     24  C   UNL     1       5.237   6.921  17.272  0.00  0.00    +0.000 A 
BRANCH  23  25
ATOM     25  O   UNL     1       7.661   6.917  16.815  0.00  0.00    +0.000 OA
ATOM     26  C   UNL     1       7.958   8.046  17.626  0.00  0.00    +0.000 C 
ENDBRANCH  23  25
ENDBRANCH  18  19
ENDBRANCH  15  17
ENDBRANCH   3  13
BRANCH   1  28
ATOM     27  C   UNL     1      -3.058  10.728  15.414  0.00  0.00    +0.000 C 
ATOM     28  C   UNL     1      -3.366  10.162  16.795  0.00  0.00    +0.000 C 
ENDBRANCH   1  28
TORSDOF 5
ENDMDL
MODEL 9
REMARK VINA RESULT:      -7.4      5.387      9.231
REMARK  Name = 
REMARK  8 active torsions:
REMARK  status: ('A' for Active; 'I' for Inactive)
REMARK    1  A    between atoms: C_1  and  C_2
REMARK    2  A    between atoms: C_2  and  N_3
REMARK    3  A    between atoms: C_5  and  C_6
REMARK    4  A    between atoms: N_8  and  N_9
REMARK    5  A    between atoms: C_10  and  C_11
REMARK    6  A    between atoms: C_15  and  O_16
REMARK    7  A    between atoms: O_16  and  C_17
REMARK    8  A    between atoms: C_24  and  C_25
REMARK                            x       y       z     vdW  Elec       q    Type
REMARK                         _______ _______ _______ _____ _____    ______ ____
ROOT
ATOM      1  N   UNL     1      -0.986  11.845  20.499  0.00  0.00    +0.000 N 
ATOM      2  C   UNL     1       0.037  11.051  20.004  0.00  0.00    +0.000 A 
ATOM      3  C   UNL     1      -0.002  10.327  18.873  0.00  0.00    +0.000 A 
ATOM      4  C   UNL     1      -1.264  10.379  18.098  0.00  0.00    +0.000 A 
ATOM      5  O   UNL     1      -1.384   9.776  17.031  0.00  0.00    +0.000 OA
ATOM      6  C   UNL     1      -2.388  11.168  18.642  0.00  0.00    +0.000 A 
ATOM      7  C   UNL     1      -3.619  11.169  17.985  0.00  0.00    +0.000 A 
ATOM      8  C   UNL     1      -4.660  11.923  18.505  0.00  0.00    +0.000 A 
ATOM      9  C   UNL     1      -4.435  12.658  19.662  0.00  0.00    +0.000 A 
ATOM     10  C   UNL     1      -5.509  13.536  20.230  0.00  0.00    +0.000 C 
ATOM     11  N   UNL     1      -3.242  12.653  20.312  0.00  0.00    +0.000 NA
ATOM     12  C   UNL     1      -2.224  11.904  19.820  0.00  0.00    +0.000 A 
ENDROOT
BRANCH   3  13
ATOM     13  C   UNL     1       1.192   9.527  18.474  0.00  0.00    +0.000 C 
ATOM     14  O   UNL     1       1.836   9.825  17.469  0.00  0.00    +0.000 OA
ATOM     15  N   UNL     1       1.484   8.467  19.315  0.00  0.00    +0.000 N 
ATOM     16  H   UNL     1       0.904   8.276  20.137  0.00  0.00    +0.000 HD
BRANCH  15  17
ATOM     17  N   UNL     1       2.558   7.681  19.036  0.00  0.00    +0.000 NA
ATOM     18  C   UNL     1       2.329   6.461  18.673  0.00  0.00    +0.000 C 
BRANCH  18  19
ATOM     19  C   UNL     1       3.463   5.561  18.358  0.00  0.00    +0.000 A 
ATOM     20  C   UNL     1       3.322   4.600  17.349  0.00  0.00    +0.000 A 
ATOM     21  C   UNL     1       4.386   3.759  17.036  0.00  0.00    +0.000 A 
ATOM     22  C   UNL     1       5.582   3.870  17.741  0.00  0.00    +0.000 A 
ATOM     23  C   UNL     1       5.726   4.815  18.763  0.00  0.00    +0.000 A 
ATOM     24  C   UNL     1       4.664   5.675  19.066  0.00  0.00    +0.000 A 
BRANCH  23  25
ATOM     25  O   UNL     1       6.944   4.792  19.384  0.00  0.00    +0.000 OA
ATOM     26  C   UNL     1       7.811   5.894  19.154  0.00  0.00    +0.000 C 
ENDBRANCH  23  25
ENDBRANCH  18  19
ENDBRANCH  15  17
ENDBRANCH   3  13
BRANCH   1  28
ATOM     27  C   UNL     1      -1.091  11.552  22.948  0.00  0.00    +0.000 C 
ATOM     28  C   UNL     1      -0.922  12.534  21.794  0.00  0.00    +0.000 C 
ENDBRANCH   1  28
TORSDOF 5
ENDMDL
