MODEL 1
REMARK VINA RESULT:      -7.4      0.000      0.000
REMARK  Name = 
REMARK  13 active torsions:
REMARK  status: ('A' for Active; 'I' for Inactive)
REMARK    1  A    between atoms: C_1  and  C_2
REMARK    2  A    between atoms: C_2  and  C_3
REMARK    3  A    between atoms: C_2  and  C_4
REMARK    4  A    between atoms: C_4  and  C_6
REMARK    5  A    between atoms: C_7  and  O_8
REMARK    6  A    between atoms: C_10  and  O_11
REMARK    7  A    between atoms: C_13  and  O_14
REMARK    8  A    between atoms: O_14  and  C_15
REMARK    9  A    between atoms: C_17  and  C_18
REMARK   10  A    between atoms: C_18  and  O_19
REMARK   11  A    between atoms: C_20  and  O_21
REMARK   12  A    between atoms: C_22  and  O_23
REMARK   13  A    between atoms: C_24  and  O_25
REMARK                            x       y       z     vdW  Elec       q    Type
REMARK                         _______ _______ _______ _____ _____    ______ ____
ROOT
ATOM      1  O   UNL     1       5.166   3.657  17.460  0.00  0.00    +0.000 OA
ENDROOT
BRANCH   1   7
ATOM      2  C   UNL     1       6.568   5.516  16.954  0.00  0.00    +0.000 A 
ATOM      3  C   UNL     1       7.472   6.502  17.405  0.00  0.00    +0.000 A 
ATOM      4  C   UNL     1       7.979   6.492  18.704  0.00  0.00    +0.000 A 
ATOM      5  C   UNL     1       7.540   5.520  19.583  0.00  0.00    +0.000 A 
ATOM      6  C   UNL     1       6.610   4.566  19.185  0.00  0.00    +0.000 A 
ATOM      7  C   UNL     1       6.127   4.542  17.867  0.00  0.00    +0.000 A 
BRANCH   2   8
ATOM      8  C   UNL     1       6.129   5.578  15.521  0.00  0.00    +0.000 C 
ATOM      9  O   UNL     1       5.365   6.499  15.216  0.00  0.00    +0.000 OA
BRANCH   8  11
ATOM     10  C   UNL     1       5.489   3.968  13.688  0.00  0.00    +0.000 C 
ATOM     11  C   UNL     1       6.652   4.589  14.467  0.00  0.00    +0.000 C 
ATOM     12  C   UNL     1       7.612   5.262  13.486  0.00  0.00    +0.000 C 
ENDBRANCH   8  11
ENDBRANCH   2   8
BRANCH   3  13
ATOM     13  O   UNL     1       7.901   7.544  16.621  0.00  0.00    +0.000 OA
ATOM     14  H   UNL     1       8.069   8.310  17.216  0.00  0.00    +0.000 HD
ENDBRANCH   3  13
BRANCH   5  15
ATOM     15  O   UNL     1       7.975   5.471  20.875  0.00  0.00    +0.000 OA
ATOM     16  H   UNL     1       7.226   5.234  21.447  0.00  0.00    +0.000 HD
ENDBRANCH   5  15
ENDBRANCH   1   7
BRANCH   1  17
ATOM     17  C   UNL     1       3.814   3.890  17.886  0.00  0.00    +0.000 C 
ATOM     18  O   UNL     1       3.691   5.200  18.446  0.00  0.00    +0.000 OA
ATOM     19  C   UNL     1       2.372   5.502  18.903  0.00  0.00    +0.000 C 
ATOM     20  C   UNL     1       1.977   4.539  20.035  0.00  0.00    +0.000 C 
ATOM     21  C   UNL     1       2.079   3.092  19.533  0.00  0.00    +0.000 C 
ATOM     22  C   UNL     1       3.470   2.813  18.941  0.00  0.00    +0.000 C 
BRANCH  20  23
ATOM     23  O   UNL     1       0.660   4.839  20.513  0.00  0.00    +0.000 OA
ATOM     24  H   UNL     1       0.712   5.613  21.105  0.00  0.00    +0.000 HD
ENDBRANCH  20  23
BRANCH  21  25
ATOM     25  O   UNL     1       1.767   2.175  20.585  0.00  0.00    +0.000 OA
ATOM     26  H   UNL     1       2.464   1.495  20.623  0.00  0.00    +0.000 HD
ENDBRANCH  21  25
BRANCH  22  27
ATOM     27  O   UNL     1       3.518   1.494  18.374  0.00  0.00    +0.000 OA
ATOM     28  H   UNL     1       2.678   1.038  18.550  0.00  0.00    +0.000 HD
ENDBRANCH  22  27
BRANCH  19  29
ATOM     29  C   UNL     1       2.331   6.966  19.369  0.00  0.00    +0.000 C 
BRANCH  29  30
ATOM     30  O   UNL     1       2.237   7.077  20.784  0.00  0.00    +0.000 OA
ATOM     31  H   UNL     1       2.990   7.634  21.083  0.00  0.00    +0.000 HD
ENDBRANCH  29  30
ENDBRANCH  19  29
ENDBRANCH   1  17
TORSDOF 11
ENDMDL
MODEL 2
REMARK VINA RESULT:      -7.2      2.883      5.976
REMARK  Name = 
REMARK  13 active torsions:
REMARK  status: ('A' for Active; 'I' for Inactive)
REMARK    1  A    between atoms: C_1  and  C_2
REMARK    2  A    between atoms: C_2  and  C_3
REMARK    3  A    between atoms: C_2  and  C_4
REMARK    4  A    between atoms: C_4  and  C_6
REMARK    5  A    between atoms: C_7  and  O_8
REMARK    6  A    between atoms: C_10  and  O_11
REMARK    7  A    between atoms: C_13  and  O_14
REMARK    8  A    between atoms: O_14  and  C_15
REMARK    9  A    between atoms: C_17  and  C_18
REMARK   10  A    between atoms: C_18  and  O_19
REMARK   11  A    between atoms: C_20  and  O_21
REMARK   12  A    between atoms: C_22  and  O_23
REMARK   13  A    between atoms: C_24  and  O_25
REMARK                            x       y       z     vdW  Elec       q    Type
REMARK                         _______ _______ _______ _____ _____    ______ ____
ROOT
ATOM      1  O   UNL     1       1.901   7.323  18.148  0.00  0.00    +0.000 OA
ENDROOT
BRANCH   1   7
ATOM      2  C   UNL     1       3.026   5.227  18.018  0.00  0.00    +0.000 A 
ATOM      3  C   UNL     1       4.191   4.502  17.683  0.00  0.00    +0.000 A 
ATOM      4  C   UNL     1       5.379   5.145  17.336  0.00  0.00    +0.000 A 
ATOM      5  C   UNL     1       5.394   6.526  17.268  0.00  0.00    +0.000 A 
ATOM      6  C   UNL     1       4.250   7.266  17.541  0.00  0.00    +0.000 A 
ATOM      7  C   UNL     1       3.061   6.630  17.933  0.00  0.00    +0.000 A 
BRANCH   2   8
ATOM      8  C   UNL     1       1.817   4.444  18.438  0.00  0.00    +0.000 C 
ATOM      9  O   UNL     1       1.231   3.816  17.552  0.00  0.00    +0.000 OA
BRANCH   8  11
ATOM     10  C   UNL     1       0.973   2.939  20.277  0.00  0.00    +0.000 C 
ATOM     11  C   UNL     1       1.366   4.372  19.905  0.00  0.00    +0.000 C 
ATOM     12  C   UNL     1       2.458   4.856  20.858  0.00  0.00    +0.000 C 
ENDBRANCH   8  11
ENDBRANCH   2   8
BRANCH   3  13
ATOM     13  O   UNL     1       4.241   3.131  17.652  0.00  0.00    +0.000 OA
ATOM     14  H   UNL     1       5.119   2.860  18.005  0.00  0.00    +0.000 HD
ENDBRANCH   3  13
BRANCH   5  15
ATOM     15  O   UNL     1       6.516   7.214  16.908  0.00  0.00    +0.000 OA
ATOM     16  H   UNL     1       7.239   6.579  16.772  0.00  0.00    +0.000 HD
ENDBRANCH   5  15
ENDBRANCH   1   7
BRANCH   1  17
ATOM     17  C   UNL     1       1.947   8.453  19.034  0.00  0.00    +0.000 C 
ATOM     18  O   UNL     1       1.187   8.186  20.215  0.00  0.00    +0.000 OA
ATOM     19  C   UNL     1       1.179   9.273  21.143  0.00  0.00    +0.000 C 
ATOM     20  C   UNL     1       0.515  10.503  20.503  0.00  0.00    +0.000 C 
ATOM     21  C   UNL     1       1.261  10.872  19.214  0.00  0.00    +0.000 C 
ATOM     22  C   UNL     1       1.361   9.663  18.270  0.00  0.00    +0.000 C 
BRANCH  20  23
ATOM     23  O   UNL     1       0.486  11.597  21.427  0.00  0.00    +0.000 OA
ATOM     24  H   UNL     1       1.260  12.167  21.260  0.00  0.00    +0.000 HD
ENDBRANCH  20  23
BRANCH  21  25
ATOM     25  O   UNL     1       0.629  11.983  18.571  0.00  0.00    +0.000 OA
ATOM     26  H   UNL     1      -0.314  11.991  18.818  0.00  0.00    +0.000 HD
ENDBRANCH  21  25
BRANCH  22  27
ATOM     27  O   UNL     1       2.156   9.989  17.119  0.00  0.00    +0.000 OA
ATOM     28  H   UNL     1       1.953   9.366  16.401  0.00  0.00    +0.000 HD
ENDBRANCH  22  27
BRANCH  19  29
ATOM     29  C   UNL     1       0.439   8.832  22.416  0.00  0.00    +0.000 C 
BRANCH  29  30
ATOM     30  O   UNL     1       0.687   9.705  23.511  0.00  0.00    +0.000 OA
ATOM     31  H   UNL     1       1.615   9.554  23.799  0.00  0.00    +0.000 HD
ENDBRANCH  29  30
ENDBRANCH  19  29
ENDBRANCH   1  17
TORSDOF 11
ENDMDL
MODEL 3
REMARK VINA RESULT:      -7.2      2.838      5.817
REMARK  Name = 
REMARK  13 active torsions:
REMARK  status: ('A' for Active; 'I' for Inactive)
REMARK    1  A    between atoms: C_1  and  C_2
REMARK    2  A    between atoms: C_2  and  C_3
REMARK    3  A    between atoms: C_2  and  C_4
REMARK    4  A    between atoms: C_4  and  C_6
REMARK    5  A    between atoms: C_7  and  O_8
REMARK    6  A    between atoms: C_10  and  O_11
REMARK    7  A    between atoms: C_13  and  O_14
REMARK    8  A    between atoms: O_14  and  C_15
REMARK    9  A    between atoms: C_17  and  C_18
REMARK   10  A    between atoms: C_18  and  O_19
REMARK   11  A    between atoms: C_20  and  O_21
REMARK   12  A    between atoms: C_22  and  O_23
REMARK   13  A    between atoms: C_24  and  O_25
REMARK                            x       y       z     vdW  Elec       q    Type
REMARK                         _______ _______ _______ _____ _____    ______ ____
ROOT
ATOM      1  O   UNL     1       2.173   7.115  18.400  0.00  0.00    +0.000 OA
ENDROOT
BRANCH   1   7
ATOM      2  C   UNL     1       3.665   5.332  18.923  0.00  0.00    +0.000 A 
ATOM      3  C   UNL     1       4.915   4.708  18.721  0.00  0.00    +0.000 A 
ATOM      4  C   UNL     1       5.924   5.314  17.973  0.00  0.00    +0.000 A 
ATOM      5  C   UNL     1       5.668   6.532  17.372  0.00  0.00    +0.000 A 
ATOM      6  C   UNL     1       4.430   7.148  17.509  0.00  0.00    +0.000 A 
ATOM      7  C   UNL     1       3.422   6.568  18.295  0.00  0.00    +0.000 A 
BRANCH   2   8
ATOM      8  C   UNL     1       2.668   4.628  19.795  0.00  0.00    +0.000 C 
ATOM      9  O   UNL     1       2.866   4.677  21.012  0.00  0.00    +0.000 OA
BRANCH   8  11
ATOM     10  C   UNL     1       1.794   3.126  17.967  0.00  0.00    +0.000 C 
ATOM     11  C   UNL     1       1.425   3.937  19.213  0.00  0.00    +0.000 C 
ATOM     12  C   UNL     1       0.760   3.014  20.234  0.00  0.00    +0.000 C 
ENDBRANCH   8  11
ENDBRANCH   2   8
BRANCH   3  13
ATOM     13  O   UNL     1       5.225   3.466  19.219  0.00  0.00    +0.000 OA
ATOM     14  H   UNL     1       6.186   3.321  19.068  0.00  0.00    +0.000 HD
ENDBRANCH   3  13
BRANCH   5  15
ATOM     15  O   UNL     1       6.602   7.164  16.605  0.00  0.00    +0.000 OA
ATOM     16  H   UNL     1       7.454   7.144  17.073  0.00  0.00    +0.000 HD
ENDBRANCH   5  15
ENDBRANCH   1   7
BRANCH   1  17
ATOM     17  C   UNL     1       2.030   8.322  19.166  0.00  0.00    +0.000 C 
ATOM     18  O   UNL     1       1.255   8.073  20.341  0.00  0.00    +0.000 OA
ATOM     19  C   UNL     1       1.061   9.234  21.150  0.00  0.00    +0.000 C 
ATOM     20  C   UNL     1       0.276  10.297  20.364  0.00  0.00    +0.000 C 
ATOM     21  C   UNL     1       1.030  10.635  19.070  0.00  0.00    +0.000 C 
ATOM     22  C   UNL     1       1.331   9.363  18.260  0.00  0.00    +0.000 C 
BRANCH  20  23
ATOM     23  O   UNL     1       0.062  11.463  21.169  0.00  0.00    +0.000 OA
ATOM     24  H   UNL     1      -0.895  11.552  21.340  0.00  0.00    +0.000 HD
ENDBRANCH  20  23
BRANCH  21  25
ATOM     25  O   UNL     1       0.292  11.583  18.295  0.00  0.00    +0.000 OA
ATOM     26  H   UNL     1      -0.582  11.205  18.088  0.00  0.00    +0.000 HD
ENDBRANCH  21  25
BRANCH  22  27
ATOM     27  O   UNL     1       2.132   9.678  17.111  0.00  0.00    +0.000 OA
ATOM     28  H   UNL     1       1.554   9.968  16.386  0.00  0.00    +0.000 HD
ENDBRANCH  22  27
BRANCH  19  29
ATOM     29  C   UNL     1       0.323   8.826  22.435  0.00  0.00    +0.000 C 
BRANCH  29  30
ATOM     30  O   UNL     1       0.558   9.736  23.502  0.00  0.00    +0.000 OA
ATOM     31  H   UNL     1      -0.100   9.536  24.205  0.00  0.00    +0.000 HD
ENDBRANCH  29  30
ENDBRANCH  19  29
ENDBRANCH   1  17
TORSDOF 11
ENDMDL
MODEL 4
REMARK VINA RESULT:      -7.0      2.052      6.536
REMARK  Name = 
REMARK  13 active torsions:
REMARK  status: ('A' for Active; 'I' for Inactive)
REMARK    1  A    between atoms: C_1  and  C_2
REMARK    2  A    between atoms: C_2  and  C_3
REMARK    3  A    between atoms: C_2  and  C_4
REMARK    4  A    between atoms: C_4  and  C_6
REMARK    5  A    between atoms: C_7  and  O_8
REMARK    6  A    between atoms: C_10  and  O_11
REMARK    7  A    between atoms: C_13  and  O_14
REMARK    8  A    between atoms: O_14  and  C_15
REMARK    9  A    between atoms: C_17  and  C_18
REMARK   10  A    between atoms: C_18  and  O_19
REMARK   11  A    between atoms: C_20  and  O_21
REMARK   12  A    between atoms: C_22  and  O_23
REMARK   13  A    between atoms: C_24  and  O_25
REMARK                            x       y       z     vdW  Elec       q    Type
REMARK                         _______ _______ _______ _____ _____    ______ ____
ROOT
ATOM      1  O   UNL     1       3.366   5.152  17.601  0.00  0.00    +0.000 OA
ENDROOT
BRANCH   1   7
ATOM      2  C   UNL     1       2.350   6.119  19.527  0.00  0.00    +0.000 A 
ATOM      3  C   UNL     1       1.837   7.265  20.172  0.00  0.00    +0.000 A 
ATOM      4  C   UNL     1       1.674   8.475  19.497  0.00  0.00    +0.000 A 
ATOM      5  C   UNL     1       2.079   8.561  18.178  0.00  0.00    +0.000 A 
ATOM      6  C   UNL     1       2.637   7.465  17.530  0.00  0.00    +0.000 A 
ATOM      7  C   UNL     1       2.765   6.232  18.187  0.00  0.00    +0.000 A 
BRANCH   2   8
ATOM      8  C   UNL     1       2.428   4.849  20.322  0.00  0.00    +0.000 C 
ATOM      9  O   UNL     1       3.521   4.579  20.827  0.00  0.00    +0.000 OA
BRANCH   8  11
ATOM     10  C   UNL     1       0.798   3.242  19.261  0.00  0.00    +0.000 C 
ATOM     11  C   UNL     1       1.196   3.960  20.554  0.00  0.00    +0.000 C 
ATOM     12  C   UNL     1       1.445   2.922  21.648  0.00  0.00    +0.000 C 
ENDBRANCH   8  11
ENDBRANCH   2   8
BRANCH   3  13
ATOM     13  O   UNL     1       1.482   7.286  21.498  0.00  0.00    +0.000 OA
ATOM     14  H   UNL     1       0.567   7.647  21.552  0.00  0.00    +0.000 HD
ENDBRANCH   3  13
BRANCH   5  15
ATOM     15  O   UNL     1       1.973   9.722  17.470  0.00  0.00    +0.000 OA
ATOM     16  H   UNL     1       1.069   9.791  17.119  0.00  0.00    +0.000 HD
ENDBRANCH   5  15
ENDBRANCH   1   7
BRANCH   1  17
ATOM     17  C   UNL     1       4.594   5.371  16.888  0.00  0.00    +0.000 C 
ATOM     18  O   UNL     1       4.529   4.767  15.594  0.00  0.00    +0.000 OA
ATOM     19  C   UNL     1       5.723   4.935  14.828  0.00  0.00    +0.000 C 
ATOM     20  C   UNL     1       6.902   4.249  15.537  0.00  0.00    +0.000 C 
ATOM     21  C   UNL     1       7.056   4.830  16.950  0.00  0.00    +0.000 C 
ATOM     22  C   UNL     1       5.732   4.743  17.727  0.00  0.00    +0.000 C 
BRANCH  20  23
ATOM     23  O   UNL     1       8.105   4.398  14.773  0.00  0.00    +0.000 OA
ATOM     24  H   UNL     1       8.283   5.350  14.653  0.00  0.00    +0.000 HD
ENDBRANCH  20  23
BRANCH  21  25
ATOM     25  O   UNL     1       8.114   4.169  17.649  0.00  0.00    +0.000 OA
ATOM     26  H   UNL     1       8.381   4.721  18.406  0.00  0.00    +0.000 HD
ENDBRANCH  21  25
BRANCH  22  27
ATOM     27  O   UNL     1       5.857   5.389  19.003  0.00  0.00    +0.000 OA
ATOM     28  H   UNL     1       5.083   5.174  19.550  0.00  0.00    +0.000 HD
ENDBRANCH  22  27
BRANCH  19  29
ATOM     29  C   UNL     1       5.497   4.355  13.423  0.00  0.00    +0.000 C 
BRANCH  29  30
ATOM     30  O   UNL     1       6.240   3.162  13.208  0.00  0.00    +0.000 OA
ATOM     31  H   UNL     1       6.401   3.090  12.241  0.00  0.00    +0.000 HD
ENDBRANCH  29  30
ENDBRANCH  19  29
ENDBRANCH   1  17
TORSDOF 11
ENDMDL
MODEL 5
REMARK VINA RESULT:      -7.0      1.344      1.598
REMARK  Name = 
REMARK  13 active torsions:
REMARK  status: ('A' for Active; 'I' for Inactive)
REMARK    1  A    between atoms: C_1  and  C_2
REMARK    2  A    between atoms: C_2  and  C_3
REMARK    3  A    between atoms: C_2  and  C_4
REMARK    4  A    between atoms: C_4  and  C_6
REMARK    5  A    between atoms: C_7  and  O_8
REMARK    6  A    between atoms: C_10  and  O_11
REMARK    7  A    between atoms: C_13  and  O_14
REMARK    8  A    between atoms: O_14  and  C_15
REMARK    9  A    between atoms: C_17  and  C_18
REMARK   10  A    between atoms: C_18  and  O_19
REMARK   11  A    between atoms: C_20  and  O_21
REMARK   12  A    between atoms: C_22  and  O_23
REMARK   13  A    between atoms: C_24  and  O_25
REMARK                            x       y       z     vdW  Elec       q    Type
REMARK                         _______ _______ _______ _____ _____    ______ ____
ROOT
ATOM      1  O   UNL     1       5.031   3.701  17.612  0.00  0.00    +0.000 OA
ENDROOT
BRANCH   1   7
ATOM      2  C   UNL     1       6.472   5.502  17.017  0.00  0.00    +0.000 A 
ATOM      3  C   UNL     1       7.420   6.470  17.415  0.00  0.00    +0.000 A 
ATOM      4  C   UNL     1       7.967   6.475  18.698  0.00  0.00    +0.000 A 
ATOM      5  C   UNL     1       7.526   5.539  19.615  0.00  0.00    +0.000 A 
ATOM      6  C   UNL     1       6.555   4.606  19.269  0.00  0.00    +0.000 A 
ATOM      7  C   UNL     1       6.030   4.564  17.968  0.00  0.00    +0.000 A 
BRANCH   2   8
ATOM      8  C   UNL     1       5.990   5.543  15.597  0.00  0.00    +0.000 C 
ATOM      9  O   UNL     1       5.238   6.474  15.296  0.00  0.00    +0.000 OA
BRANCH   8  11
ATOM     10  C   UNL     1       5.272   4.011  13.727  0.00  0.00    +0.000 C 
ATOM     11  C   UNL     1       6.459   4.520  14.551  0.00  0.00    +0.000 C 
ATOM     12  C   UNL     1       7.506   5.113  13.608  0.00  0.00    +0.000 C 
ENDBRANCH   8  11
ENDBRANCH   2   8
BRANCH   3  13
ATOM     13  O   UNL     1       7.856   7.479  16.593  0.00  0.00    +0.000 OA
ATOM     14  H   UNL     1       8.828   7.373  16.487  0.00  0.00    +0.000 HD
ENDBRANCH   3  13
BRANCH   5  15
ATOM     15  O   UNL     1       8.000   5.507  20.893  0.00  0.00    +0.000 OA
ATOM     16  H   UNL     1       8.812   6.040  20.936  0.00  0.00    +0.000 HD
ENDBRANCH   5  15
ENDBRANCH   1   7
BRANCH   1  17
ATOM     17  C   UNL     1       3.721   3.929  18.156  0.00  0.00    +0.000 C 
ATOM     18  O   UNL     1       3.773   3.935  19.585  0.00  0.00    +0.000 OA
ATOM     19  C   UNL     1       2.502   4.147  20.200  0.00  0.00    +0.000 C 
ATOM     20  C   UNL     1       1.545   3.000  19.835  0.00  0.00    +0.000 C 
ATOM     21  C   UNL     1       1.421   2.906  18.307  0.00  0.00    +0.000 C 
ATOM     22  C   UNL     1       2.806   2.789  17.649  0.00  0.00    +0.000 C 
BRANCH  20  23
ATOM     23  O   UNL     1       0.269   3.191  20.456  0.00  0.00    +0.000 OA
ATOM     24  H   UNL     1       0.362   3.861  21.160  0.00  0.00    +0.000 HD
ENDBRANCH  20  23
BRANCH  21  25
ATOM     25  O   UNL     1       0.577   1.810  17.941  0.00  0.00    +0.000 OA
ATOM     26  H   UNL     1       1.110   0.994  17.934  0.00  0.00    +0.000 HD
ENDBRANCH  21  25
BRANCH  22  27
ATOM     27  O   UNL     1       2.684   2.815  16.219  0.00  0.00    +0.000 OA
ATOM     28  H   UNL     1       2.122   2.076  15.930  0.00  0.00    +0.000 HD
ENDBRANCH  22  27
BRANCH  19  29
ATOM     29  C   UNL     1       2.697   4.253  21.720  0.00  0.00    +0.000 C 
BRANCH  29  30
ATOM     30  O   UNL     1       2.344   3.051  22.394  0.00  0.00    +0.000 OA
ATOM     31  H   UNL     1       3.020   2.900  23.091  0.00  0.00    +0.000 HD
ENDBRANCH  29  30
ENDBRANCH  19  29
ENDBRANCH   1  17
TORSDOF 11
ENDMDL
MODEL 6
REMARK VINA RESULT:      -6.7      1.473      3.574
REMARK  Name = 
REMARK  13 active torsions:
REMARK  status: ('A' for Active; 'I' for Inactive)
REMARK    1  A    between atoms: C_1  and  C_2
REMARK    2  A    between atoms: C_2  and  C_3
REMARK    3  A    between atoms: C_2  and  C_4
REMARK    4  A    between atoms: C_4  and  C_6
REMARK    5  A    between atoms: C_7  and  O_8
REMARK    6  A    between atoms: C_10  and  O_11
REMARK    7  A    between atoms: C_13  and  O_14
REMARK    8  A    between atoms: O_14  and  C_15
REMARK    9  A    between atoms: C_17  and  C_18
REMARK   10  A    between atoms: C_18  and  O_19
REMARK   11  A    between atoms: C_20  and  O_21
REMARK   12  A    between atoms: C_22  and  O_23
REMARK   13  A    between atoms: C_24  and  O_25
REMARK                            x       y       z     vdW  Elec       q    Type
REMARK                         _______ _______ _______ _____ _____    ______ ____
ROOT
ATOM      1  O   UNL     1       5.187   3.305  16.927  0.00  0.00    +0.000 OA
ENDROOT
BRANCH   1   7
ATOM      2  C   UNL     1       6.708   4.586  15.613  0.00  0.00    +0.000 A 
ATOM      3  C   UNL     1       7.168   4.971  14.335  0.00  0.00    +0.000 A 
ATOM      4  C   UNL     1       6.484   4.617  13.172  0.00  0.00    +0.000 A 
ATOM      5  C   UNL     1       5.357   3.823  13.277  0.00  0.00    +0.000 A 
ATOM      6  C   UNL     1       4.909   3.383  14.517  0.00  0.00    +0.000 A 
ATOM      7  C   UNL     1       5.564   3.770  15.696  0.00  0.00    +0.000 A 
BRANCH   2   8
ATOM      8  C   UNL     1       7.479   5.069  16.805  0.00  0.00    +0.000 C 
ATOM      9  O   UNL     1       8.197   4.240  17.372  0.00  0.00    +0.000 OA
BRANCH   8  11
ATOM     10  C   UNL     1       6.008   7.088  17.154  0.00  0.00    +0.000 C 
ATOM     11  C   UNL     1       7.433   6.535  17.262  0.00  0.00    +0.000 C 
ATOM     12  C   UNL     1       7.927   6.697  18.699  0.00  0.00    +0.000 C 
ENDBRANCH   8  11
ENDBRANCH   2   8
BRANCH   3  13
ATOM     13  O   UNL     1       8.318   5.695  14.136  0.00  0.00    +0.000 OA
ATOM     14  H   UNL     1       8.671   5.936  15.023  0.00  0.00    +0.000 HD
ENDBRANCH   3  13
BRANCH   5  15
ATOM     15  O   UNL     1       4.659   3.419  12.177  0.00  0.00    +0.000 OA
ATOM     16  H   UNL     1       5.265   2.946  11.581  0.00  0.00    +0.000 HD
ENDBRANCH   5  15
ENDBRANCH   1   7
BRANCH   1  17
ATOM     17  C   UNL     1       3.858   3.609  17.380  0.00  0.00    +0.000 C 
ATOM     18  O   UNL     1       3.811   4.931  17.922  0.00  0.00    +0.000 OA
ATOM     19  C   UNL     1       2.519   5.301  18.405  0.00  0.00    +0.000 C 
ATOM     20  C   UNL     1       2.106   4.375  19.560  0.00  0.00    +0.000 C 
ATOM     21  C   UNL     1       2.128   2.918  19.079  0.00  0.00    +0.000 C 
ATOM     22  C   UNL     1       3.490   2.564  18.460  0.00  0.00    +0.000 C 
BRANCH  20  23
ATOM     23  O   UNL     1       0.816   4.744  20.065  0.00  0.00    +0.000 OA
ATOM     24  H   UNL     1       0.773   4.509  21.011  0.00  0.00    +0.000 HD
ENDBRANCH  20  23
BRANCH  21  25
ATOM     25  O   UNL     1       1.798   2.032  20.153  0.00  0.00    +0.000 OA
ATOM     26  H   UNL     1       1.257   2.516  20.802  0.00  0.00    +0.000 HD
ENDBRANCH  21  25
BRANCH  22  27
ATOM     27  O   UNL     1       3.462   1.236  17.913  0.00  0.00    +0.000 OA
ATOM     28  H   UNL     1       3.361   1.288  16.947  0.00  0.00    +0.000 HD
ENDBRANCH  22  27
BRANCH  19  29
ATOM     29  C   UNL     1       2.558   6.772  18.849  0.00  0.00    +0.000 C 
BRANCH  29  30
ATOM     30  O   UNL     1       2.551   6.906  20.265  0.00  0.00    +0.000 OA
ATOM     31  H   UNL     1       3.368   7.393  20.515  0.00  0.00    +0.000 HD
ENDBRANCH  29  30
ENDBRANCH  19  29
ENDBRANCH   1  17
TORSDOF 11
ENDMDL
MODEL 7
REMARK VINA RESULT:      -6.6      2.520      5.324
REMARK  Name = 
REMARK  13 active torsions:
REMARK  status: ('A' for Active; 'I' for Inactive)
REMARK    1  A    between atoms: C_1  and  C_2
REMARK    2  A    between atoms: C_2  and  C_3
REMARK    3  A    between atoms: C_2  and  C_4
REMARK    4  A    between atoms: C_4  and  C_6
REMARK    5  A    between atoms: C_7  and  O_8
REMARK    6  A    between atoms: C_10  and  O_11
REMARK    7  A    between atoms: C_13  and  O_14
REMARK    8  A    between atoms: O_14  and  C_15
REMARK    9  A    between atoms: C_17  and  C_18
REMARK   10  A    between atoms: C_18  and  O_19
REMARK   11  A    between atoms: C_20  and  O_21
REMARK   12  A    between atoms: C_22  and  O_23
REMARK   13  A    between atoms: C_24  and  O_25
REMARK                            x       y       z     vdW  Elec       q    Type
REMARK                         _______ _______ _______ _____ _____    ______ ____
ROOT
ATOM      1  O   UNL     1       2.022   6.362  18.471  0.00  0.00    +0.000 OA
ENDROOT
BRANCH   1   7
ATOM      2  C   UNL     1       3.648   4.691  18.962  0.00  0.00    +0.000 A 
ATOM      3  C   UNL     1       4.019   3.552  19.709  0.00  0.00    +0.000 A 
ATOM      4  C   UNL     1       3.108   2.887  20.530  0.00  0.00    +0.000 A 
ATOM      5  C   UNL     1       1.827   3.393  20.652  0.00  0.00    +0.000 A 
ATOM      6  C   UNL     1       1.448   4.543  19.970  0.00  0.00    +0.000 A 
ATOM      7  C   UNL     1       2.343   5.195  19.108  0.00  0.00    +0.000 A 
BRANCH   2   8
ATOM      8  C   UNL     1       4.683   5.299  18.061  0.00  0.00    +0.000 C 
ATOM      9  O   UNL     1       5.618   5.887  18.611  0.00  0.00    +0.000 OA
BRANCH   8  11
ATOM     10  C   UNL     1       5.131   6.410  15.841  0.00  0.00    +0.000 C 
ATOM     11  C   UNL     1       4.622   5.142  16.533  0.00  0.00    +0.000 C 
ATOM     12  C   UNL     1       5.441   3.944  16.054  0.00  0.00    +0.000 C 
ENDBRANCH   8  11
ENDBRANCH   2   8
BRANCH   3  13
ATOM     13  O   UNL     1       5.288   3.029  19.705  0.00  0.00    +0.000 OA
ATOM     14  H   UNL     1       5.206   2.058  19.564  0.00  0.00    +0.000 HD
ENDBRANCH   3  13
BRANCH   5  15
ATOM     15  O   UNL     1       0.898   2.805  21.459  0.00  0.00    +0.000 OA
ATOM     16  H   UNL     1       1.360   2.327  22.168  0.00  0.00    +0.000 HD
ENDBRANCH   5  15
ENDBRANCH   1   7
BRANCH   1  17
ATOM     17  C   UNL     1       2.174   7.590  19.202  0.00  0.00    +0.000 C 
ATOM     18  O   UNL     1       1.299   7.603  20.332  0.00  0.00    +0.000 OA
ATOM     19  C   UNL     1       1.386   8.801  21.105  0.00  0.00    +0.000 C 
ATOM     20  C   UNL     1       0.963  10.007  20.251  0.00  0.00    +0.000 C 
ATOM     21  C   UNL     1       1.847  10.082  18.999  0.00  0.00    +0.000 C 
ATOM     22  C   UNL     1       1.832   8.748  18.235  0.00  0.00    +0.000 C 
BRANCH  20  23
ATOM     23  O   UNL     1       1.032  11.216  21.017  0.00  0.00    +0.000 OA
ATOM     24  H   UNL     1       1.217  11.959  20.412  0.00  0.00    +0.000 HD
ENDBRANCH  20  23
BRANCH  21  25
ATOM     25  O   UNL     1       1.437  11.166  18.161  0.00  0.00    +0.000 OA
ATOM     26  H   UNL     1       2.066  11.245  17.421  0.00  0.00    +0.000 HD
ENDBRANCH  21  25
BRANCH  22  27
ATOM     27  O   UNL     1       2.749   8.793  17.130  0.00  0.00    +0.000 OA
ATOM     28  H   UNL     1       3.129   7.909  16.991  0.00  0.00    +0.000 HD
ENDBRANCH  22  27
BRANCH  19  29
ATOM     29  C   UNL     1       0.498   8.654  22.351  0.00  0.00    +0.000 C 
BRANCH  29  30
ATOM     30  O   UNL     1       0.782   9.643  23.333  0.00  0.00    +0.000 OA
ATOM     31  H   UNL     1      -0.051  10.140  23.494  0.00  0.00    +0.000 HD
ENDBRANCH  29  30
ENDBRANCH  19  29
ENDBRANCH   1  17
TORSDOF 11
ENDMDL
MODEL 8
REMARK VINA RESULT:      -6.6      1.101      1.342
REMARK  Name = 
REMARK  13 active torsions:
REMARK  status: ('A' for Active; 'I' for Inactive)
REMARK    1  A    between atoms: C_1  and  C_2
REMARK    2  A    between atoms: C_2  and  C_3
REMARK    3  A    between atoms: C_2  and  C_4
REMARK    4  A    between atoms: C_4  and  C_6
REMARK    5  A    between atoms: C_7  and  O_8
REMARK    6  A    between atoms: C_10  and  O_11
REMARK    7  A    between atoms: C_13  and  O_14
REMARK    8  A    between atoms: O_14  and  C_15
REMARK    9  A    between atoms: C_17  and  C_18
REMARK   10  A    between atoms: C_18  and  O_19
REMARK   11  A    between atoms: C_20  and  O_21
REMARK   12  A    between atoms: C_22  and  O_23
REMARK   13  A    between atoms: C_24  and  O_25
REMARK                            x       y       z     vdW  Elec       q    Type
REMARK                         _______ _______ _______ _____ _____    ______ ____
ROOT
ATOM      1  O   UNL     1       4.847   4.070  17.735  0.00  0.00    +0.000 OA
ENDROOT
BRANCH   1   7
ATOM      2  C   UNL     1       6.319   5.853  17.161  0.00  0.00    +0.000 A 
ATOM      3  C   UNL     1       7.363   6.724  17.540  0.00  0.00    +0.000 A 
ATOM      4  C   UNL     1       8.053   6.561  18.742  0.00  0.00    +0.000 A 
ATOM      5  C   UNL     1       7.663   5.553  19.603  0.00  0.00    +0.000 A 
ATOM      6  C   UNL     1       6.603   4.712  19.282  0.00  0.00    +0.000 A 
ATOM      7  C   UNL     1       5.932   4.839  18.056  0.00  0.00    +0.000 A 
BRANCH   2   8
ATOM      8  C   UNL     1       5.681   6.074  15.821  0.00  0.00    +0.000 C 
ATOM      9  O   UNL     1       4.906   7.030  15.729  0.00  0.00    +0.000 OA
BRANCH   8  11
ATOM     10  C   UNL     1       7.503   4.802  14.627  0.00  0.00    +0.000 C 
ATOM     11  C   UNL     1       6.024   5.199  14.605  0.00  0.00    +0.000 C 
ATOM     12  C   UNL     1       5.166   3.935  14.556  0.00  0.00    +0.000 C 
ENDBRANCH   8  11
ENDBRANCH   2   8
BRANCH   3  13
ATOM     13  O   UNL     1       7.764   7.795  16.780  0.00  0.00    +0.000 OA
ATOM     14  H   UNL     1       8.705   7.978  17.003  0.00  0.00    +0.000 HD
ENDBRANCH   3  13
BRANCH   5  15
ATOM     15  O   UNL     1       8.277   5.357  20.805  0.00  0.00    +0.000 OA
ATOM     16  H   UNL     1       7.755   4.719  21.320  0.00  0.00    +0.000 HD
ENDBRANCH   5  15
ENDBRANCH   1   7
BRANCH   1  17
ATOM     17  C   UNL     1       3.575   4.435  18.296  0.00  0.00    +0.000 C 
ATOM     18  O   UNL     1       3.469   5.857  18.395  0.00  0.00    +0.000 OA
ATOM     19  C   UNL     1       2.230   6.296  18.956  0.00  0.00    +0.000 C 
ATOM     20  C   UNL     1       2.094   5.779  20.397  0.00  0.00    +0.000 C 
ATOM     21  C   UNL     1       2.200   4.247  20.401  0.00  0.00    +0.000 C 
ATOM     22  C   UNL     1       3.485   3.782  19.696  0.00  0.00    +0.000 C 
BRANCH  20  23
ATOM     23  O   UNL     1       0.863   6.223  20.977  0.00  0.00    +0.000 OA
ATOM     24  H   UNL     1       0.767   7.181  20.812  0.00  0.00    +0.000 HD
ENDBRANCH  20  23
BRANCH  21  25
ATOM     25  O   UNL     1       2.129   3.745  21.739  0.00  0.00    +0.000 OA
ATOM     26  H   UNL     1       1.814   4.458  22.323  0.00  0.00    +0.000 HD
ENDBRANCH  21  25
BRANCH  22  27
ATOM     27  O   UNL     1       3.517   2.349  19.607  0.00  0.00    +0.000 OA
ATOM     28  H   UNL     1       3.324   2.079  18.693  0.00  0.00    +0.000 HD
ENDBRANCH  22  27
BRANCH  19  29
ATOM     29  C   UNL     1       2.179   7.831  18.902  0.00  0.00    +0.000 C 
BRANCH  29  30
ATOM     30  O   UNL     1       2.888   8.355  17.786  0.00  0.00    +0.000 OA
ATOM     31  H   UNL     1       3.842   8.166  17.933  0.00  0.00    +0.000 HD
ENDBRANCH  29  30
ENDBRANCH  19  29
ENDBRANCH   1  17
TORSDOF 11
ENDMDL
MODEL 9
REMARK VINA RESULT:      -6.6      2.238      5.277
REMARK  Name = 
REMARK  13 active torsions:
REMARK  status: ('A' for Active; 'I' for Inactive)
REMARK    1  A    between atoms: C_1  and  C_2
REMARK    2  A    between atoms: C_2  and  C_3
REMARK    3  A    between atoms: C_2  and  C_4
REMARK    4  A    between atoms: C_4  and  C_6
REMARK    5  A    between atoms: C_7  and  O_8
REMARK    6  A    between atoms: C_10  and  O_11
REMARK    7  A    between atoms: C_13  and  O_14
REMARK    8  A    between atoms: O_14  and  C_15
REMARK    9  A    between atoms: C_17  and  C_18
REMARK   10  A    between atoms: C_18  and  O_19
REMARK   11  A    between atoms: C_20  and  O_21
REMARK   12  A    between atoms: C_22  and  O_23
REMARK   13  A    between atoms: C_24  and  O_25
REMARK                            x       y       z     vdW  Elec       q    Type
REMARK                         _______ _______ _______ _____ _____    ______ ____
ROOT
ATOM      1  O   UNL     1       2.202   5.830  18.345  0.00  0.00    +0.000 OA
ENDROOT
BRANCH   1   7
ATOM      2  C   UNL     1       3.705   4.091  18.971  0.00  0.00    +0.000 A 
ATOM      3  C   UNL     1       4.021   3.027  19.843  0.00  0.00    +0.000 A 
ATOM      4  C   UNL     1       3.110   2.560  20.791  0.00  0.00    +0.000 A 
ATOM      5  C   UNL     1       1.887   3.195  20.909  0.00  0.00    +0.000 A 
ATOM      6  C   UNL     1       1.567   4.279  20.100  0.00  0.00    +0.000 A 
ATOM      7  C   UNL     1       2.460   4.729  19.115  0.00  0.00    +0.000 A 
BRANCH   2   8
ATOM      8  C   UNL     1       4.729   4.478  17.946  0.00  0.00    +0.000 C 
ATOM      9  O   UNL     1       4.810   3.759  16.946  0.00  0.00    +0.000 OA
BRANCH   8  11
ATOM     10  C   UNL     1       6.712   5.510  19.114  0.00  0.00    +0.000 C 
ATOM     11  C   UNL     1       5.591   5.741  18.096  0.00  0.00    +0.000 C 
ATOM     12  C   UNL     1       6.205   6.170  16.763  0.00  0.00    +0.000 C 
ENDBRANCH   8  11
ENDBRANCH   2   8
BRANCH   3  13
ATOM     13  O   UNL     1       5.238   2.390  19.844  0.00  0.00    +0.000 OA
ATOM     14  H   UNL     1       5.079   1.452  19.593  0.00  0.00    +0.000 HD
ENDBRANCH   3  13
BRANCH   5  15
ATOM     15  O   UNL     1       0.963   2.806  21.833  0.00  0.00    +0.000 OA
ATOM     16  H   UNL     1       0.275   3.491  21.892  0.00  0.00    +0.000 HD
ENDBRANCH   5  15
ENDBRANCH   1   7
BRANCH   1  17
ATOM     17  C   UNL     1       2.346   7.123  18.954  0.00  0.00    +0.000 C 
ATOM     18  O   UNL     1       1.378   7.291  19.993  0.00  0.00    +0.000 OA
ATOM     19  C   UNL     1       1.453   8.562  20.640  0.00  0.00    +0.000 C 
ATOM     20  C   UNL     1       1.160   9.683  19.630  0.00  0.00    +0.000 C 
ATOM     21  C   UNL     1       2.152   9.588  18.461  0.00  0.00    +0.000 C 
ATOM     22  C   UNL     1       2.142   8.181  17.843  0.00  0.00    +0.000 C 
BRANCH  20  23
ATOM     23  O   UNL     1       1.218  10.964  20.268  0.00  0.00    +0.000 OA
ATOM     24  H   UNL     1       0.662  11.589  19.765  0.00  0.00    +0.000 HD
ENDBRANCH  20  23
BRANCH  21  25
ATOM     25  O   UNL     1       1.865  10.590  17.481  0.00  0.00    +0.000 OA
ATOM     26  H   UNL     1       1.367  11.311  17.907  0.00  0.00    +0.000 HD
ENDBRANCH  21  25
BRANCH  22  27
ATOM     27  O   UNL     1       3.151   8.072  16.828  0.00  0.00    +0.000 OA
ATOM     28  H   UNL     1       3.639   7.239  16.946  0.00  0.00    +0.000 HD
ENDBRANCH  22  27
BRANCH  19  29
ATOM     29  C   UNL     1       0.456   8.583  21.809  0.00  0.00    +0.000 C 
BRANCH  29  30
ATOM     30  O   UNL     1       0.804   9.546  22.795  0.00  0.00    +0.000 OA
ATOM     31  H   UNL     1       1.464  10.152  22.390  0.00  0.00    +0.000 HD
ENDBRANCH  29  30
ENDBRANCH  19  29
ENDBRANCH   1  17
TORSDOF 11
ENDMDL
