MODEL 1
REMARK VINA RESULT:      -7.6      0.000      0.000
REMARK  Name = 
REMARK  2 active torsions:
REMARK  status: ('A' for Active; 'I' for Inactive)
REMARK    1  A    between atoms: C_2  and  OXT_3
REMARK    2  A    between atoms: C_2  and  CA_4
REMARK                            x       y       z     vdW  Elec       q    Type
REMARK                         _______ _______ _______ _____ _____    ______ ____
ROOT
ATOM      1  CA  UNL     1       4.086   2.970  19.617  0.00  0.00    +0.000 C 
ATOM      2  N   UNL     1       4.718   3.620  18.434  0.00  0.00    +0.000 N 
ATOM      3  C   UNL     1       4.245   4.938  18.198  0.00  0.00    +0.000 A 
ATOM      4  C   UNL     1       5.025   5.864  17.470  0.00  0.00    +0.000 A 
ATOM      5  I   UNL     1       6.972   5.390  16.830  0.00  0.00    +0.000 I 
ATOM      6  C   UNL     1       4.544   7.141  17.167  0.00  0.00    +0.000 A 
ATOM      7  C   UNL     1       3.262   7.508  17.564  0.00  0.00    +0.000 A 
ATOM      8  C   UNL     1       2.464   6.597  18.250  0.00  0.00    +0.000 A 
ATOM      9  C   UNL     1       2.938   5.308  18.563  0.00  0.00    +0.000 A 
ATOM     10  C   UNL     1       2.015   4.348  19.266  0.00  0.00    +0.000 C 
ATOM     11  C   UNL     1       1.719   4.695  20.703  0.00  0.00    +0.000 C 
ATOM     12  C   UNL     1       1.595   3.592  21.451  0.00  0.00    +0.000 C 
ATOM     13  C   UNL     1       1.808   2.362  20.630  0.00  0.00    +0.000 C 
ATOM     14  C   UNL     1       2.564   2.915  19.409  0.00  0.00    +0.000 C 
ATOM     15  H   UNL     1       5.738   3.683  18.541  0.00  0.00    +0.000 HD
ENDROOT
BRANCH   1  17
ATOM     16  O   UNL     1       5.334   1.132  20.664  0.00  0.00    +0.000 OA
ATOM     17  C   UNL     1       4.664   1.548  19.733  0.00  0.00    +0.000 C 
BRANCH  17  18
ATOM     18  OXT UNL     1       4.326   0.776  18.667  0.00  0.00    +0.000 OA
ATOM     19  HXT UNL     1       4.918  -0.016  18.679  0.00  0.00    +0.000 HD
ENDBRANCH  17  18
ENDBRANCH   1  17
TORSDOF 2
ENDMDL
MODEL 2
REMARK VINA RESULT:      -7.2      2.135      2.454
REMARK  Name = 
REMARK  2 active torsions:
REMARK  status: ('A' for Active; 'I' for Inactive)
REMARK    1  A    between atoms: C_2  and  OXT_3
REMARK    2  A    between atoms: C_2  and  CA_4
REMARK                            x       y       z     vdW  Elec       q    Type
REMARK                         _______ _______ _______ _____ _____    ______ ____
ROOT
ATOM      1  CA  UNL     1       3.909   3.196  19.722  0.00  0.00    +0.000 C 
ATOM      2  N   UNL     1       5.298   3.600  19.364  0.00  0.00    +0.000 N 
ATOM      3  C   UNL     1       5.373   4.349  18.159  0.00  0.00    +0.000 A 
ATOM      4  C   UNL     1       6.468   5.207  17.912  0.00  0.00    +0.000 A 
ATOM      5  I   UNL     1       7.957   5.529  19.362  0.00  0.00    +0.000 I 
ATOM      6  C   UNL     1       6.593   5.895  16.700  0.00  0.00    +0.000 A 
ATOM      7  C   UNL     1       5.638   5.718  15.704  0.00  0.00    +0.000 A 
ATOM      8  C   UNL     1       4.572   4.849  15.915  0.00  0.00    +0.000 A 
ATOM      9  C   UNL     1       4.434   4.151  17.131  0.00  0.00    +0.000 A 
ATOM     10  C   UNL     1       3.286   3.189  17.288  0.00  0.00    +0.000 C 
ATOM     11  C   UNL     1       1.929   3.837  17.392  0.00  0.00    +0.000 C 
ATOM     12  C   UNL     1       1.131   3.157  18.225  0.00  0.00    +0.000 C 
ATOM     13  C   UNL     1       1.844   1.979  18.805  0.00  0.00    +0.000 C 
ATOM     14  C   UNL     1       3.320   2.351  18.580  0.00  0.00    +0.000 C 
ATOM     15  H   UNL     1       5.723   4.176  20.101  0.00  0.00    +0.000 HD
ENDROOT
BRANCH   1  17
ATOM     16  O   UNL     1       3.118   2.331  21.879  0.00  0.00    +0.000 OA
ATOM     17  C   UNL     1       3.982   2.372  21.019  0.00  0.00    +0.000 C 
BRANCH  17  18
ATOM     18  OXT UNL     1       5.135   1.658  21.101  0.00  0.00    +0.000 OA
ATOM     19  HXT UNL     1       5.068   0.914  20.453  0.00  0.00    +0.000 HD
ENDBRANCH  17  18
ENDBRANCH   1  17
TORSDOF 2
ENDMDL
MODEL 3
REMARK VINA RESULT:      -6.9      2.970      3.710
REMARK  Name = 
REMARK  2 active torsions:
REMARK  status: ('A' for Active; 'I' for Inactive)
REMARK    1  A    between atoms: C_2  and  OXT_3
REMARK    2  A    between atoms: C_2  and  CA_4
REMARK                            x       y       z     vdW  Elec       q    Type
REMARK                         _______ _______ _______ _____ _____    ______ ____
ROOT
ATOM      1  CA  UNL     1       2.058   4.255  20.227  0.00  0.00    +0.000 C 
ATOM      2  N   UNL     1       2.039   5.670  20.694  0.00  0.00    +0.000 N 
ATOM      3  C   UNL     1       2.262   6.609  19.651  0.00  0.00    +0.000 A 
ATOM      4  C   UNL     1       1.816   7.944  19.776  0.00  0.00    +0.000 A 
ATOM      5  I   UNL     1       0.682   8.569  21.434  0.00  0.00    +0.000 I 
ATOM      6  C   UNL     1       2.090   8.898  18.791  0.00  0.00    +0.000 A 
ATOM      7  C   UNL     1       2.838   8.540  17.673  0.00  0.00    +0.000 A 
ATOM      8  C   UNL     1       3.317   7.240  17.550  0.00  0.00    +0.000 A 
ATOM      9  C   UNL     1       3.046   6.269  18.535  0.00  0.00    +0.000 A 
ATOM     10  C   UNL     1       3.628   4.890  18.371  0.00  0.00    +0.000 C 
ATOM     11  C   UNL     1       3.018   4.075  17.260  0.00  0.00    +0.000 C 
ATOM     12  C   UNL     1       2.958   2.778  17.587  0.00  0.00    +0.000 C 
ATOM     13  C   UNL     1       3.498   2.549  18.962  0.00  0.00    +0.000 C 
ATOM     14  C   UNL     1       3.420   3.957  19.579  0.00  0.00    +0.000 C 
ATOM     15  H   UNL     1       1.138   5.912  21.126  0.00  0.00    +0.000 HD
ENDROOT
BRANCH   1  17
ATOM     16  O   UNL     1       2.584   3.283  22.419  0.00  0.00    +0.000 OA
ATOM     17  C   UNL     1       1.838   3.356  21.456  0.00  0.00    +0.000 C 
BRANCH  17  18
ATOM     18  OXT UNL     1       0.685   2.644  21.363  0.00  0.00    +0.000 OA
ATOM     19  HXT UNL     1       0.722   1.934  22.050  0.00  0.00    +0.000 HD
ENDBRANCH  17  18
ENDBRANCH   1  17
TORSDOF 2
ENDMDL
MODEL 4
REMARK VINA RESULT:      -6.6      1.311      1.579
REMARK  Name = 
REMARK  2 active torsions:
REMARK  status: ('A' for Active; 'I' for Inactive)
REMARK    1  A    between atoms: C_2  and  OXT_3
REMARK    2  A    between atoms: C_2  and  CA_4
REMARK                            x       y       z     vdW  Elec       q    Type
REMARK                         _______ _______ _______ _____ _____    ______ ____
ROOT
ATOM      1  CA  UNL     1       3.177   3.171  18.655  0.00  0.00    +0.000 C 
ATOM      2  N   UNL     1       3.760   3.587  17.349  0.00  0.00    +0.000 N 
ATOM      3  C   UNL     1       3.991   4.986  17.256  0.00  0.00    +0.000 A 
ATOM      4  C   UNL     1       4.944   5.500  16.348  0.00  0.00    +0.000 A 
ATOM      5  I   UNL     1       6.162   4.226  15.201  0.00  0.00    +0.000 I 
ATOM      6  C   UNL     1       5.131   6.878  16.194  0.00  0.00    +0.000 A 
ATOM      7  C   UNL     1       4.351   7.767  16.926  0.00  0.00    +0.000 A 
ATOM      8  C   UNL     1       3.382   7.280  17.798  0.00  0.00    +0.000 A 
ATOM      9  C   UNL     1       3.184   5.895  17.964  0.00  0.00    +0.000 A 
ATOM     10  C   UNL     1       2.091   5.425  18.887  0.00  0.00    +0.000 C 
ATOM     11  C   UNL     1       2.356   5.662  20.352  0.00  0.00    +0.000 C 
ATOM     12  C   UNL     1       1.860   4.670  21.100  0.00  0.00    +0.000 C 
ATOM     13  C   UNL     1       1.215   3.626  20.246  0.00  0.00    +0.000 C 
ATOM     14  C   UNL     1       1.843   3.904  18.868  0.00  0.00    +0.000 C 
ATOM     15  H   UNL     1       4.661   3.124  17.174  0.00  0.00    +0.000 HD
ENDROOT
BRANCH   1  17
ATOM     16  O   UNL     1       3.829   0.804  18.671  0.00  0.00    +0.000 OA
ATOM     17  C   UNL     1       2.952   1.650  18.602  0.00  0.00    +0.000 C 
BRANCH  17  18
ATOM     18  OXT UNL     1       1.636   1.336  18.485  0.00  0.00    +0.000 OA
ATOM     19  HXT UNL     1       1.345   0.958  19.351  0.00  0.00    +0.000 HD
ENDBRANCH  17  18
ENDBRANCH   1  17
TORSDOF 2
ENDMDL
MODEL 5
REMARK VINA RESULT:      -6.6      1.806      1.986
REMARK  Name = 
REMARK  2 active torsions:
REMARK  status: ('A' for Active; 'I' for Inactive)
REMARK    1  A    between atoms: C_2  and  OXT_3
REMARK    2  A    between atoms: C_2  and  CA_4
REMARK                            x       y       z     vdW  Elec       q    Type
REMARK                         _______ _______ _______ _____ _____    ______ ____
ROOT
ATOM      1  CA  UNL     1       4.343   2.959  19.341  0.00  0.00    +0.000 C 
ATOM      2  N   UNL     1       5.621   3.642  18.996  0.00  0.00    +0.000 N 
ATOM      3  C   UNL     1       5.439   4.812  18.212  0.00  0.00    +0.000 A 
ATOM      4  C   UNL     1       6.421   5.828  18.194  0.00  0.00    +0.000 A 
ATOM      5  I   UNL     1       8.121   5.728  19.428  0.00  0.00    +0.000 I 
ATOM      6  C   UNL     1       6.290   6.952  17.372  0.00  0.00    +0.000 A 
ATOM      7  C   UNL     1       5.186   7.070  16.534  0.00  0.00    +0.000 A 
ATOM      8  C   UNL     1       4.226   6.062  16.510  0.00  0.00    +0.000 A 
ATOM      9  C   UNL     1       4.346   4.925  17.334  0.00  0.00    +0.000 A 
ATOM     10  C   UNL     1       3.301   3.845  17.234  0.00  0.00    +0.000 C 
ATOM     11  C   UNL     1       1.949   4.222  17.783  0.00  0.00    +0.000 C 
ATOM     12  C   UNL     1       1.351   3.173  18.359  0.00  0.00    +0.000 C 
ATOM     13  C   UNL     1       2.222   1.960  18.296  0.00  0.00    +0.000 C 
ATOM     14  C   UNL     1       3.612   2.573  18.045  0.00  0.00    +0.000 C 
ATOM     15  H   UNL     1       6.136   3.925  19.839  0.00  0.00    +0.000 HD
ENDROOT
BRANCH   1  17
ATOM     16  O   UNL     1       4.826   1.661  21.369  0.00  0.00    +0.000 OA
ATOM     17  C   UNL     1       4.692   1.701  20.157  0.00  0.00    +0.000 C 
BRANCH  17  18
ATOM     18  OXT UNL     1       4.820   0.604  19.366  0.00  0.00    +0.000 OA
ATOM     19  HXT UNL     1       5.374   0.865  18.589  0.00  0.00    +0.000 HD
ENDBRANCH  17  18
ENDBRANCH   1  17
TORSDOF 2
ENDMDL
MODEL 6
REMARK VINA RESULT:      -5.8      2.548      3.409
REMARK  Name = 
REMARK  2 active torsions:
REMARK  status: ('A' for Active; 'I' for Inactive)
REMARK    1  A    between atoms: C_2  and  OXT_3
REMARK    2  A    between atoms: C_2  and  CA_4
REMARK                            x       y       z     vdW  Elec       q    Type
REMARK                         _______ _______ _______ _____ _____    ______ ____
ROOT
ATOM      1  CA  UNL     1       2.496   4.123  19.423  0.00  0.00    +0.000 C 
ATOM      2  N   UNL     1       2.766   5.576  19.235  0.00  0.00    +0.000 N 
ATOM      3  C   UNL     1       3.546   5.858  18.082  0.00  0.00    +0.000 A 
ATOM      4  C   UNL     1       3.501   7.134  17.475  0.00  0.00    +0.000 A 
ATOM      5  I   UNL     1       2.180   8.623  18.156  0.00  0.00    +0.000 I 
ATOM      6  C   UNL     1       4.316   7.450  16.384  0.00  0.00    +0.000 A 
ATOM      7  C   UNL     1       5.211   6.503  15.894  0.00  0.00    +0.000 A 
ATOM      8  C   UNL     1       5.296   5.254  16.500  0.00  0.00    +0.000 A 
ATOM      9  C   UNL     1       4.479   4.923  17.600  0.00  0.00    +0.000 A 
ATOM     10  C   UNL     1       4.646   3.572  18.245  0.00  0.00    +0.000 C 
ATOM     11  C   UNL     1       4.165   2.411  17.412  0.00  0.00    +0.000 C 
ATOM     12  C   UNL     1       3.631   1.453  18.180  0.00  0.00    +0.000 C 
ATOM     13  C   UNL     1       3.662   1.845  19.622  0.00  0.00    +0.000 C 
ATOM     14  C   UNL     1       3.833   3.373  19.539  0.00  0.00    +0.000 C 
ATOM     15  H   UNL     1       1.894   6.112  19.144  0.00  0.00    +0.000 HD
ENDROOT
BRANCH   1  17
ATOM     16  O   UNL     1       2.128   4.022  21.848  0.00  0.00    +0.000 OA
ATOM     17  C   UNL     1       1.677   3.964  20.716  0.00  0.00    +0.000 C 
BRANCH  17  18
ATOM     18  OXT UNL     1       0.358   3.764  20.459  0.00  0.00    +0.000 OA
ATOM     19  HXT UNL     1       0.144   2.836  20.724  0.00  0.00    +0.000 HD
ENDBRANCH  17  18
ENDBRANCH   1  17
TORSDOF 2
ENDMDL
MODEL 7
REMARK VINA RESULT:      -5.8      2.607      4.630
REMARK  Name = 
REMARK  2 active torsions:
REMARK  status: ('A' for Active; 'I' for Inactive)
REMARK    1  A    between atoms: C_2  and  OXT_3
REMARK    2  A    between atoms: C_2  and  CA_4
REMARK                            x       y       z     vdW  Elec       q    Type
REMARK                         _______ _______ _______ _____ _____    ______ ____
ROOT
ATOM      1  CA  UNL     1       5.936   4.627  17.884  0.00  0.00    +0.000 C 
ATOM      2  N   UNL     1       5.703   3.754  19.068  0.00  0.00    +0.000 N 
ATOM      3  C   UNL     1       4.378   3.835  19.574  0.00  0.00    +0.000 A 
ATOM      4  C   UNL     1       3.832   2.779  20.338  0.00  0.00    +0.000 A 
ATOM      5  I   UNL     1       4.891   0.988  20.644  0.00  0.00    +0.000 I 
ATOM      6  C   UNL     1       2.556   2.874  20.903  0.00  0.00    +0.000 A 
ATOM      7  C   UNL     1       1.812   4.038  20.735  0.00  0.00    +0.000 A 
ATOM      8  C   UNL     1       2.347   5.102  20.015  0.00  0.00    +0.000 A 
ATOM      9  C   UNL     1       3.630   5.018  19.440  0.00  0.00    +0.000 A 
ATOM     10  C   UNL     1       4.176   6.217  18.711  0.00  0.00    +0.000 C 
ATOM     11  C   UNL     1       3.500   6.520  17.398  0.00  0.00    +0.000 C 
ATOM     12  C   UNL     1       4.373   6.995  16.502  0.00  0.00    +0.000 C 
ATOM     13  C   UNL     1       5.751   7.057  17.079  0.00  0.00    +0.000 C 
ATOM     14  C   UNL     1       5.647   6.087  18.270  0.00  0.00    +0.000 C 
ATOM     15  H   UNL     1       5.878   2.765  18.847  0.00  0.00    +0.000 HD
ENDROOT
BRANCH   1  17
ATOM     16  O   UNL     1       7.811   4.369  16.319  0.00  0.00    +0.000 OA
ATOM     17  C   UNL     1       7.409   4.464  17.467  0.00  0.00    +0.000 C 
BRANCH  17  18
ATOM     18  OXT UNL     1       8.241   4.454  18.541  0.00  0.00    +0.000 OA
ATOM     19  HXT UNL     1       8.784   3.629  18.485  0.00  0.00    +0.000 HD
ENDBRANCH  17  18
ENDBRANCH   1  17
TORSDOF 2
ENDMDL
MODEL 8
REMARK VINA RESULT:      -5.8      3.013      5.050
REMARK  Name = 
REMARK  2 active torsions:
REMARK  status: ('A' for Active; 'I' for Inactive)
REMARK    1  A    between atoms: C_2  and  OXT_3
REMARK    2  A    between atoms: C_2  and  CA_4
REMARK                            x       y       z     vdW  Elec       q    Type
REMARK                         _______ _______ _______ _____ _____    ______ ____
ROOT
ATOM      1  CA  UNL     1       6.423   5.072  18.451  0.00  0.00    +0.000 C 
ATOM      2  N   UNL     1       5.677   4.195  19.398  0.00  0.00    +0.000 N 
ATOM      3  C   UNL     1       4.581   3.522  18.795  0.00  0.00    +0.000 A 
ATOM      4  C   UNL     1       4.072   2.329  19.355  0.00  0.00    +0.000 A 
ATOM      5  I   UNL     1       4.993   1.418  21.012  0.00  0.00    +0.000 I 
ATOM      6  C   UNL     1       2.949   1.693  18.815  0.00  0.00    +0.000 A 
ATOM      7  C   UNL     1       2.299   2.253  17.719  0.00  0.00    +0.000 A 
ATOM      8  C   UNL     1       2.764   3.447  17.177  0.00  0.00    +0.000 A 
ATOM      9  C   UNL     1       3.894   4.096  17.710  0.00  0.00    +0.000 A 
ATOM     10  C   UNL     1       4.325   5.409  17.111  0.00  0.00    +0.000 C 
ATOM     11  C   UNL     1       4.914   5.309  15.727  0.00  0.00    +0.000 C 
ATOM     12  C   UNL     1       5.895   6.202  15.553  0.00  0.00    +0.000 C 
ATOM     13  C   UNL     1       6.113   7.006  16.793  0.00  0.00    +0.000 C 
ATOM     14  C   UNL     1       5.461   6.121  17.871  0.00  0.00    +0.000 C 
ATOM     15  H   UNL     1       6.286   3.473  19.801  0.00  0.00    +0.000 HD
ENDROOT
BRANCH   1  17
ATOM     16  O   UNL     1       8.223   6.695  18.844  0.00  0.00    +0.000 OA
ATOM     17  C   UNL     1       7.552   5.757  19.242  0.00  0.00    +0.000 C 
BRANCH  17  18
ATOM     18  OXT UNL     1       7.717   5.204  20.471  0.00  0.00    +0.000 OA
ATOM     19  HXT UNL     1       7.273   5.799  21.124  0.00  0.00    +0.000 HD
ENDBRANCH  17  18
ENDBRANCH   1  17
TORSDOF 2
ENDMDL
MODEL 9
REMARK VINA RESULT:      -5.7      2.687      4.670
REMARK  Name = 
REMARK  2 active torsions:
REMARK  status: ('A' for Active; 'I' for Inactive)
REMARK    1  A    between atoms: C_2  and  OXT_3
REMARK    2  A    between atoms: C_2  and  CA_4
REMARK                            x       y       z     vdW  Elec       q    Type
REMARK                         _______ _______ _______ _____ _____    ______ ____
ROOT
ATOM      1  CA  UNL     1       6.308   4.732  18.189  0.00  0.00    +0.000 C 
ATOM      2  N   UNL     1       5.609   3.952  19.248  0.00  0.00    +0.000 N 
ATOM      3  C   UNL     1       4.203   3.878  19.056  0.00  0.00    +0.000 A 
ATOM      4  C   UNL     1       3.451   2.831  19.634  0.00  0.00    +0.000 A 
ATOM      5  I   UNL     1       4.383   1.261  20.678  0.00  0.00    +0.000 I 
ATOM      6  C   UNL     1       2.058   2.784  19.515  0.00  0.00    +0.000 A 
ATOM      7  C   UNL     1       1.389   3.797  18.836  0.00  0.00    +0.000 A 
ATOM      8  C   UNL     1       2.109   4.857  18.292  0.00  0.00    +0.000 A 
ATOM      9  C   UNL     1       3.512   4.915  18.404  0.00  0.00    +0.000 A 
ATOM     10  C   UNL     1       4.235   6.107  17.834  0.00  0.00    +0.000 C 
ATOM     11  C   UNL     1       4.254   6.174  16.328  0.00  0.00    +0.000 C 
ATOM     12  C   UNL     1       5.407   6.688  15.882  0.00  0.00    +0.000 C 
ATOM     13  C   UNL     1       6.322   7.015  17.017  0.00  0.00    +0.000 C 
ATOM     14  C   UNL     1       5.741   6.161  18.158  0.00  0.00    +0.000 C 
ATOM     15  H   UNL     1       5.955   2.986  19.294  0.00  0.00    +0.000 HD
ENDROOT
BRANCH   1  17
ATOM     16  O   UNL     1       8.303   5.371  19.469  0.00  0.00    +0.000 OA
ATOM     17  C   UNL     1       7.806   4.757  18.540  0.00  0.00    +0.000 C 
BRANCH  17  18
ATOM     18  OXT UNL     1       8.537   3.986  17.694  0.00  0.00    +0.000 OA
ATOM     19  HXT UNL     1       8.106   4.033  16.805  0.00  0.00    +0.000 HD
ENDBRANCH  17  18
ENDBRANCH   1  17
TORSDOF 2
ENDMDL
