MODEL 1
REMARK VINA RESULT:      -8.0      0.000      0.000
REMARK  Name = 
REMARK  9 active torsions:
REMARK  status: ('A' for Active; 'I' for Inactive)
REMARK    1  A    between atoms: N_1  and  CA_2
REMARK    2  A    between atoms: CA_2  and  C_3
REMARK    3  A    between atoms: CA_2  and  C_25
REMARK    4  A    between atoms: C_3  and  C_4
REMARK    5  A    between atoms: C_4  and  C_5
REMARK    6  A    between atoms: C_5  and  N_6
REMARK    7  A    between atoms: C_10  and  C_11
REMARK    8  A    between atoms: C_10  and  C_17
REMARK    9  A    between atoms: C_25  and  OXT_27
REMARK                            x       y       z     vdW  Elec       q    Type
REMARK                         _______ _______ _______ _____ _____    ______ ____
ROOT
ATOM      1  N   UNL     1       1.452   4.237  19.632  0.00  0.00    +0.000 N 
ATOM      2  C   UNL     1       2.120   4.541  20.777  0.00  0.00    +0.000 C 
ATOM      3  O   UNL     1       2.142   3.934  21.835  0.00  0.00    +0.000 OA
ATOM      4  N   UNL     1       2.826   5.691  20.601  0.00  0.00    +0.000 N 
ATOM      5  C   UNL     1       2.774   6.203  19.251  0.00  0.00    +0.000 C 
ATOM      6  C   UNL     1       1.799   5.138  18.650  0.00  0.00    +0.000 C 
ATOM      7  O   UNL     1       1.400   5.101  17.487  0.00  0.00    +0.000 OA
ATOM      8  H   UNL     1       3.353   6.113  21.352  0.00  0.00    +0.000 HD
ENDROOT
BRANCH   5   9
ATOM      9  C   UNL     1       2.192   7.622  19.360  0.00  0.00    +0.000 A 
ATOM     10  C   UNL     1       1.589   8.061  20.556  0.00  0.00    +0.000 A 
ATOM     11  C   UNL     1       0.913   9.282  20.623  0.00  0.00    +0.000 A 
ATOM     12  C   UNL     1       0.808  10.082  19.491  0.00  0.00    +0.000 A 
ATOM     13  C   UNL     1       1.400   9.675  18.299  0.00  0.00    +0.000 A 
ATOM     14  C   UNL     1       2.088   8.461  18.233  0.00  0.00    +0.000 A 
ENDBRANCH   5   9
BRANCH   5  15
ATOM     15  C   UNL     1       4.150   6.101  18.568  0.00  0.00    +0.000 A 
ATOM     16  C   UNL     1       5.282   5.589  19.236  0.00  0.00    +0.000 A 
ATOM     17  C   UNL     1       6.531   5.546  18.615  0.00  0.00    +0.000 A 
ATOM     18  C   UNL     1       6.677   6.010  17.312  0.00  0.00    +0.000 A 
ATOM     19  C   UNL     1       5.569   6.498  16.623  0.00  0.00    +0.000 A 
ATOM     20  C   UNL     1       4.316   6.534  17.240  0.00  0.00    +0.000 A 
ENDBRANCH   5  15
BRANCH   1  21
ATOM     21  C   UNL     1       0.649   3.042  19.379  0.00  0.00    +0.000 C 
BRANCH  21  22
ATOM     22  C   UNL     1       1.471   1.789  19.062  0.00  0.00    +0.000 C 
BRANCH  22  23
ATOM     23  C   UNL     1       2.399   1.932  17.854  0.00  0.00    +0.000 C 
BRANCH  23  24
ATOM     24  CA  UNL     1       3.763   2.527  18.250  0.00  0.00    +0.000 C 
BRANCH  24  25
ATOM     25  N   UNL     1       4.697   2.701  17.099  0.00  0.00    +0.000 NA
ATOM     26  H1  UNL     1       5.160   1.806  16.914  0.00  0.00    +0.000 HD
ATOM     27  H2  UNL     1       5.460   3.320  17.394  0.00  0.00    +0.000 HD
ENDBRANCH  24  25
BRANCH  24  28
ATOM     28  C   UNL     1       4.482   1.659  19.297  0.00  0.00    +0.000 C 
ATOM     29  O   UNL     1       4.929   2.048  20.365  0.00  0.00    +0.000 OA
BRANCH  28  30
ATOM     30  OXT UNL     1       4.596   0.375  18.862  0.00  0.00    +0.000 OA
ATOM     31  HXT UNL     1       3.734   0.163  18.419  0.00  0.00    +0.000 HD
ENDBRANCH  28  30
ENDBRANCH  24  28
ENDBRANCH  23  24
ENDBRANCH  22  23
ENDBRANCH  21  22
ENDBRANCH   1  21
TORSDOF 9
ENDMDL
MODEL 2
REMARK VINA RESULT:      -7.9      2.989      5.350
REMARK  Name = 
REMARK  9 active torsions:
REMARK  status: ('A' for Active; 'I' for Inactive)
REMARK    1  A    between atoms: N_1  and  CA_2
REMARK    2  A    between atoms: CA_2  and  C_3
REMARK    3  A    between atoms: CA_2  and  C_25
REMARK    4  A    between atoms: C_3  and  C_4
REMARK    5  A    between atoms: C_4  and  C_5
REMARK    6  A    between atoms: C_5  and  N_6
REMARK    7  A    between atoms: C_10  and  C_11
REMARK    8  A    between atoms: C_10  and  C_17
REMARK    9  A    between atoms: C_25  and  OXT_27
REMARK                            x       y       z     vdW  Elec       q    Type
REMARK                         _______ _______ _______ _____ _____    ______ ____
ROOT
ATOM      1  N   UNL     1       5.352   4.732  18.020  0.00  0.00    +0.000 N 
ATOM      2  C   UNL     1       5.723   5.218  19.234  0.00  0.00    +0.000 C 
ATOM      3  O   UNL     1       6.845   5.349  19.696  0.00  0.00    +0.000 OA
ATOM      4  N   UNL     1       4.616   5.579  19.939  0.00  0.00    +0.000 N 
ATOM      5  C   UNL     1       3.387   5.463  19.187  0.00  0.00    +0.000 C 
ATOM      6  C   UNL     1       3.989   4.866  17.872  0.00  0.00    +0.000 C 
ATOM      7  O   UNL     1       3.355   4.564  16.863  0.00  0.00    +0.000 OA
ATOM      8  H   UNL     1       4.676   5.919  20.888  0.00  0.00    +0.000 HD
ENDROOT
BRANCH   5   9
ATOM      9  C   UNL     1       2.495   4.498  19.984  0.00  0.00    +0.000 A 
ATOM     10  C   UNL     1       2.844   4.112  21.294  0.00  0.00    +0.000 A 
ATOM     11  C   UNL     1       2.137   3.116  21.971  0.00  0.00    +0.000 A 
ATOM     12  C   UNL     1       1.076   2.469  21.346  0.00  0.00    +0.000 A 
ATOM     13  C   UNL     1       0.707   2.835  20.056  0.00  0.00    +0.000 A 
ATOM     14  C   UNL     1       1.404   3.841  19.382  0.00  0.00    +0.000 A 
ENDBRANCH   5   9
BRANCH   5  15
ATOM     15  C   UNL     1       2.780   6.849  18.906  0.00  0.00    +0.000 A 
ATOM     16  C   UNL     1       3.016   7.541  17.699  0.00  0.00    +0.000 A 
ATOM     17  C   UNL     1       2.492   8.816  17.481  0.00  0.00    +0.000 A 
ATOM     18  C   UNL     1       1.718   9.428  18.461  0.00  0.00    +0.000 A 
ATOM     19  C   UNL     1       1.450   8.755  19.651  0.00  0.00    +0.000 A 
ATOM     20  C   UNL     1       1.967   7.475  19.869  0.00  0.00    +0.000 A 
ENDBRANCH   5  15
BRANCH   1  21
ATOM     21  C   UNL     1       6.240   4.317  16.935  0.00  0.00    +0.000 C 
BRANCH  21  22
ATOM     22  C   UNL     1       6.346   5.326  15.788  0.00  0.00    +0.000 C 
BRANCH  22  23
ATOM     23  C   UNL     1       5.701   4.865  14.479  0.00  0.00    +0.000 C 
BRANCH  23  24
ATOM     24  CA  UNL     1       6.732   4.228  13.530  0.00  0.00    +0.000 C 
BRANCH  24  25
ATOM     25  N   UNL     1       7.643   5.219  12.884  0.00  0.00    +0.000 NA
ATOM     26  H1  UNL     1       8.315   4.715  12.297  0.00  0.00    +0.000 HD
ATOM     27  H2  UNL     1       8.224   5.647  13.615  0.00  0.00    +0.000 HD
ENDBRANCH  24  25
BRANCH  24  28
ATOM     28  C   UNL     1       6.054   3.428  12.403  0.00  0.00    +0.000 C 
ATOM     29  O   UNL     1       4.891   3.537  12.048  0.00  0.00    +0.000 OA
BRANCH  28  30
ATOM     30  OXT UNL     1       6.923   2.534  11.858  0.00  0.00    +0.000 OA
ATOM     31  HXT UNL     1       6.428   2.093  11.121  0.00  0.00    +0.000 HD
ENDBRANCH  28  30
ENDBRANCH  24  28
ENDBRANCH  23  24
ENDBRANCH  22  23
ENDBRANCH  21  22
ENDBRANCH   1  21
TORSDOF 9
ENDMDL
MODEL 3
REMARK VINA RESULT:      -7.9      2.744      4.763
REMARK  Name = 
REMARK  9 active torsions:
REMARK  status: ('A' for Active; 'I' for Inactive)
REMARK    1  A    between atoms: N_1  and  CA_2
REMARK    2  A    between atoms: CA_2  and  C_3
REMARK    3  A    between atoms: CA_2  and  C_25
REMARK    4  A    between atoms: C_3  and  C_4
REMARK    5  A    between atoms: C_4  and  C_5
REMARK    6  A    between atoms: C_5  and  N_6
REMARK    7  A    between atoms: C_10  and  C_11
REMARK    8  A    between atoms: C_10  and  C_17
REMARK    9  A    between atoms: C_25  and  OXT_27
REMARK                            x       y       z     vdW  Elec       q    Type
REMARK                         _______ _______ _______ _____ _____    ______ ____
ROOT
ATOM      1  N   UNL     1       5.565   6.283  17.695  0.00  0.00    +0.000 N 
ATOM      2  C   UNL     1       4.769   6.608  16.641  0.00  0.00    +0.000 C 
ATOM      3  O   UNL     1       5.090   6.899  15.501  0.00  0.00    +0.000 OA
ATOM      4  N   UNL     1       3.464   6.566  17.026  0.00  0.00    +0.000 N 
ATOM      5  C   UNL     1       3.272   6.087  18.375  0.00  0.00    +0.000 C 
ATOM      6  C   UNL     1       4.778   5.919  18.765  0.00  0.00    +0.000 C 
ATOM      7  O   UNL     1       5.201   5.525  19.850  0.00  0.00    +0.000 OA
ATOM      8  H   UNL     1       2.715   6.823  16.398  0.00  0.00    +0.000 HD
ENDROOT
BRANCH   5   9
ATOM      9  C   UNL     1       2.534   7.211  19.121  0.00  0.00    +0.000 A 
ATOM     10  C   UNL     1       2.125   7.036  20.459  0.00  0.00    +0.000 A 
ATOM     11  C   UNL     1       1.315   7.978  21.099  0.00  0.00    +0.000 A 
ATOM     12  C   UNL     1       0.880   9.105  20.410  0.00  0.00    +0.000 A 
ATOM     13  C   UNL     1       1.275   9.304  19.091  0.00  0.00    +0.000 A 
ATOM     14  C   UNL     1       2.097   8.371  18.453  0.00  0.00    +0.000 A 
ENDBRANCH   5   9
BRANCH   5  15
ATOM     15  C   UNL     1       2.572   4.716  18.381  0.00  0.00    +0.000 A 
ATOM     16  C   UNL     1       1.460   4.446  19.206  0.00  0.00    +0.000 A 
ATOM     17  C   UNL     1       0.866   3.183  19.230  0.00  0.00    +0.000 A 
ATOM     18  C   UNL     1       1.365   2.164  18.427  0.00  0.00    +0.000 A 
ATOM     19  C   UNL     1       2.447   2.413  17.585  0.00  0.00    +0.000 A 
ATOM     20  C   UNL     1       3.038   3.678  17.554  0.00  0.00    +0.000 A 
ENDBRANCH   5  15
BRANCH   1  21
ATOM     21  C   UNL     1       7.018   6.131  17.679  0.00  0.00    +0.000 C 
BRANCH  21  22
ATOM     22  C   UNL     1       7.501   4.755  17.209  0.00  0.00    +0.000 C 
BRANCH  22  23
ATOM     23  C   UNL     1       6.571   4.068  16.207  0.00  0.00    +0.000 C 
BRANCH  23  24
ATOM     24  CA  UNL     1       7.113   4.161  14.769  0.00  0.00    +0.000 C 
BRANCH  24  25
ATOM     25  N   UNL     1       7.658   5.506  14.421  0.00  0.00    +0.000 NA
ATOM     26  H1  UNL     1       7.777   6.046  15.284  0.00  0.00    +0.000 HD
ATOM     27  H2  UNL     1       6.938   6.021  13.903  0.00  0.00    +0.000 HD
ENDBRANCH  24  25
BRANCH  24  28
ATOM     28  C   UNL     1       6.033   3.821  13.728  0.00  0.00    +0.000 C 
ATOM     29  O   UNL     1       4.860   4.157  13.777  0.00  0.00    +0.000 OA
BRANCH  28  30
ATOM     30  OXT UNL     1       6.548   3.048  12.734  0.00  0.00    +0.000 OA
ATOM     31  HXT UNL     1       7.472   2.826  13.018  0.00  0.00    +0.000 HD
ENDBRANCH  28  30
ENDBRANCH  24  28
ENDBRANCH  23  24
ENDBRANCH  22  23
ENDBRANCH  21  22
ENDBRANCH   1  21
TORSDOF 9
ENDMDL
MODEL 4
REMARK VINA RESULT:      -7.9      2.553      4.705
REMARK  Name = 
REMARK  9 active torsions:
REMARK  status: ('A' for Active; 'I' for Inactive)
REMARK    1  A    between atoms: N_1  and  CA_2
REMARK    2  A    between atoms: CA_2  and  C_3
REMARK    3  A    between atoms: CA_2  and  C_25
REMARK    4  A    between atoms: C_3  and  C_4
REMARK    5  A    between atoms: C_4  and  C_5
REMARK    6  A    between atoms: C_5  and  N_6
REMARK    7  A    between atoms: C_10  and  C_11
REMARK    8  A    between atoms: C_10  and  C_17
REMARK    9  A    between atoms: C_25  and  OXT_27
REMARK                            x       y       z     vdW  Elec       q    Type
REMARK                         _______ _______ _______ _____ _____    ______ ____
ROOT
ATOM      1  N   UNL     1       3.894   4.955  18.144  0.00  0.00    +0.000 N 
ATOM      2  C   UNL     1       4.796   3.998  18.488  0.00  0.00    +0.000 C 
ATOM      3  O   UNL     1       4.639   3.016  19.195  0.00  0.00    +0.000 OA
ATOM      4  N   UNL     1       5.996   4.272  17.905  0.00  0.00    +0.000 N 
ATOM      5  C   UNL     1       5.960   5.406  17.011  0.00  0.00    +0.000 C 
ATOM      6  C   UNL     1       4.469   5.820  17.239  0.00  0.00    +0.000 C 
ATOM      7  O   UNL     1       3.893   6.764  16.702  0.00  0.00    +0.000 OA
ATOM      8  H   UNL     1       6.813   3.705  18.077  0.00  0.00    +0.000 HD
ENDROOT
BRANCH   5   9
ATOM      9  C   UNL     1       6.996   6.404  17.552  0.00  0.00    +0.000 A 
ATOM     10  C   UNL     1       7.754   6.100  18.702  0.00  0.00    +0.000 A 
ATOM     11  C   UNL     1       8.579   7.054  19.302  0.00  0.00    +0.000 A 
ATOM     12  C   UNL     1       8.652   8.340  18.776  0.00  0.00    +0.000 A 
ATOM     13  C   UNL     1       7.920   8.664  17.638  0.00  0.00    +0.000 A 
ATOM     14  C   UNL     1       7.104   7.707  17.028  0.00  0.00    +0.000 A 
ENDBRANCH   5   9
BRANCH   5  15
ATOM     15  C   UNL     1       6.165   4.964  15.551  0.00  0.00    +0.000 A 
ATOM     16  C   UNL     1       5.182   4.242  14.841  0.00  0.00    +0.000 A 
ATOM     17  C   UNL     1       5.405   3.811  13.532  0.00  0.00    +0.000 A 
ATOM     18  C   UNL     1       6.611   4.094  12.901  0.00  0.00    +0.000 A 
ATOM     19  C   UNL     1       7.588   4.826  13.573  0.00  0.00    +0.000 A 
ATOM     20  C   UNL     1       7.365   5.266  14.880  0.00  0.00    +0.000 A 
ENDBRANCH   5  15
BRANCH   1  21
ATOM     21  C   UNL     1       2.474   4.983  18.491  0.00  0.00    +0.000 C 
BRANCH  21  22
ATOM     22  C   UNL     1       2.196   5.137  19.989  0.00  0.00    +0.000 C 
BRANCH  22  23
ATOM     23  C   UNL     1       0.977   4.358  20.488  0.00  0.00    +0.000 C 
BRANCH  23  24
ATOM     24  CA  UNL     1       1.268   2.850  20.594  0.00  0.00    +0.000 C 
BRANCH  24  25
ATOM     25  N   UNL     1       2.618   2.539  21.150  0.00  0.00    +0.000 NA
ATOM     26  H1  UNL     1       3.309   3.141  20.691  0.00  0.00    +0.000 HD
ATOM     27  H2  UNL     1       2.878   1.591  20.853  0.00  0.00    +0.000 HD
ENDBRANCH  24  25
BRANCH  24  28
ATOM     28  C   UNL     1       1.163   2.150  19.227  0.00  0.00    +0.000 C 
ATOM     29  O   UNL     1       0.196   2.176  18.482  0.00  0.00    +0.000 OA
BRANCH  28  30
ATOM     30  OXT UNL     1       2.298   1.451  18.956  0.00  0.00    +0.000 OA
ATOM     31  HXT UNL     1       2.243   0.625  19.503  0.00  0.00    +0.000 HD
ENDBRANCH  28  30
ENDBRANCH  24  28
ENDBRANCH  23  24
ENDBRANCH  22  23
ENDBRANCH  21  22
ENDBRANCH   1  21
TORSDOF 9
ENDMDL
MODEL 5
REMARK VINA RESULT:      -7.8      3.224      5.442
REMARK  Name = 
REMARK  9 active torsions:
REMARK  status: ('A' for Active; 'I' for Inactive)
REMARK    1  A    between atoms: N_1  and  CA_2
REMARK    2  A    between atoms: CA_2  and  C_3
REMARK    3  A    between atoms: CA_2  and  C_25
REMARK    4  A    between atoms: C_3  and  C_4
REMARK    5  A    between atoms: C_4  and  C_5
REMARK    6  A    between atoms: C_5  and  N_6
REMARK    7  A    between atoms: C_10  and  C_11
REMARK    8  A    between atoms: C_10  and  C_17
REMARK    9  A    between atoms: C_25  and  OXT_27
REMARK                            x       y       z     vdW  Elec       q    Type
REMARK                         _______ _______ _______ _____ _____    ______ ____
ROOT
ATOM      1  N   UNL     1       5.430   4.230  17.392  0.00  0.00    +0.000 N 
ATOM      2  C   UNL     1       5.987   4.648  18.560  0.00  0.00    +0.000 C 
ATOM      3  O   UNL     1       7.166   4.714  18.867  0.00  0.00    +0.000 OA
ATOM      4  N   UNL     1       5.004   5.020  19.426  0.00  0.00    +0.000 N 
ATOM      5  C   UNL     1       3.680   4.985  18.848  0.00  0.00    +0.000 C 
ATOM      6  C   UNL     1       4.068   4.424  17.441  0.00  0.00    +0.000 C 
ATOM      7  O   UNL     1       3.289   4.191  16.519  0.00  0.00    +0.000 OA
ATOM      8  H   UNL     1       5.209   5.316  20.369  0.00  0.00    +0.000 HD
ENDROOT
BRANCH   5   9
ATOM      9  C   UNL     1       2.863   4.022  19.724  0.00  0.00    +0.000 A 
ATOM     10  C   UNL     1       1.461   3.944  19.591  0.00  0.00    +0.000 A 
ATOM     11  C   UNL     1       0.687   3.198  20.484  0.00  0.00    +0.000 A 
ATOM     12  C   UNL     1       1.295   2.529  21.541  0.00  0.00    +0.000 A 
ATOM     13  C   UNL     1       2.677   2.584  21.691  0.00  0.00    +0.000 A 
ATOM     14  C   UNL     1       3.455   3.318  20.791  0.00  0.00    +0.000 A 
ENDBRANCH   5   9
BRANCH   5  15
ATOM     15  C   UNL     1       3.102   6.405  18.707  0.00  0.00    +0.000 A 
ATOM     16  C   UNL     1       2.291   6.987  19.704  0.00  0.00    +0.000 A 
ATOM     17  C   UNL     1       1.739   8.258  19.539  0.00  0.00    +0.000 A 
ATOM     18  C   UNL     1       1.988   8.979  18.376  0.00  0.00    +0.000 A 
ATOM     19  C   UNL     1       2.806   8.436  17.387  0.00  0.00    +0.000 A 
ATOM     20  C   UNL     1       3.365   7.167  17.554  0.00  0.00    +0.000 A 
ENDBRANCH   5  15
BRANCH   1  21
ATOM     21  C   UNL     1       6.142   3.828  16.180  0.00  0.00    +0.000 C 
BRANCH  21  22
ATOM     22  C   UNL     1       6.153   4.891  15.077  0.00  0.00    +0.000 C 
BRANCH  22  23
ATOM     23  C   UNL     1       5.397   4.492  13.808  0.00  0.00    +0.000 C 
BRANCH  23  24
ATOM     24  CA  UNL     1       6.260   3.616  12.881  0.00  0.00    +0.000 C 
BRANCH  24  25
ATOM     25  N   UNL     1       7.252   4.391  12.079  0.00  0.00    +0.000 NA
ATOM     26  H1  UNL     1       6.951   4.397  11.100  0.00  0.00    +0.000 HD
ATOM     27  H2  UNL     1       8.134   3.867  12.065  0.00  0.00    +0.000 HD
ENDBRANCH  24  25
BRANCH  24  28
ATOM     28  C   UNL     1       5.399   2.811  11.891  0.00  0.00    +0.000 C 
ATOM     29  O   UNL     1       4.342   3.175  11.401  0.00  0.00    +0.000 OA
BRANCH  28  30
ATOM     30  OXT UNL     1       5.957   1.595  11.647  0.00  0.00    +0.000 OA
ATOM     31  HXT UNL     1       6.662   1.753  10.968  0.00  0.00    +0.000 HD
ENDBRANCH  28  30
ENDBRANCH  24  28
ENDBRANCH  23  24
ENDBRANCH  22  23
ENDBRANCH  21  22
ENDBRANCH   1  21
TORSDOF 9
ENDMDL
MODEL 6
REMARK VINA RESULT:      -7.8      2.750      4.819
REMARK  Name = 
REMARK  9 active torsions:
REMARK  status: ('A' for Active; 'I' for Inactive)
REMARK    1  A    between atoms: N_1  and  CA_2
REMARK    2  A    between atoms: CA_2  and  C_3
REMARK    3  A    between atoms: CA_2  and  C_25
REMARK    4  A    between atoms: C_3  and  C_4
REMARK    5  A    between atoms: C_4  and  C_5
REMARK    6  A    between atoms: C_5  and  N_6
REMARK    7  A    between atoms: C_10  and  C_11
REMARK    8  A    between atoms: C_10  and  C_17
REMARK    9  A    between atoms: C_25  and  OXT_27
REMARK                            x       y       z     vdW  Elec       q    Type
REMARK                         _______ _______ _______ _____ _____    ______ ____
ROOT
ATOM      1  N   UNL     1       5.575   6.292  17.676  0.00  0.00    +0.000 N 
ATOM      2  C   UNL     1       4.769   6.587  16.622  0.00  0.00    +0.000 C 
ATOM      3  O   UNL     1       5.079   6.855  15.473  0.00  0.00    +0.000 OA
ATOM      4  N   UNL     1       3.467   6.542  17.017  0.00  0.00    +0.000 N 
ATOM      5  C   UNL     1       3.290   6.092  18.379  0.00  0.00    +0.000 C 
ATOM      6  C   UNL     1       4.800   5.945  18.761  0.00  0.00    +0.000 C 
ATOM      7  O   UNL     1       5.234   5.579  19.851  0.00  0.00    +0.000 OA
ATOM      8  H   UNL     1       2.711   6.779  16.390  0.00  0.00    +0.000 HD
ENDROOT
BRANCH   5   9
ATOM      9  C   UNL     1       2.548   7.226  19.105  0.00  0.00    +0.000 A 
ATOM     10  C   UNL     1       2.135   7.072  20.444  0.00  0.00    +0.000 A 
ATOM     11  C   UNL     1       1.322   8.022  21.067  0.00  0.00    +0.000 A 
ATOM     12  C   UNL     1       0.888   9.138  20.359  0.00  0.00    +0.000 A 
ATOM     13  C   UNL     1       1.286   9.317  19.039  0.00  0.00    +0.000 A 
ATOM     14  C   UNL     1       2.111   8.375  18.417  0.00  0.00    +0.000 A 
ENDBRANCH   5   9
BRANCH   5  15
ATOM     15  C   UNL     1       2.600   4.716  18.420  0.00  0.00    +0.000 A 
ATOM     16  C   UNL     1       2.967   3.668  17.550  0.00  0.00    +0.000 A 
ATOM     17  C   UNL     1       2.300   2.442  17.573  0.00  0.00    +0.000 A 
ATOM     18  C   UNL     1       1.255   2.234  18.467  0.00  0.00    +0.000 A 
ATOM     19  C   UNL     1       0.891   3.245  19.353  0.00  0.00    +0.000 A 
ATOM     20  C   UNL     1       1.563   4.471  19.338  0.00  0.00    +0.000 A 
ENDBRANCH   5  15
BRANCH   1  21
ATOM     21  C   UNL     1       7.030   6.151  17.652  0.00  0.00    +0.000 C 
BRANCH  21  22
ATOM     22  C   UNL     1       7.521   4.766  17.220  0.00  0.00    +0.000 C 
BRANCH  22  23
ATOM     23  C   UNL     1       6.621   4.070  16.196  0.00  0.00    +0.000 C 
BRANCH  23  24
ATOM     24  CA  UNL     1       7.188   4.181  14.769  0.00  0.00    +0.000 C 
BRANCH  24  25
ATOM     25  N   UNL     1       7.762   5.523  14.457  0.00  0.00    +0.000 NA
ATOM     26  H1  UNL     1       7.228   5.938  13.686  0.00  0.00    +0.000 HD
ATOM     27  H2  UNL     1       8.701   5.389  14.065  0.00  0.00    +0.000 HD
ENDBRANCH  24  25
BRANCH  24  28
ATOM     28  C   UNL     1       6.119   3.881  13.704  0.00  0.00    +0.000 C 
ATOM     29  O   UNL     1       6.325   3.412  12.595  0.00  0.00    +0.000 OA
BRANCH  28  30
ATOM     30  OXT UNL     1       4.885   4.243  14.146  0.00  0.00    +0.000 OA
ATOM     31  HXT UNL     1       4.364   4.472  13.334  0.00  0.00    +0.000 HD
ENDBRANCH  28  30
ENDBRANCH  24  28
ENDBRANCH  23  24
ENDBRANCH  22  23
ENDBRANCH  21  22
ENDBRANCH   1  21
TORSDOF 9
ENDMDL
MODEL 7
REMARK VINA RESULT:      -7.8      2.754      5.490
REMARK  Name = 
REMARK  9 active torsions:
REMARK  status: ('A' for Active; 'I' for Inactive)
REMARK    1  A    between atoms: N_1  and  CA_2
REMARK    2  A    between atoms: CA_2  and  C_3
REMARK    3  A    between atoms: CA_2  and  C_25
REMARK    4  A    between atoms: C_3  and  C_4
REMARK    5  A    between atoms: C_4  and  C_5
REMARK    6  A    between atoms: C_5  and  N_6
REMARK    7  A    between atoms: C_10  and  C_11
REMARK    8  A    between atoms: C_10  and  C_17
REMARK    9  A    between atoms: C_25  and  OXT_27
REMARK                            x       y       z     vdW  Elec       q    Type
REMARK                         _______ _______ _______ _____ _____    ______ ____
ROOT
ATOM      1  N   UNL     1       5.959   5.734  17.805  0.00  0.00    +0.000 N 
ATOM      2  C   UNL     1       5.965   5.485  19.142  0.00  0.00    +0.000 C 
ATOM      3  O   UNL     1       6.916   5.409  19.902  0.00  0.00    +0.000 OA
ATOM      4  N   UNL     1       4.686   5.320  19.581  0.00  0.00    +0.000 N 
ATOM      5  C   UNL     1       3.689   5.563  18.564  0.00  0.00    +0.000 C 
ATOM      6  C   UNL     1       4.657   5.839  17.367  0.00  0.00    +0.000 C 
ATOM      7  O   UNL     1       4.320   6.108  16.215  0.00  0.00    +0.000 OA
ATOM      8  H   UNL     1       4.479   5.079  20.539  0.00  0.00    +0.000 HD
ENDROOT
BRANCH   5   9
ATOM      9  C   UNL     1       2.877   4.263  18.451  0.00  0.00    +0.000 A 
ATOM     10  C   UNL     1       1.506   4.241  18.779  0.00  0.00    +0.000 A 
ATOM     11  C   UNL     1       0.792   3.041  18.838  0.00  0.00    +0.000 A 
ATOM     12  C   UNL     1       1.437   1.835  18.589  0.00  0.00    +0.000 A 
ATOM     13  C   UNL     1       2.788   1.829  18.257  0.00  0.00    +0.000 A 
ATOM     14  C   UNL     1       3.501   3.029  18.183  0.00  0.00    +0.000 A 
ENDBRANCH   5   9
BRANCH   5  15
ATOM     15  C   UNL     1       2.873   6.829  18.883  0.00  0.00    +0.000 A 
ATOM     16  C   UNL     1       2.296   7.049  20.151  0.00  0.00    +0.000 A 
ATOM     17  C   UNL     1       1.522   8.181  20.408  0.00  0.00    +0.000 A 
ATOM     18  C   UNL     1       1.309   9.121  19.405  0.00  0.00    +0.000 A 
ATOM     19  C   UNL     1       1.888   8.939  18.152  0.00  0.00    +0.000 A 
ATOM     20  C   UNL     1       2.670   7.810  17.895  0.00  0.00    +0.000 A 
ENDBRANCH   5  15
BRANCH   1  21
ATOM     21  C   UNL     1       7.115   6.050  16.969  0.00  0.00    +0.000 C 
BRANCH  21  22
ATOM     22  C   UNL     1       7.568   4.901  16.063  0.00  0.00    +0.000 C 
BRANCH  22  23
ATOM     23  C   UNL     1       7.141   5.046  14.600  0.00  0.00    +0.000 C 
BRANCH  23  24
ATOM     24  CA  UNL     1       5.944   4.140  14.263  0.00  0.00    +0.000 C 
BRANCH  24  25
ATOM     25  N   UNL     1       5.823   2.951  15.158  0.00  0.00    +0.000 NA
ATOM     26  H1  UNL     1       5.180   2.279  14.727  0.00  0.00    +0.000 HD
ATOM     27  H2  UNL     1       5.340   3.242  16.016  0.00  0.00    +0.000 HD
ENDBRANCH  24  25
BRANCH  24  28
ATOM     28  C   UNL     1       6.010   3.619  12.817  0.00  0.00    +0.000 C 
ATOM     29  O   UNL     1       7.028   3.436  12.168  0.00  0.00    +0.000 OA
BRANCH  28  30
ATOM     30  OXT UNL     1       4.760   3.413  12.321  0.00  0.00    +0.000 OA
ATOM     31  HXT UNL     1       4.251   4.241  12.521  0.00  0.00    +0.000 HD
ENDBRANCH  28  30
ENDBRANCH  24  28
ENDBRANCH  23  24
ENDBRANCH  22  23
ENDBRANCH  21  22
ENDBRANCH   1  21
TORSDOF 9
ENDMDL
MODEL 8
REMARK VINA RESULT:      -7.8      2.962      5.589
REMARK  Name = 
REMARK  9 active torsions:
REMARK  status: ('A' for Active; 'I' for Inactive)
REMARK    1  A    between atoms: N_1  and  CA_2
REMARK    2  A    between atoms: CA_2  and  C_3
REMARK    3  A    between atoms: CA_2  and  C_25
REMARK    4  A    between atoms: C_3  and  C_4
REMARK    5  A    between atoms: C_4  and  C_5
REMARK    6  A    between atoms: C_5  and  N_6
REMARK    7  A    between atoms: C_10  and  C_11
REMARK    8  A    between atoms: C_10  and  C_17
REMARK    9  A    between atoms: C_25  and  OXT_27
REMARK                            x       y       z     vdW  Elec       q    Type
REMARK                         _______ _______ _______ _____ _____    ______ ____
ROOT
ATOM      1  N   UNL     1       6.024   5.580  17.896  0.00  0.00    +0.000 N 
ATOM      2  C   UNL     1       6.040   5.539  19.255  0.00  0.00    +0.000 C 
ATOM      3  O   UNL     1       6.997   5.580  20.011  0.00  0.00    +0.000 OA
ATOM      4  N   UNL     1       4.765   5.446  19.723  0.00  0.00    +0.000 N 
ATOM      5  C   UNL     1       3.760   5.532  18.689  0.00  0.00    +0.000 C 
ATOM      6  C   UNL     1       4.720   5.619  17.456  0.00  0.00    +0.000 C 
ATOM      7  O   UNL     1       4.374   5.708  16.279  0.00  0.00    +0.000 OA
ATOM      8  H   UNL     1       4.565   5.355  20.709  0.00  0.00    +0.000 HD
ENDROOT
BRANCH   5   9
ATOM      9  C   UNL     1       2.947   4.231  18.782  0.00  0.00    +0.000 A 
ATOM     10  C   UNL     1       1.812   4.033  17.968  0.00  0.00    +0.000 A 
ATOM     11  C   UNL     1       0.970   2.934  18.152  0.00  0.00    +0.000 A 
ATOM     12  C   UNL     1       1.231   2.018  19.166  0.00  0.00    +0.000 A 
ATOM     13  C   UNL     1       2.348   2.187  19.979  0.00  0.00    +0.000 A 
ATOM     14  C   UNL     1       3.200   3.278  19.788  0.00  0.00    +0.000 A 
ENDBRANCH   5   9
BRANCH   5  15
ATOM     15  C   UNL     1       2.947   6.833  18.815  0.00  0.00    +0.000 A 
ATOM     16  C   UNL     1       2.915   7.799  17.788  0.00  0.00    +0.000 A 
ATOM     17  C   UNL     1       2.207   8.993  17.939  0.00  0.00    +0.000 A 
ATOM     18  C   UNL     1       1.513   9.247  19.118  0.00  0.00    +0.000 A 
ATOM     19  C   UNL     1       1.510   8.297  20.137  0.00  0.00    +0.000 A 
ATOM     20  C   UNL     1       2.211   7.098  19.985  0.00  0.00    +0.000 A 
ENDBRANCH   5  15
BRANCH   1  21
ATOM     21  C   UNL     1       7.175   5.762  17.013  0.00  0.00    +0.000 C 
BRANCH  21  22
ATOM     22  C   UNL     1       7.432   4.585  16.066  0.00  0.00    +0.000 C 
BRANCH  22  23
ATOM     23  C   UNL     1       7.331   4.938  14.580  0.00  0.00    +0.000 C 
BRANCH  23  24
ATOM     24  CA  UNL     1       6.150   4.219  13.902  0.00  0.00    +0.000 C 
BRANCH  24  25
ATOM     25  N   UNL     1       5.596   3.091  14.707  0.00  0.00    +0.000 NA
ATOM     26  H1  UNL     1       4.608   3.282  14.905  0.00  0.00    +0.000 HD
ATOM     27  H2  UNL     1       6.042   3.104  15.631  0.00  0.00    +0.000 HD
ENDBRANCH  24  25
BRANCH  24  28
ATOM     28  C   UNL     1       6.540   3.652  12.526  0.00  0.00    +0.000 C 
ATOM     29  O   UNL     1       7.299   4.175  11.725  0.00  0.00    +0.000 OA
BRANCH  28  30
ATOM     30  OXT UNL     1       5.892   2.480  12.287  0.00  0.00    +0.000 OA
ATOM     31  HXT UNL     1       6.574   1.769  12.391  0.00  0.00    +0.000 HD
ENDBRANCH  28  30
ENDBRANCH  24  28
ENDBRANCH  23  24
ENDBRANCH  22  23
ENDBRANCH  21  22
ENDBRANCH   1  21
TORSDOF 9
ENDMDL
MODEL 9
REMARK VINA RESULT:      -7.8      3.037      5.510
REMARK  Name = 
REMARK  9 active torsions:
REMARK  status: ('A' for Active; 'I' for Inactive)
REMARK    1  A    between atoms: N_1  and  CA_2
REMARK    2  A    between atoms: CA_2  and  C_3
REMARK    3  A    between atoms: CA_2  and  C_25
REMARK    4  A    between atoms: C_3  and  C_4
REMARK    5  A    between atoms: C_4  and  C_5
REMARK    6  A    between atoms: C_5  and  N_6
REMARK    7  A    between atoms: C_10  and  C_11
REMARK    8  A    between atoms: C_10  and  C_17
REMARK    9  A    between atoms: C_25  and  OXT_27
REMARK                            x       y       z     vdW  Elec       q    Type
REMARK                         _______ _______ _______ _____ _____    ______ ____
ROOT
ATOM      1  N   UNL     1       5.679   4.764  17.990  0.00  0.00    +0.000 N 
ATOM      2  C   UNL     1       5.972   5.189  19.248  0.00  0.00    +0.000 C 
ATOM      3  O   UNL     1       7.065   5.360  19.764  0.00  0.00    +0.000 OA
ATOM      4  N   UNL     1       4.818   5.431  19.928  0.00  0.00    +0.000 N 
ATOM      5  C   UNL     1       3.629   5.289  19.120  0.00  0.00    +0.000 C 
ATOM      6  C   UNL     1       4.318   4.822  17.795  0.00  0.00    +0.000 C 
ATOM      7  O   UNL     1       3.743   4.548  16.743  0.00  0.00    +0.000 OA
ATOM      8  H   UNL     1       4.820   5.710  20.899  0.00  0.00    +0.000 HD
ENDROOT
BRANCH   5   9
ATOM      9  C   UNL     1       2.772   4.218  19.814  0.00  0.00    +0.000 A 
ATOM     10  C   UNL     1       1.615   3.708  19.190  0.00  0.00    +0.000 A 
ATOM     11  C   UNL     1       0.738   2.858  19.869  0.00  0.00    +0.000 A 
ATOM     12  C   UNL     1       0.989   2.513  21.193  0.00  0.00    +0.000 A 
ATOM     13  C   UNL     1       2.127   2.998  21.829  0.00  0.00    +0.000 A 
ATOM     14  C   UNL     1       3.013   3.837  21.148  0.00  0.00    +0.000 A 
ENDBRANCH   5   9
BRANCH   5  15
ATOM     15  C   UNL     1       2.942   6.650  18.904  0.00  0.00    +0.000 A 
ATOM     16  C   UNL     1       3.113   7.396  17.719  0.00  0.00    +0.000 A 
ATOM     17  C   UNL     1       2.517   8.648  17.560  0.00  0.00    +0.000 A 
ATOM     18  C   UNL     1       1.735   9.182  18.579  0.00  0.00    +0.000 A 
ATOM     19  C   UNL     1       1.532   8.453  19.749  0.00  0.00    +0.000 A 
ATOM     20  C   UNL     1       2.120   7.196  19.907  0.00  0.00    +0.000 A 
ENDBRANCH   5  15
BRANCH   1  21
ATOM     21  C   UNL     1       6.633   4.480  16.919  0.00  0.00    +0.000 C 
BRANCH  21  22
ATOM     22  C   UNL     1       6.688   5.552  15.826  0.00  0.00    +0.000 C 
BRANCH  22  23
ATOM     23  C   UNL     1       6.075   5.123  14.491  0.00  0.00    +0.000 C 
BRANCH  23  24
ATOM     24  CA  UNL     1       7.128   4.503  13.554  0.00  0.00    +0.000 C 
BRANCH  24  25
ATOM     25  N   UNL     1       7.951   5.514  12.827  0.00  0.00    +0.000 NA
ATOM     26  H1  UNL     1       8.379   6.144  13.512  0.00  0.00    +0.000 HD
ATOM     27  H2  UNL     1       7.318   6.121  12.293  0.00  0.00    +0.000 HD
ENDBRANCH  24  25
BRANCH  24  28
ATOM     28  C   UNL     1       6.484   3.590  12.496  0.00  0.00    +0.000 C 
ATOM     29  O   UNL     1       7.081   2.930  11.660  0.00  0.00    +0.000 OA
BRANCH  28  30
ATOM     30  OXT UNL     1       5.127   3.634  12.584  0.00  0.00    +0.000 OA
ATOM     31  HXT UNL     1       4.791   3.030  11.873  0.00  0.00    +0.000 HD
ENDBRANCH  28  30
ENDBRANCH  24  28
ENDBRANCH  23  24
ENDBRANCH  22  23
ENDBRANCH  21  22
ENDBRANCH   1  21
TORSDOF 9
ENDMDL
