MODEL 1
REMARK VINA RESULT:      -8.7      0.000      0.000
REMARK  Name = 
REMARK  8 active torsions:
REMARK  status: ('A' for Active; 'I' for Inactive)
REMARK    1  A    between atoms: C_1  and  C_2
REMARK    2  A    between atoms: C_5  and  S_6
REMARK    3  A    between atoms: S_6  and  N_9
REMARK    4  A    between atoms: N_9  and  C_10
REMARK    5  A    between atoms: C_13  and  C_14
REMARK    6  A    between atoms: C_14  and  C_16
REMARK    7  A    between atoms: C_17  and  C_18
REMARK    8  A    between atoms: C_21  and  C_22
REMARK                            x       y       z     vdW  Elec       q    Type
REMARK                         _______ _______ _______ _____ _____    ______ ____
ROOT
ATOM      1  C   UNL     1       2.834   6.028  18.907  0.00  0.00    +0.000 A 
ATOM      2  C   UNL     1       2.151   6.581  19.985  0.00  0.00    +0.000 A 
ATOM      3  C   UNL     1       1.707   7.909  19.933  0.00  0.00    +0.000 A 
ATOM      4  C   UNL     1       1.929   8.706  18.798  0.00  0.00    +0.000 A 
ATOM      5  C   UNL     1       2.616   8.135  17.717  0.00  0.00    +0.000 A 
ATOM      6  C   UNL     1       3.057   6.801  17.767  0.00  0.00    +0.000 A 
ENDROOT
BRANCH   1   7
ATOM      7  N   UNL     1       3.313   4.681  18.955  0.00  0.00    +0.000 N 
ATOM      8  H   UNL     1       2.760   4.045  19.514  0.00  0.00    +0.000 HD
BRANCH   7   9
ATOM      9  S   UNL     1       4.993   4.441  19.106  0.00  0.00    +0.000 S 
ATOM     10  O   UNL     1       5.224   3.139  19.666  0.00  0.00    +0.000 OA
ATOM     11  O   UNL     1       5.547   5.640  19.726  0.00  0.00    +0.000 OA
BRANCH   9  16
ATOM     12  C   UNL     1       6.875   4.442  13.325  0.00  0.00    +0.000 C 
ATOM     13  C   UNL     1       6.417   4.433  14.754  0.00  0.00    +0.000 A 
ATOM     14  C   UNL     1       5.119   4.033  15.090  0.00  0.00    +0.000 A 
ATOM     15  C   UNL     1       4.704   4.041  16.420  0.00  0.00    +0.000 A 
ATOM     16  C   UNL     1       5.593   4.430  17.428  0.00  0.00    +0.000 A 
ATOM     17  C   UNL     1       6.888   4.840  17.109  0.00  0.00    +0.000 A 
ATOM     18  C   UNL     1       7.296   4.832  15.770  0.00  0.00    +0.000 A 
ENDBRANCH   9  16
ENDBRANCH   7   9
ENDBRANCH   1   7
BRANCH   4  19
ATOM     19  C   UNL     1       1.485  10.142  18.702  0.00  0.00    +0.000 C 
ATOM     20  O   UNL     1       2.165  10.972  18.122  0.00  0.00    +0.000 OA
BRANCH  19  21
ATOM     21  C   UNL     1       0.166  10.495  19.327  0.00  0.00    +0.000 C 
ATOM     22  C   UNL     1      -0.350  11.734  19.332  0.00  0.00    +0.000 C 
BRANCH  22  23
ATOM     23  C   UNL     1      -1.640  12.053  19.980  0.00  0.00    +0.000 A 
ATOM     24  C   UNL     1      -1.680  12.252  21.364  0.00  0.00    +0.000 A 
ATOM     25  C   UNL     1      -2.891  12.524  22.016  0.00  0.00    +0.000 A 
ATOM     26  C   UNL     1      -4.099  12.617  21.308  0.00  0.00    +0.000 A 
ATOM     27  C   UNL     1      -4.048  12.459  19.919  0.00  0.00    +0.000 A 
ATOM     28  C   UNL     1      -2.843  12.179  19.267  0.00  0.00    +0.000 A 
BRANCH  26  29
ATOM     29  C   UNL     1      -5.383  12.805  22.004  0.00  0.00    +0.000 A 
ATOM     30  C   UNL     1      -6.607  12.727  21.320  0.00  0.00    +0.000 A 
ATOM     31  C   UNL     1      -7.810  13.009  21.970  0.00  0.00    +0.000 A 
ATOM     32  C   UNL     1      -7.810  13.353  23.317  0.00  0.00    +0.000 A 
ATOM     33  C   UNL     1      -6.612  13.401  24.025  0.00  0.00    +0.000 A 
ATOM     34  C   UNL     1      -5.411  13.126  23.373  0.00  0.00    +0.000 A 
ENDBRANCH  26  29
ENDBRANCH  22  23
ENDBRANCH  19  21
ENDBRANCH   4  19
TORSDOF 7
ENDMDL
MODEL 2
REMARK VINA RESULT:      -8.6      5.549     10.041
REMARK  Name = 
REMARK  8 active torsions:
REMARK  status: ('A' for Active; 'I' for Inactive)
REMARK    1  A    between atoms: C_1  and  C_2
REMARK    2  A    between atoms: C_5  and  S_6
REMARK    3  A    between atoms: S_6  and  N_9
REMARK    4  A    between atoms: N_9  and  C_10
REMARK    5  A    between atoms: C_13  and  C_14
REMARK    6  A    between atoms: C_14  and  C_16
REMARK    7  A    between atoms: C_17  and  C_18
REMARK    8  A    between atoms: C_21  and  C_22
REMARK                            x       y       z     vdW  Elec       q    Type
REMARK                         _______ _______ _______ _____ _____    ______ ____
ROOT
ATOM      1  C   UNL     1       4.632   3.730  18.826  0.00  0.00    +0.000 A 
ATOM      2  C   UNL     1       4.764   3.776  17.443  0.00  0.00    +0.000 A 
ATOM      3  C   UNL     1       5.645   4.688  16.848  0.00  0.00    +0.000 A 
ATOM      4  C   UNL     1       6.419   5.566  17.627  0.00  0.00    +0.000 A 
ATOM      5  C   UNL     1       6.278   5.506  19.021  0.00  0.00    +0.000 A 
ATOM      6  C   UNL     1       5.397   4.587  19.617  0.00  0.00    +0.000 A 
ENDROOT
BRANCH   1   7
ATOM      7  N   UNL     1       3.718   2.819  19.446  0.00  0.00    +0.000 N 
ATOM      8  H   UNL     1       3.927   1.839  19.311  0.00  0.00    +0.000 HD
BRANCH   7   9
ATOM      9  S   UNL     1       2.056   3.184  19.364  0.00  0.00    +0.000 S 
ATOM     10  O   UNL     1       1.440   2.803  20.604  0.00  0.00    +0.000 OA
ATOM     11  O   UNL     1       1.564   2.676  18.088  0.00  0.00    +0.000 OA
BRANCH   9  16
ATOM     12  C   UNL     1       1.934   9.258  19.120  0.00  0.00    +0.000 C 
ATOM     13  C   UNL     1       1.953   7.758  19.176  0.00  0.00    +0.000 A 
ATOM     14  C   UNL     1       1.849   7.083  20.397  0.00  0.00    +0.000 A 
ATOM     15  C   UNL     1       1.881   5.690  20.434  0.00  0.00    +0.000 A 
ATOM     16  C   UNL     1       1.997   4.961  19.246  0.00  0.00    +0.000 A 
ATOM     17  C   UNL     1       2.111   5.619  18.020  0.00  0.00    +0.000 A 
ATOM     18  C   UNL     1       2.082   7.018  17.992  0.00  0.00    +0.000 A 
ENDBRANCH   9  16
ENDBRANCH   7   9
ENDBRANCH   1   7
BRANCH   4  19
ATOM     19  C   UNL     1       7.368   6.574  17.033  0.00  0.00    +0.000 C 
ATOM     20  O   UNL     1       7.867   6.393  15.934  0.00  0.00    +0.000 OA
BRANCH  19  21
ATOM     21  C   UNL     1       7.647   7.810  17.837  0.00  0.00    +0.000 C 
ATOM     22  C   UNL     1       8.402   8.830  17.401  0.00  0.00    +0.000 C 
BRANCH  22  23
ATOM     23  C   UNL     1       8.680  10.023  18.229  0.00  0.00    +0.000 A 
ATOM     24  C   UNL     1       8.471  11.296  17.688  0.00  0.00    +0.000 A 
ATOM     25  C   UNL     1       8.755  12.449  18.433  0.00  0.00    +0.000 A 
ATOM     26  C   UNL     1       9.246  12.369  19.746  0.00  0.00    +0.000 A 
ATOM     27  C   UNL     1       9.413  11.095  20.297  0.00  0.00    +0.000 A 
ATOM     28  C   UNL     1       9.140   9.943  19.553  0.00  0.00    +0.000 A 
BRANCH  26  29
ATOM     29  C   UNL     1       9.636  13.577  20.492  0.00  0.00    +0.000 A 
ATOM     30  C   UNL     1       9.643  13.602  21.896  0.00  0.00    +0.000 A 
ATOM     31  C   UNL     1       9.915  14.782  22.591  0.00  0.00    +0.000 A 
ATOM     32  C   UNL     1      10.203  15.950  21.894  0.00  0.00    +0.000 A 
ATOM     33  C   UNL     1      10.238  15.941  20.501  0.00  0.00    +0.000 A 
ATOM     34  C   UNL     1       9.959  14.764  19.810  0.00  0.00    +0.000 A 
ENDBRANCH  26  29
ENDBRANCH  22  23
ENDBRANCH  19  21
ENDBRANCH   4  19
TORSDOF 7
ENDMDL
MODEL 3
REMARK VINA RESULT:      -8.6      0.565      1.492
REMARK  Name = 
REMARK  8 active torsions:
REMARK  status: ('A' for Active; 'I' for Inactive)
REMARK    1  A    between atoms: C_1  and  C_2
REMARK    2  A    between atoms: C_5  and  S_6
REMARK    3  A    between atoms: S_6  and  N_9
REMARK    4  A    between atoms: N_9  and  C_10
REMARK    5  A    between atoms: C_13  and  C_14
REMARK    6  A    between atoms: C_14  and  C_16
REMARK    7  A    between atoms: C_17  and  C_18
REMARK    8  A    between atoms: C_21  and  C_22
REMARK                            x       y       z     vdW  Elec       q    Type
REMARK                         _______ _______ _______ _____ _____    ______ ____
ROOT
ATOM      1  C   UNL     1       2.721   6.104  18.983  0.00  0.00    +0.000 A 
ATOM      2  C   UNL     1       2.091   6.695  20.072  0.00  0.00    +0.000 A 
ATOM      3  C   UNL     1       1.675   8.031  20.009  0.00  0.00    +0.000 A 
ATOM      4  C   UNL     1       1.875   8.800  18.850  0.00  0.00    +0.000 A 
ATOM      5  C   UNL     1       2.510   8.191  17.757  0.00  0.00    +0.000 A 
ATOM      6  C   UNL     1       2.921   6.848  17.820  0.00  0.00    +0.000 A 
ENDROOT
BRANCH   1   7
ATOM      7  N   UNL     1       3.172   4.747  19.043  0.00  0.00    +0.000 N 
ATOM      8  H   UNL     1       2.618   4.133  19.626  0.00  0.00    +0.000 HD
BRANCH   7   9
ATOM      9  S   UNL     1       4.849   4.472  19.157  0.00  0.00    +0.000 S 
ATOM     10  O   UNL     1       5.064   3.157  19.693  0.00  0.00    +0.000 OA
ATOM     11  O   UNL     1       5.439   5.650  19.783  0.00  0.00    +0.000 OA
BRANCH   9  16
ATOM     12  C   UNL     1       6.946   4.455  13.450  0.00  0.00    +0.000 C 
ATOM     13  C   UNL     1       6.421   4.468  14.856  0.00  0.00    +0.000 A 
ATOM     14  C   UNL     1       7.181   5.001  15.902  0.00  0.00    +0.000 A 
ATOM     15  C   UNL     1       6.686   4.995  17.204  0.00  0.00    +0.000 A 
ATOM     16  C   UNL     1       5.414   4.473  17.467  0.00  0.00    +0.000 A 
ATOM     17  C   UNL     1       4.647   3.929  16.436  0.00  0.00    +0.000 A 
ATOM     18  C   UNL     1       5.154   3.936  15.131  0.00  0.00    +0.000 A 
ENDBRANCH   9  16
ENDBRANCH   7   9
ENDBRANCH   1   7
BRANCH   4  19
ATOM     19  C   UNL     1       1.460  10.244  18.740  0.00  0.00    +0.000 C 
ATOM     20  O   UNL     1       2.162  11.056  18.160  0.00  0.00    +0.000 OA
BRANCH  19  21
ATOM     21  C   UNL     1       0.143  10.628  19.349  0.00  0.00    +0.000 C 
ATOM     22  C   UNL     1      -0.023  11.677  20.169  0.00  0.00    +0.000 C 
BRANCH  22  23
ATOM     23  C   UNL     1      -1.329  12.012  20.775  0.00  0.00    +0.000 A 
ATOM     24  C   UNL     1      -2.386  12.407  19.947  0.00  0.00    +0.000 A 
ATOM     25  C   UNL     1      -3.629  12.763  20.490  0.00  0.00    +0.000 A 
ATOM     26  C   UNL     1      -3.861  12.728  21.874  0.00  0.00    +0.000 A 
ATOM     27  C   UNL     1      -2.815  12.292  22.693  0.00  0.00    +0.000 A 
ATOM     28  C   UNL     1      -1.571  11.945  22.156  0.00  0.00    +0.000 A 
BRANCH  26  29
ATOM     29  C   UNL     1      -5.133  13.195  22.450  0.00  0.00    +0.000 A 
ATOM     30  C   UNL     1      -5.192  14.329  23.274  0.00  0.00    +0.000 A 
ATOM     31  C   UNL     1      -6.385  14.702  23.896  0.00  0.00    +0.000 A 
ATOM     32  C   UNL     1      -7.542  13.958  23.688  0.00  0.00    +0.000 A 
ATOM     33  C   UNL     1      -7.515  12.849  22.844  0.00  0.00    +0.000 A 
ATOM     34  C   UNL     1      -6.321  12.475  22.230  0.00  0.00    +0.000 A 
ENDBRANCH  26  29
ENDBRANCH  22  23
ENDBRANCH  19  21
ENDBRANCH   4  19
TORSDOF 7
ENDMDL
MODEL 4
REMARK VINA RESULT:      -8.3      2.986     12.454
REMARK  Name = 
REMARK  8 active torsions:
REMARK  status: ('A' for Active; 'I' for Inactive)
REMARK    1  A    between atoms: C_1  and  C_2
REMARK    2  A    between atoms: C_5  and  S_6
REMARK    3  A    between atoms: S_6  and  N_9
REMARK    4  A    between atoms: N_9  and  C_10
REMARK    5  A    between atoms: C_13  and  C_14
REMARK    6  A    between atoms: C_14  and  C_16
REMARK    7  A    between atoms: C_17  and  C_18
REMARK    8  A    between atoms: C_21  and  C_22
REMARK                            x       y       z     vdW  Elec       q    Type
REMARK                         _______ _______ _______ _____ _____    ______ ____
ROOT
ATOM      1  C   UNL     1       0.701  10.849  20.527  0.00  0.00    +0.000 A 
ATOM      2  C   UNL     1       0.617  10.075  21.679  0.00  0.00    +0.000 A 
ATOM      3  C   UNL     1       0.960   8.717  21.642  0.00  0.00    +0.000 A 
ATOM      4  C   UNL     1       1.402   8.110  20.454  0.00  0.00    +0.000 A 
ATOM      5  C   UNL     1       1.484   8.904  19.301  0.00  0.00    +0.000 A 
ATOM      6  C   UNL     1       1.145  10.268  19.340  0.00  0.00    +0.000 A 
ENDROOT
BRANCH   1   7
ATOM      7  N   UNL     1       0.332  12.232  20.545  0.00  0.00    +0.000 N 
ATOM      8  H   UNL     1       0.532  12.722  21.408  0.00  0.00    +0.000 HD
BRANCH   7   9
ATOM      9  S   UNL     1      -1.157  12.665  19.841  0.00  0.00    +0.000 S 
ATOM     10  O   UNL     1      -1.562  11.621  18.941  0.00  0.00    +0.000 OA
ATOM     11  O   UNL     1      -1.037  14.047  19.390  0.00  0.00    +0.000 OA
BRANCH   9  16
ATOM     12  C   UNL     1      -5.197  12.684  24.384  0.00  0.00    +0.000 C 
ATOM     13  C   UNL     1      -4.196  12.690  23.267  0.00  0.00    +0.000 A 
ATOM     14  C   UNL     1      -4.581  12.997  21.958  0.00  0.00    +0.000 A 
ATOM     15  C   UNL     1      -3.642  12.987  20.928  0.00  0.00    +0.000 A 
ATOM     16  C   UNL     1      -2.304  12.687  21.205  0.00  0.00    +0.000 A 
ATOM     17  C   UNL     1      -1.905  12.369  22.504  0.00  0.00    +0.000 A 
ATOM     18  C   UNL     1      -2.855  12.378  23.532  0.00  0.00    +0.000 A 
ENDBRANCH   9  16
ENDBRANCH   7   9
ENDBRANCH   1   7
BRANCH   4  19
ATOM     19  C   UNL     1       1.766   6.651  20.362  0.00  0.00    +0.000 C 
ATOM     20  O   UNL     1       1.491   5.878  21.265  0.00  0.00    +0.000 OA
BRANCH  19  21
ATOM     21  C   UNL     1       2.453   6.194  19.109  0.00  0.00    +0.000 C 
ATOM     22  C   UNL     1       3.761   5.901  19.039  0.00  0.00    +0.000 C 
BRANCH  22  23
ATOM     23  C   UNL     1       4.414   5.479  17.781  0.00  0.00    +0.000 A 
ATOM     24  C   UNL     1       4.820   6.451  16.861  0.00  0.00    +0.000 A 
ATOM     25  C   UNL     1       5.412   6.086  15.644  0.00  0.00    +0.000 A 
ATOM     26  C   UNL     1       5.627   4.739  15.309  0.00  0.00    +0.000 A 
ATOM     27  C   UNL     1       5.257   3.773  16.250  0.00  0.00    +0.000 A 
ATOM     28  C   UNL     1       4.658   4.134  17.461  0.00  0.00    +0.000 A 
BRANCH  26  29
ATOM     29  C   UNL     1       6.158   4.353  13.991  0.00  0.00    +0.000 A 
ATOM     30  C   UNL     1       7.300   4.967  13.452  0.00  0.00    +0.000 A 
ATOM     31  C   UNL     1       7.733   4.665  12.160  0.00  0.00    +0.000 A 
ATOM     32  C   UNL     1       7.044   3.731  11.394  0.00  0.00    +0.000 A 
ATOM     33  C   UNL     1       5.930   3.083  11.922  0.00  0.00    +0.000 A 
ATOM     34  C   UNL     1       5.495   3.391  13.209  0.00  0.00    +0.000 A 
ENDBRANCH  26  29
ENDBRANCH  22  23
ENDBRANCH  19  21
ENDBRANCH   4  19
TORSDOF 7
ENDMDL
MODEL 5
REMARK VINA RESULT:      -8.3      1.741      2.358
REMARK  Name = 
REMARK  8 active torsions:
REMARK  status: ('A' for Active; 'I' for Inactive)
REMARK    1  A    between atoms: C_1  and  C_2
REMARK    2  A    between atoms: C_5  and  S_6
REMARK    3  A    between atoms: S_6  and  N_9
REMARK    4  A    between atoms: N_9  and  C_10
REMARK    5  A    between atoms: C_13  and  C_14
REMARK    6  A    between atoms: C_14  and  C_16
REMARK    7  A    between atoms: C_17  and  C_18
REMARK    8  A    between atoms: C_21  and  C_22
REMARK                            x       y       z     vdW  Elec       q    Type
REMARK                         _______ _______ _______ _____ _____    ______ ____
ROOT
ATOM      1  C   UNL     1       2.393   4.713  19.333  0.00  0.00    +0.000 A 
ATOM      2  C   UNL     1       2.439   5.672  20.339  0.00  0.00    +0.000 A 
ATOM      3  C   UNL     1       2.240   7.025  20.035  0.00  0.00    +0.000 A 
ATOM      4  C   UNL     1       1.983   7.444  18.718  0.00  0.00    +0.000 A 
ATOM      5  C   UNL     1       1.938   6.467  17.714  0.00  0.00    +0.000 A 
ATOM      6  C   UNL     1       2.132   5.109  18.021  0.00  0.00    +0.000 A 
ENDROOT
BRANCH   1   7
ATOM      7  N   UNL     1       2.618   3.331  19.626  0.00  0.00    +0.000 N 
ATOM      8  H   UNL     1       2.405   3.050  20.574  0.00  0.00    +0.000 HD
BRANCH   7   9
ATOM      9  S   UNL     1       4.022   2.603  18.993  0.00  0.00    +0.000 S 
ATOM     10  O   UNL     1       3.661   1.837  17.834  0.00  0.00    +0.000 OA
ATOM     11  O   UNL     1       4.733   1.993  20.111  0.00  0.00    +0.000 OA
BRANCH   9  16
ATOM     12  C   UNL     1       7.564   7.241  17.288  0.00  0.00    +0.000 C 
ATOM     13  C   UNL     1       6.680   6.102  17.707  0.00  0.00    +0.000 A 
ATOM     14  C   UNL     1       6.548   5.754  19.055  0.00  0.00    +0.000 A 
ATOM     15  C   UNL     1       5.733   4.686  19.428  0.00  0.00    +0.000 A 
ATOM     16  C   UNL     1       5.027   3.972  18.454  0.00  0.00    +0.000 A 
ATOM     17  C   UNL     1       5.155   4.301  17.104  0.00  0.00    +0.000 A 
ATOM     18  C   UNL     1       5.979   5.372  16.738  0.00  0.00    +0.000 A 
ENDBRANCH   9  16
ENDBRANCH   7   9
ENDBRANCH   1   7
BRANCH   4  19
ATOM     19  C   UNL     1       1.779   8.888  18.341  0.00  0.00    +0.000 C 
ATOM     20  O   UNL     1       2.478   9.419  17.493  0.00  0.00    +0.000 OA
BRANCH  19  21
ATOM     21  C   UNL     1       0.671   9.627  19.031  0.00  0.00    +0.000 C 
ATOM     22  C   UNL     1       0.852  10.753  19.739  0.00  0.00    +0.000 C 
BRANCH  22  23
ATOM     23  C   UNL     1      -0.259  11.443  20.430  0.00  0.00    +0.000 A 
ATOM     24  C   UNL     1      -0.447  11.233  21.801  0.00  0.00    +0.000 A 
ATOM     25  C   UNL     1      -1.509  11.845  22.481  0.00  0.00    +0.000 A 
ATOM     26  C   UNL     1      -2.411  12.693  21.820  0.00  0.00    +0.000 A 
ATOM     27  C   UNL     1      -2.194  12.933  20.460  0.00  0.00    +0.000 A 
ATOM     28  C   UNL     1      -1.141  12.317  19.776  0.00  0.00    +0.000 A 
BRANCH  26  29
ATOM     29  C   UNL     1      -3.582  13.256  22.514  0.00  0.00    +0.000 A 
ATOM     30  C   UNL     1      -4.206  12.575  23.571  0.00  0.00    +0.000 A 
ATOM     31  C   UNL     1      -5.375  13.070  24.152  0.00  0.00    +0.000 A 
ATOM     32  C   UNL     1      -5.927  14.264  23.698  0.00  0.00    +0.000 A 
ATOM     33  C   UNL     1      -5.304  14.976  22.676  0.00  0.00    +0.000 A 
ATOM     34  C   UNL     1      -4.142  14.476  22.092  0.00  0.00    +0.000 A 
ENDBRANCH  26  29
ENDBRANCH  22  23
ENDBRANCH  19  21
ENDBRANCH   4  19
TORSDOF 7
ENDMDL
MODEL 6
REMARK VINA RESULT:      -8.2      2.135      2.924
REMARK  Name = 
REMARK  8 active torsions:
REMARK  status: ('A' for Active; 'I' for Inactive)
REMARK    1  A    between atoms: C_1  and  C_2
REMARK    2  A    between atoms: C_5  and  S_6
REMARK    3  A    between atoms: S_6  and  N_9
REMARK    4  A    between atoms: N_9  and  C_10
REMARK    5  A    between atoms: C_13  and  C_14
REMARK    6  A    between atoms: C_14  and  C_16
REMARK    7  A    between atoms: C_17  and  C_18
REMARK    8  A    between atoms: C_21  and  C_22
REMARK                            x       y       z     vdW  Elec       q    Type
REMARK                         _______ _______ _______ _____ _____    ______ ____
ROOT
ATOM      1  C   UNL     1       2.144   4.647  19.247  0.00  0.00    +0.000 A 
ATOM      2  C   UNL     1       2.302   5.602  20.245  0.00  0.00    +0.000 A 
ATOM      3  C   UNL     1       2.252   6.966  19.930  0.00  0.00    +0.000 A 
ATOM      4  C   UNL     1       2.034   7.401  18.611  0.00  0.00    +0.000 A 
ATOM      5  C   UNL     1       1.874   6.426  17.616  0.00  0.00    +0.000 A 
ATOM      6  C   UNL     1       1.918   5.057  17.934  0.00  0.00    +0.000 A 
ENDROOT
BRANCH   1   7
ATOM      7  N   UNL     1       2.216   3.250  19.551  0.00  0.00    +0.000 N 
ATOM      8  H   UNL     1       1.713   2.962  20.381  0.00  0.00    +0.000 HD
BRANCH   7   9
ATOM      9  S   UNL     1       3.718   2.471  19.355  0.00  0.00    +0.000 S 
ATOM     10  O   UNL     1       3.577   1.445  18.360  0.00  0.00    +0.000 OA
ATOM     11  O   UNL     1       4.225   2.167  20.689  0.00  0.00    +0.000 OA
BRANCH   9  16
ATOM     12  C   UNL     1       7.261   6.791  16.958  0.00  0.00    +0.000 C 
ATOM     13  C   UNL     1       6.396   5.719  17.553  0.00  0.00    +0.000 A 
ATOM     14  C   UNL     1       5.672   4.844  16.736  0.00  0.00    +0.000 A 
ATOM     15  C   UNL     1       4.863   3.861  17.302  0.00  0.00    +0.000 A 
ATOM     16  C   UNL     1       4.789   3.732  18.693  0.00  0.00    +0.000 A 
ATOM     17  C   UNL     1       5.498   4.602  19.523  0.00  0.00    +0.000 A 
ATOM     18  C   UNL     1       6.305   5.590  18.945  0.00  0.00    +0.000 A 
ENDBRANCH   9  16
ENDBRANCH   7   9
ENDBRANCH   1   7
BRANCH   4  19
ATOM     19  C   UNL     1       1.989   8.855  18.222  0.00  0.00    +0.000 C 
ATOM     20  O   UNL     1       2.495   9.242  17.181  0.00  0.00    +0.000 OA
BRANCH  19  21
ATOM     21  C   UNL     1       1.276   9.792  19.153  0.00  0.00    +0.000 C 
ATOM     22  C   UNL     1       0.292   9.414  19.984  0.00  0.00    +0.000 C 
BRANCH  22  23
ATOM     23  C   UNL     1      -0.409  10.368  20.870  0.00  0.00    +0.000 A 
ATOM     24  C   UNL     1      -1.111  11.438  20.304  0.00  0.00    +0.000 A 
ATOM     25  C   UNL     1      -1.760  12.379  21.114  0.00  0.00    +0.000 A 
ATOM     26  C   UNL     1      -1.738  12.280  22.514  0.00  0.00    +0.000 A 
ATOM     27  C   UNL     1      -1.071  11.186  23.073  0.00  0.00    +0.000 A 
ATOM     28  C   UNL     1      -0.415  10.249  22.268  0.00  0.00    +0.000 A 
BRANCH  26  29
ATOM     29  C   UNL     1      -2.336  13.322  23.365  0.00  0.00    +0.000 A 
ATOM     30  C   UNL     1      -3.728  13.490  23.452  0.00  0.00    +0.000 A 
ATOM     31  C   UNL     1      -4.279  14.545  24.180  0.00  0.00    +0.000 A 
ATOM     32  C   UNL     1      -3.449  15.437  24.850  0.00  0.00    +0.000 A 
ATOM     33  C   UNL     1      -2.067  15.270  24.809  0.00  0.00    +0.000 A 
ATOM     34  C   UNL     1      -1.519  14.219  24.075  0.00  0.00    +0.000 A 
ENDBRANCH  26  29
ENDBRANCH  22  23
ENDBRANCH  19  21
ENDBRANCH   4  19
TORSDOF 7
ENDMDL
MODEL 7
REMARK VINA RESULT:      -8.1      1.742      2.569
REMARK  Name = 
REMARK  8 active torsions:
REMARK  status: ('A' for Active; 'I' for Inactive)
REMARK    1  A    between atoms: C_1  and  C_2
REMARK    2  A    between atoms: C_5  and  S_6
REMARK    3  A    between atoms: S_6  and  N_9
REMARK    4  A    between atoms: N_9  and  C_10
REMARK    5  A    between atoms: C_13  and  C_14
REMARK    6  A    between atoms: C_14  and  C_16
REMARK    7  A    between atoms: C_17  and  C_18
REMARK    8  A    between atoms: C_21  and  C_22
REMARK                            x       y       z     vdW  Elec       q    Type
REMARK                         _______ _______ _______ _____ _____    ______ ____
ROOT
ATOM      1  C   UNL     1       2.246   4.523  19.255  0.00  0.00    +0.000 A 
ATOM      2  C   UNL     1       2.220   5.402  20.332  0.00  0.00    +0.000 A 
ATOM      3  C   UNL     1       2.088   6.780  20.116  0.00  0.00    +0.000 A 
ATOM      4  C   UNL     1       1.971   7.305  18.817  0.00  0.00    +0.000 A 
ATOM      5  C   UNL     1       1.996   6.407  17.740  0.00  0.00    +0.000 A 
ATOM      6  C   UNL     1       2.123   5.024  17.959  0.00  0.00    +0.000 A 
ENDROOT
BRANCH   1   7
ATOM      7  N   UNL     1       2.404   3.116  19.460  0.00  0.00    +0.000 N 
ATOM      8  H   UNL     1       1.985   2.753  20.307  0.00  0.00    +0.000 HD
BRANCH   7   9
ATOM      9  S   UNL     1       3.916   2.425  19.092  0.00  0.00    +0.000 S 
ATOM     10  O   UNL     1       3.750   1.507  18.001  0.00  0.00    +0.000 OA
ATOM     11  O   UNL     1       4.516   2.000  20.352  0.00  0.00    +0.000 OA
BRANCH   9  16
ATOM     12  C   UNL     1       7.384   7.065  17.246  0.00  0.00    +0.000 C 
ATOM     13  C   UNL     1       6.518   5.926  17.700  0.00  0.00    +0.000 A 
ATOM     14  C   UNL     1       6.380   5.625  19.059  0.00  0.00    +0.000 A 
ATOM     15  C   UNL     1       5.582   4.557  19.464  0.00  0.00    +0.000 A 
ATOM     16  C   UNL     1       4.900   3.792  18.511  0.00  0.00    +0.000 A 
ATOM     17  C   UNL     1       5.035   4.074  17.151  0.00  0.00    +0.000 A 
ATOM     18  C   UNL     1       5.841   5.146  16.752  0.00  0.00    +0.000 A 
ENDBRANCH   9  16
ENDBRANCH   7   9
ENDBRANCH   1   7
BRANCH   4  19
ATOM     19  C   UNL     1       1.843   8.779  18.534  0.00  0.00    +0.000 C 
ATOM     20  O   UNL     1       2.442   9.293  17.605  0.00  0.00    +0.000 OA
BRANCH  19  21
ATOM     21  C   UNL     1       0.932   9.571  19.426  0.00  0.00    +0.000 C 
ATOM     22  C   UNL     1      -0.074  10.337  18.975  0.00  0.00    +0.000 C 
BRANCH  22  23
ATOM     23  C   UNL     1      -0.937  11.127  19.879  0.00  0.00    +0.000 A 
ATOM     24  C   UNL     1      -2.026  11.826  19.348  0.00  0.00    +0.000 A 
ATOM     25  C   UNL     1      -2.845  12.612  20.170  0.00  0.00    +0.000 A 
ATOM     26  C   UNL     1      -2.611  12.718  21.551  0.00  0.00    +0.000 A 
ATOM     27  C   UNL     1      -1.547  11.984  22.083  0.00  0.00    +0.000 A 
ATOM     28  C   UNL     1      -0.722  11.206  21.264  0.00  0.00    +0.000 A 
BRANCH  26  29
ATOM     29  C   UNL     1      -3.411  13.619  22.396  0.00  0.00    +0.000 A 
ATOM     30  C   UNL     1      -4.610  13.195  22.992  0.00  0.00    +0.000 A 
ATOM     31  C   UNL     1      -5.411  14.087  23.706  0.00  0.00    +0.000 A 
ATOM     32  C   UNL     1      -5.017  15.413  23.853  0.00  0.00    +0.000 A 
ATOM     33  C   UNL     1      -3.814  15.848  23.302  0.00  0.00    +0.000 A 
ATOM     34  C   UNL     1      -3.020  14.957  22.583  0.00  0.00    +0.000 A 
ENDBRANCH  26  29
ENDBRANCH  22  23
ENDBRANCH  19  21
ENDBRANCH   4  19
TORSDOF 7
ENDMDL
MODEL 8
REMARK VINA RESULT:      -8.1      1.268      1.938
REMARK  Name = 
REMARK  8 active torsions:
REMARK  status: ('A' for Active; 'I' for Inactive)
REMARK    1  A    between atoms: C_1  and  C_2
REMARK    2  A    between atoms: C_5  and  S_6
REMARK    3  A    between atoms: S_6  and  N_9
REMARK    4  A    between atoms: N_9  and  C_10
REMARK    5  A    between atoms: C_13  and  C_14
REMARK    6  A    between atoms: C_14  and  C_16
REMARK    7  A    between atoms: C_17  and  C_18
REMARK    8  A    between atoms: C_21  and  C_22
REMARK                            x       y       z     vdW  Elec       q    Type
REMARK                         _______ _______ _______ _____ _____    ______ ____
ROOT
ATOM      1  C   UNL     1       2.569   6.373  20.041  0.00  0.00    +0.000 A 
ATOM      2  C   UNL     1       2.817   6.912  18.783  0.00  0.00    +0.000 A 
ATOM      3  C   UNL     1       2.257   8.144  18.421  0.00  0.00    +0.000 A 
ATOM      4  C   UNL     1       1.446   8.865  19.314  0.00  0.00    +0.000 A 
ATOM      5  C   UNL     1       1.207   8.310  20.580  0.00  0.00    +0.000 A 
ATOM      6  C   UNL     1       1.773   7.076  20.944  0.00  0.00    +0.000 A 
ENDROOT
BRANCH   1   7
ATOM      7  N   UNL     1       3.115   5.104  20.415  0.00  0.00    +0.000 N 
ATOM      8  H   UNL     1       4.021   5.139  20.864  0.00  0.00    +0.000 HD
BRANCH   7   9
ATOM      9  S   UNL     1       2.943   3.811  19.319  0.00  0.00    +0.000 S 
ATOM     10  O   UNL     1       1.674   3.933  18.659  0.00  0.00    +0.000 OA
ATOM     11  O   UNL     1       3.312   2.591  20.028  0.00  0.00    +0.000 OA
BRANCH   9  16
ATOM     12  C   UNL     1       7.175   4.810  15.070  0.00  0.00    +0.000 C 
ATOM     13  C   UNL     1       6.135   4.553  16.121  0.00  0.00    +0.000 A 
ATOM     14  C   UNL     1       4.825   4.213  15.768  0.00  0.00    +0.000 A 
ATOM     15  C   UNL     1       3.867   3.989  16.755  0.00  0.00    +0.000 A 
ATOM     16  C   UNL     1       4.219   4.084  18.106  0.00  0.00    +0.000 A 
ATOM     17  C   UNL     1       5.520   4.431  18.475  0.00  0.00    +0.000 A 
ATOM     18  C   UNL     1       6.475   4.658  17.477  0.00  0.00    +0.000 A 
ENDBRANCH   9  16
ENDBRANCH   7   9
ENDBRANCH   1   7
BRANCH   4  19
ATOM     19  C   UNL     1       0.810  10.185  18.965  0.00  0.00    +0.000 C 
ATOM     20  O   UNL     1       1.262  10.882  18.071  0.00  0.00    +0.000 OA
BRANCH  19  21
ATOM     21  C   UNL     1      -0.409  10.586  19.743  0.00  0.00    +0.000 C 
ATOM     22  C   UNL     1      -0.926  11.825  19.735  0.00  0.00    +0.000 C 
BRANCH  22  23
ATOM     23  C   UNL     1      -2.114  12.194  20.535  0.00  0.00    +0.000 A 
ATOM     24  C   UNL     1      -3.319  12.475  19.881  0.00  0.00    +0.000 A 
ATOM     25  C   UNL     1      -4.455  12.860  20.605  0.00  0.00    +0.000 A 
ATOM     26  C   UNL     1      -4.430  12.968  22.005  0.00  0.00    +0.000 A 
ATOM     27  C   UNL     1      -3.236  12.645  22.656  0.00  0.00    +0.000 A 
ATOM     28  C   UNL     1      -2.098  12.269  21.936  0.00  0.00    +0.000 A 
BRANCH  26  29
ATOM     29  C   UNL     1      -5.595  13.466  22.756  0.00  0.00    +0.000 A 
ATOM     30  C   UNL     1      -6.767  12.703  22.884  0.00  0.00    +0.000 A 
ATOM     31  C   UNL     1      -7.899  13.227  23.509  0.00  0.00    +0.000 A 
ATOM     32  C   UNL     1      -7.872  14.514  24.034  0.00  0.00    +0.000 A 
ATOM     33  C   UNL     1      -6.709  15.277  23.952  0.00  0.00    +0.000 A 
ATOM     34  C   UNL     1      -5.582  14.754  23.320  0.00  0.00    +0.000 A 
ENDBRANCH  26  29
ENDBRANCH  22  23
ENDBRANCH  19  21
ENDBRANCH   4  19
TORSDOF 7
ENDMDL
MODEL 9
REMARK VINA RESULT:      -8.1      4.232     11.904
REMARK  Name = 
REMARK  8 active torsions:
REMARK  status: ('A' for Active; 'I' for Inactive)
REMARK    1  A    between atoms: C_1  and  C_2
REMARK    2  A    between atoms: C_5  and  S_6
REMARK    3  A    between atoms: S_6  and  N_9
REMARK    4  A    between atoms: N_9  and  C_10
REMARK    5  A    between atoms: C_13  and  C_14
REMARK    6  A    between atoms: C_14  and  C_16
REMARK    7  A    between atoms: C_17  and  C_18
REMARK    8  A    between atoms: C_21  and  C_22
REMARK                            x       y       z     vdW  Elec       q    Type
REMARK                         _______ _______ _______ _____ _____    ______ ____
ROOT
ATOM      1  C   UNL     1      -2.024  13.364  21.089  0.00  0.00    +0.000 A 
ATOM      2  C   UNL     1      -2.117  13.012  22.431  0.00  0.00    +0.000 A 
ATOM      3  C   UNL     1      -1.415  11.902  22.919  0.00  0.00    +0.000 A 
ATOM      4  C   UNL     1      -0.600  11.128  22.076  0.00  0.00    +0.000 A 
ATOM      5  C   UNL     1      -0.513  11.496  20.725  0.00  0.00    +0.000 A 
ATOM      6  C   UNL     1      -1.213  12.614  20.238  0.00  0.00    +0.000 A 
ENDROOT
BRANCH   1   7
ATOM      7  N   UNL     1      -2.754  14.481  20.572  0.00  0.00    +0.000 N 
ATOM      8  H   UNL     1      -2.246  15.357  20.550  0.00  0.00    +0.000 HD
BRANCH   7   9
ATOM      9  S   UNL     1      -4.385  14.647  21.034  0.00  0.00    +0.000 S 
ATOM     10  O   UNL     1      -4.961  15.742  20.304  0.00  0.00    +0.000 OA
ATOM     11  O   UNL     1      -4.428  14.604  22.491  0.00  0.00    +0.000 OA
BRANCH   9  16
ATOM     12  C   UNL     1      -7.184   9.577  19.183  0.00  0.00    +0.000 C 
ATOM     13  C   UNL     1      -6.484  10.822  19.643  0.00  0.00    +0.000 A 
ATOM     14  C   UNL     1      -6.846  11.451  20.838  0.00  0.00    +0.000 A 
ATOM     15  C   UNL     1      -6.195  12.614  21.247  0.00  0.00    +0.000 A 
ATOM     16  C   UNL     1      -5.160  13.145  20.470  0.00  0.00    +0.000 A 
ATOM     17  C   UNL     1      -4.792  12.535  19.270  0.00  0.00    +0.000 A 
ATOM     18  C   UNL     1      -5.454  11.370  18.865  0.00  0.00    +0.000 A 
ENDBRANCH   9  16
ENDBRANCH   7   9
ENDBRANCH   1   7
BRANCH   4  19
ATOM     19  C   UNL     1       0.160   9.918  22.551  0.00  0.00    +0.000 C 
ATOM     20  O   UNL     1       0.008   9.486  23.682  0.00  0.00    +0.000 OA
BRANCH  19  21
ATOM     21  C   UNL     1       1.085   9.260  21.569  0.00  0.00    +0.000 C 
ATOM     22  C   UNL     1       0.899   8.023  21.081  0.00  0.00    +0.000 C 
BRANCH  22  23
ATOM     23  C   UNL     1       1.844   7.393  20.134  0.00  0.00    +0.000 A 
ATOM     24  C   UNL     1       2.412   6.156  20.457  0.00  0.00    +0.000 A 
ATOM     25  C   UNL     1       3.336   5.544  19.599  0.00  0.00    +0.000 A 
ATOM     26  C   UNL     1       3.717   6.143  18.387  0.00  0.00    +0.000 A 
ATOM     27  C   UNL     1       3.115   7.358  18.050  0.00  0.00    +0.000 A 
ATOM     28  C   UNL     1       2.199   7.975  18.908  0.00  0.00    +0.000 A 
BRANCH  26  29
ATOM     29  C   UNL     1       4.760   5.548  17.534  0.00  0.00    +0.000 A 
ATOM     30  C   UNL     1       4.435   4.746  16.429  0.00  0.00    +0.000 A 
ATOM     31  C   UNL     1       5.431   4.105  15.690  0.00  0.00    +0.000 A 
ATOM     32  C   UNL     1       6.769   4.272  16.032  0.00  0.00    +0.000 A 
ATOM     33  C   UNL     1       7.118   5.094  17.102  0.00  0.00    +0.000 A 
ATOM     34  C   UNL     1       6.121   5.726  17.843  0.00  0.00    +0.000 A 
ENDBRANCH  26  29
ENDBRANCH  22  23
ENDBRANCH  19  21
ENDBRANCH   4  19
TORSDOF 7
ENDMDL
