MODEL 1
REMARK VINA RESULT:      -7.0      0.000      0.000
REMARK  Name = 
REMARK  4 active torsions:
REMARK  status: ('A' for Active; 'I' for Inactive)
REMARK    1  A    between atoms: C_2  and  C_3
REMARK    2  A    between atoms: C_8  and  C_10
REMARK    3  A    between atoms: C_10  and  N_11
REMARK    4  A    between atoms: N_11  and  C_12
REMARK                            x       y       z     vdW  Elec       q    Type
REMARK                         _______ _______ _______ _____ _____    ______ ____
ROOT
ATOM      1  C   UNL     1       4.435   5.608  19.313  0.00  0.00    +0.000 C 
ENDROOT
BRANCH   1   7
ATOM      2  C   UNL     1       5.853   4.330  17.010  0.00  0.00    +0.000 C 
ATOM      3  C   UNL     1       6.148   3.970  15.550  0.00  0.00    +0.000 C 
ATOM      4  C   UNL     1       6.219   5.327  14.859  0.00  0.00    +0.000 C 
ATOM      5  C   UNL     1       5.124   6.114  15.557  0.00  0.00    +0.000 C 
ATOM      6  N   UNL     1       5.112   5.592  16.913  0.00  0.00    +0.000 N 
ATOM      7  C   UNL     1       4.385   6.226  17.903  0.00  0.00    +0.000 C 
ATOM      8  O   UNL     1       3.748   7.251  17.654  0.00  0.00    +0.000 OA
BRANCH   2  10
ATOM      9  N   UNL     1       8.079   4.599  18.402  0.00  0.00    +0.000 NA
ATOM     10  C   UNL     1       7.100   4.466  17.790  0.00  0.00    +0.000 C 
ENDBRANCH   2  10
ENDBRANCH   1   7
BRANCH   1  11
ATOM     11  N   UNL     1       3.101   5.580  19.925  0.00  0.00    +0.000 NA
ATOM     12  H   UNL     1       2.429   6.078  19.343  0.00  0.00    +0.000 HD
BRANCH  11  13
ATOM     13  C   UNL     1       2.658   4.227  20.232  0.00  0.00    +0.000 C 
ATOM     14  C   UNL     1       3.652   3.152  19.733  0.00  0.00    +0.000 C 
ATOM     15  C   UNL     1       2.780   2.264  18.825  0.00  0.00    +0.000 C 
ATOM     16  C   UNL     1       2.459   3.040  17.536  0.00  0.00    +0.000 C 
ATOM     17  C   UNL     1       1.441   4.088  18.006  0.00  0.00    +0.000 C 
ATOM     18  C   UNL     1       1.344   3.814  19.520  0.00  0.00    +0.000 C 
ATOM     19  C   UNL     1       1.437   2.288  19.555  0.00  0.00    +0.000 C 
ENDBRANCH  11  13
ENDBRANCH   1  11
TORSDOF 4
ENDMDL
MODEL 2
REMARK VINA RESULT:      -6.9      2.044      3.078
REMARK  Name = 
REMARK  4 active torsions:
REMARK  status: ('A' for Active; 'I' for Inactive)
REMARK    1  A    between atoms: C_2  and  C_3
REMARK    2  A    between atoms: C_8  and  C_10
REMARK    3  A    between atoms: C_10  and  N_11
REMARK    4  A    between atoms: N_11  and  C_12
REMARK                            x       y       z     vdW  Elec       q    Type
REMARK                         _______ _______ _______ _____ _____    ______ ____
ROOT
ATOM      1  C   UNL     1       4.328   3.778  17.444  0.00  0.00    +0.000 C 
ENDROOT
BRANCH   1   7
ATOM      2  C   UNL     1       6.001   6.223  17.029  0.00  0.00    +0.000 C 
ATOM      3  C   UNL     1       6.865   7.431  17.408  0.00  0.00    +0.000 C 
ATOM      4  C   UNL     1       7.945   6.826  18.298  0.00  0.00    +0.000 C 
ATOM      5  C   UNL     1       7.177   5.781  19.090  0.00  0.00    +0.000 C 
ATOM      6  N   UNL     1       6.149   5.318  18.173  0.00  0.00    +0.000 N 
ATOM      7  C   UNL     1       5.391   4.202  18.475  0.00  0.00    +0.000 C 
ATOM      8  O   UNL     1       5.585   3.576  19.519  0.00  0.00    +0.000 OA
BRANCH   2  10
ATOM      9  N   UNL     1       6.791   5.133  14.759  0.00  0.00    +0.000 NA
ATOM     10  C   UNL     1       6.457   5.613  15.764  0.00  0.00    +0.000 C 
ENDBRANCH   2  10
ENDBRANCH   1   7
BRANCH   1  11
ATOM     11  N   UNL     1       3.627   2.564  17.878  0.00  0.00    +0.000 NA
ATOM     12  H   UNL     1       4.103   2.139  18.672  0.00  0.00    +0.000 HD
BRANCH  11  13
ATOM     13  C   UNL     1       2.217   2.805  18.154  0.00  0.00    +0.000 C 
ATOM     14  C   UNL     1       1.898   4.308  18.327  0.00  0.00    +0.000 C 
ATOM     15  C   UNL     1       1.252   4.369  19.725  0.00  0.00    +0.000 C 
ATOM     16  C   UNL     1       2.345   4.140  20.784  0.00  0.00    +0.000 C 
ATOM     17  C   UNL     1       2.646   2.641  20.652  0.00  0.00    +0.000 C 
ATOM     18  C   UNL     1       1.723   2.207  19.496  0.00  0.00    +0.000 C 
ATOM     19  C   UNL     1       0.479   3.052  19.774  0.00  0.00    +0.000 C 
ENDBRANCH  11  13
ENDBRANCH   1  11
TORSDOF 4
ENDMDL
MODEL 3
REMARK VINA RESULT:      -6.8      0.819      1.650
REMARK  Name = 
REMARK  4 active torsions:
REMARK  status: ('A' for Active; 'I' for Inactive)
REMARK    1  A    between atoms: C_2  and  C_3
REMARK    2  A    between atoms: C_8  and  C_10
REMARK    3  A    between atoms: C_10  and  N_11
REMARK    4  A    between atoms: N_11  and  C_12
REMARK                            x       y       z     vdW  Elec       q    Type
REMARK                         _______ _______ _______ _____ _____    ______ ____
ROOT
ATOM      1  C   UNL     1       4.927   5.530  19.261  0.00  0.00    +0.000 C 
ENDROOT
BRANCH   1   7
ATOM      2  C   UNL     1       5.950   4.206  16.781  0.00  0.00    +0.000 C 
ATOM      3  C   UNL     1       6.023   3.845  15.294  0.00  0.00    +0.000 C 
ATOM      4  C   UNL     1       6.067   5.203  14.603  0.00  0.00    +0.000 C 
ATOM      5  C   UNL     1       5.119   6.037  15.447  0.00  0.00    +0.000 C 
ATOM      6  N   UNL     1       5.267   5.503  16.791  0.00  0.00    +0.000 N 
ATOM      7  C   UNL     1       4.715   6.163  17.873  0.00  0.00    +0.000 C 
ATOM      8  O   UNL     1       4.102   7.221  17.716  0.00  0.00    +0.000 OA
BRANCH   2  10
ATOM      9  N   UNL     1       8.350   4.304  17.874  0.00  0.00    +0.000 NA
ATOM     10  C   UNL     1       7.297   4.272  17.384  0.00  0.00    +0.000 C 
ENDBRANCH   2  10
ENDBRANCH   1   7
BRANCH   1  11
ATOM     11  N   UNL     1       3.644   5.167  19.876  0.00  0.00    +0.000 NA
ATOM     12  H   UNL     1       3.061   5.992  20.002  0.00  0.00    +0.000 HD
BRANCH  11  13
ATOM     13  C   UNL     1       2.952   4.118  19.141  0.00  0.00    +0.000 C 
ATOM     14  C   UNL     1       1.418   4.313  19.134  0.00  0.00    +0.000 C 
ATOM     15  C   UNL     1       0.896   2.992  19.731  0.00  0.00    +0.000 C 
ATOM     16  C   UNL     1       1.219   2.967  21.234  0.00  0.00    +0.000 C 
ATOM     17  C   UNL     1       2.735   2.733  21.259  0.00  0.00    +0.000 C 
ATOM     18  C   UNL     1       3.101   2.705  19.762  0.00  0.00    +0.000 C 
ATOM     19  C   UNL     1       1.893   1.977  19.173  0.00  0.00    +0.000 C 
ENDBRANCH  11  13
ENDBRANCH   1  11
TORSDOF 4
ENDMDL
MODEL 4
REMARK VINA RESULT:      -6.8      2.132      5.789
REMARK  Name = 
REMARK  4 active torsions:
REMARK  status: ('A' for Active; 'I' for Inactive)
REMARK    1  A    between atoms: C_2  and  C_3
REMARK    2  A    between atoms: C_8  and  C_10
REMARK    3  A    between atoms: C_10  and  N_11
REMARK    4  A    between atoms: N_11  and  C_12
REMARK                            x       y       z     vdW  Elec       q    Type
REMARK                         _______ _______ _______ _____ _____    ______ ____
ROOT
ATOM      1  C   UNL     1       4.738   3.569  18.612  0.00  0.00    +0.000 C 
ENDROOT
BRANCH   1   7
ATOM      2  C   UNL     1       1.940   3.691  19.665  0.00  0.00    +0.000 C 
ATOM      3  C   UNL     1       0.678   3.219  20.393  0.00  0.00    +0.000 C 
ATOM      4  C   UNL     1       1.193   2.822  21.772  0.00  0.00    +0.000 C 
ATOM      5  C   UNL     1       2.536   2.186  21.455  0.00  0.00    +0.000 C 
ATOM      6  N   UNL     1       3.014   2.914  20.291  0.00  0.00    +0.000 N 
ATOM      7  C   UNL     1       4.314   2.754  19.849  0.00  0.00    +0.000 C 
ATOM      8  O   UNL     1       5.091   2.004  20.444  0.00  0.00    +0.000 OA
BRANCH   2  10
ATOM      9  N   UNL     1       2.311   6.289  19.949  0.00  0.00    +0.000 NA
ATOM     10  C   UNL     1       2.134   5.147  19.817  0.00  0.00    +0.000 C 
ENDBRANCH   2  10
ENDBRANCH   1   7
BRANCH   1  11
ATOM     11  N   UNL     1       6.157   3.938  18.685  0.00  0.00    +0.000 NA
ATOM     12  H   UNL     1       6.707   3.378  18.036  0.00  0.00    +0.000 HD
BRANCH  11  13
ATOM     13  C   UNL     1       6.370   5.366  18.488  0.00  0.00    +0.000 C 
ATOM     14  C   UNL     1       5.101   6.088  17.978  0.00  0.00    +0.000 C 
ATOM     15  C   UNL     1       5.580   6.754  16.674  0.00  0.00    +0.000 C 
ATOM     16  C   UNL     1       5.789   5.663  15.610  0.00  0.00    +0.000 C 
ATOM     17  C   UNL     1       7.069   4.961  16.080  0.00  0.00    +0.000 C 
ATOM     18  C   UNL     1       7.406   5.705  17.387  0.00  0.00    +0.000 C 
ATOM     19  C   UNL     1       7.017   7.138  17.023  0.00  0.00    +0.000 C 
ENDBRANCH  11  13
ENDBRANCH   1  11
TORSDOF 4
ENDMDL
MODEL 5
REMARK VINA RESULT:      -6.8      1.827      5.166
REMARK  Name = 
REMARK  4 active torsions:
REMARK  status: ('A' for Active; 'I' for Inactive)
REMARK    1  A    between atoms: C_2  and  C_3
REMARK    2  A    between atoms: C_8  and  C_10
REMARK    3  A    between atoms: C_10  and  N_11
REMARK    4  A    between atoms: N_11  and  C_12
REMARK                            x       y       z     vdW  Elec       q    Type
REMARK                         _______ _______ _______ _____ _____    ______ ____
ROOT
ATOM      1  C   UNL     1       5.572   4.715  19.164  0.00  0.00    +0.000 C 
ENDROOT
BRANCH   1   7
ATOM      2  C   UNL     1       2.735   4.730  18.213  0.00  0.00    +0.000 C 
ATOM      3  C   UNL     1       1.397   4.157  17.737  0.00  0.00    +0.000 C 
ATOM      4  C   UNL     1       1.043   3.141  18.818  0.00  0.00    +0.000 C 
ATOM      5  C   UNL     1       2.394   2.538  19.162  0.00  0.00    +0.000 C 
ATOM      6  N   UNL     1       3.336   3.628  18.971  0.00  0.00    +0.000 N 
ATOM      7  C   UNL     1       4.644   3.508  19.402  0.00  0.00    +0.000 C 
ATOM      8  O   UNL     1       5.027   2.483  19.968  0.00  0.00    +0.000 OA
BRANCH   2  10
ATOM      9  N   UNL     1       2.406   6.899  19.680  0.00  0.00    +0.000 NA
ATOM     10  C   UNL     1       2.537   5.940  19.038  0.00  0.00    +0.000 C 
ENDBRANCH   2  10
ENDBRANCH   1   7
BRANCH   1  11
ATOM     11  N   UNL     1       6.787   4.312  18.446  0.00  0.00    +0.000 NA
ATOM     12  H   UNL     1       6.743   3.328  18.191  0.00  0.00    +0.000 HD
BRANCH  11  13
ATOM     13  C   UNL     1       7.059   5.162  17.295  0.00  0.00    +0.000 C 
ATOM     14  C   UNL     1       5.908   6.153  17.006  0.00  0.00    +0.000 C 
ATOM     15  C   UNL     1       5.531   5.836  15.546  0.00  0.00    +0.000 C 
ATOM     16  C   UNL     1       4.813   4.476  15.505  0.00  0.00    +0.000 C 
ATOM     17  C   UNL     1       5.951   3.476  15.750  0.00  0.00    +0.000 C 
ATOM     18  C   UNL     1       7.174   4.393  15.953  0.00  0.00    +0.000 C 
ATOM     19  C   UNL     1       6.890   5.498  14.935  0.00  0.00    +0.000 C 
ENDBRANCH  11  13
ENDBRANCH   1  11
TORSDOF 4
ENDMDL
MODEL 6
REMARK VINA RESULT:      -6.6      1.975      5.313
REMARK  Name = 
REMARK  4 active torsions:
REMARK  status: ('A' for Active; 'I' for Inactive)
REMARK    1  A    between atoms: C_2  and  C_3
REMARK    2  A    between atoms: C_8  and  C_10
REMARK    3  A    between atoms: C_10  and  N_11
REMARK    4  A    between atoms: N_11  and  C_12
REMARK                            x       y       z     vdW  Elec       q    Type
REMARK                         _______ _______ _______ _____ _____    ______ ____
ROOT
ATOM      1  C   UNL     1       3.508   4.375  17.383  0.00  0.00    +0.000 C 
ENDROOT
BRANCH   1   7
ATOM      2  C   UNL     1       3.114   3.771  20.287  0.00  0.00    +0.000 C 
ATOM      3  C   UNL     1       2.370   3.642  21.619  0.00  0.00    +0.000 C 
ATOM      4  C   UNL     1       1.156   2.790  21.264  0.00  0.00    +0.000 C 
ATOM      5  C   UNL     1       0.781   3.305  19.884  0.00  0.00    +0.000 C 
ATOM      6  N   UNL     1       2.049   3.682  19.283  0.00  0.00    +0.000 N 
ATOM      7  C   UNL     1       2.122   3.992  17.938  0.00  0.00    +0.000 C 
ATOM      8  O   UNL     1       1.118   3.939  17.226  0.00  0.00    +0.000 OA
BRANCH   2  10
ATOM      9  N   UNL     1       4.912   1.862  19.987  0.00  0.00    +0.000 NA
ATOM     10  C   UNL     1       4.126   2.706  20.132  0.00  0.00    +0.000 C 
ENDBRANCH   2  10
ENDBRANCH   1   7
BRANCH   1  11
ATOM     11  N   UNL     1       3.804   5.790  17.635  0.00  0.00    +0.000 NA
ATOM     12  H   UNL     1       3.928   5.959  18.631  0.00  0.00    +0.000 HD
BRANCH  11  13
ATOM     13  C   UNL     1       4.939   6.267  16.856  0.00  0.00    +0.000 C 
ATOM     14  C   UNL     1       5.572   5.153  15.990  0.00  0.00    +0.000 C 
ATOM     15  C   UNL     1       7.043   5.148  16.449  0.00  0.00    +0.000 C 
ATOM     16  C   UNL     1       7.117   4.549  17.864  0.00  0.00    +0.000 C 
ATOM     17  C   UNL     1       6.528   5.660  18.742  0.00  0.00    +0.000 C 
ATOM     18  C   UNL     1       6.141   6.740  17.713  0.00  0.00    +0.000 C 
ATOM     19  C   UNL     1       7.296   6.631  16.717  0.00  0.00    +0.000 C 
ENDBRANCH  11  13
ENDBRANCH   1  11
TORSDOF 4
ENDMDL
MODEL 7
REMARK VINA RESULT:      -6.5      1.702      2.265
REMARK  Name = 
REMARK  4 active torsions:
REMARK  status: ('A' for Active; 'I' for Inactive)
REMARK    1  A    between atoms: C_2  and  C_3
REMARK    2  A    between atoms: C_8  and  C_10
REMARK    3  A    between atoms: C_10  and  N_11
REMARK    4  A    between atoms: N_11  and  C_12
REMARK                            x       y       z     vdW  Elec       q    Type
REMARK                         _______ _______ _______ _____ _____    ______ ____
ROOT
ATOM      1  C   UNL     1       4.380   3.312  18.383  0.00  0.00    +0.000 C 
ENDROOT
BRANCH   1   7
ATOM      2  C   UNL     1       6.533   5.241  17.612  0.00  0.00    +0.000 C 
ATOM      3  C   UNL     1       7.203   6.386  16.845  0.00  0.00    +0.000 C 
ATOM      4  C   UNL     1       6.207   7.532  16.982  0.00  0.00    +0.000 C 
ATOM      5  C   UNL     1       4.867   6.823  16.874  0.00  0.00    +0.000 C 
ATOM      6  N   UNL     1       5.101   5.518  17.470  0.00  0.00    +0.000 N 
ATOM      7  C   UNL     1       4.042   4.674  17.745  0.00  0.00    +0.000 C 
ATOM      8  O   UNL     1       2.884   5.020  17.504  0.00  0.00    +0.000 OA
BRANCH   2  10
ATOM      9  N   UNL     1       7.293   5.219  20.140  0.00  0.00    +0.000 NA
ATOM     10  C   UNL     1       6.966   5.216  19.024  0.00  0.00    +0.000 C 
ENDBRANCH   2  10
ENDBRANCH   1   7
BRANCH   1  11
ATOM     11  N   UNL     1       4.397   3.406  19.848  0.00  0.00    +0.000 NA
ATOM     12  H   UNL     1       4.361   4.379  20.145  0.00  0.00    +0.000 HD
BRANCH  11  13
ATOM     13  C   UNL     1       3.349   2.607  20.468  0.00  0.00    +0.000 C 
ATOM     14  C   UNL     1       2.213   2.252  19.480  0.00  0.00    +0.000 C 
ATOM     15  C   UNL     1       0.957   2.805  20.180  0.00  0.00    +0.000 C 
ATOM     16  C   UNL     1       0.987   4.341  20.109  0.00  0.00    +0.000 C 
ATOM     17  C   UNL     1       2.084   4.713  21.115  0.00  0.00    +0.000 C 
ATOM     18  C   UNL     1       2.583   3.337  21.600  0.00  0.00    +0.000 C 
ATOM     19  C   UNL     1       1.275   2.547  21.652  0.00  0.00    +0.000 C 
ENDBRANCH  11  13
ENDBRANCH   1  11
TORSDOF 4
ENDMDL
MODEL 8
REMARK VINA RESULT:      -6.5      1.918      5.358
REMARK  Name = 
REMARK  4 active torsions:
REMARK  status: ('A' for Active; 'I' for Inactive)
REMARK    1  A    between atoms: C_2  and  C_3
REMARK    2  A    between atoms: C_8  and  C_10
REMARK    3  A    between atoms: C_10  and  N_11
REMARK    4  A    between atoms: N_11  and  C_12
REMARK                            x       y       z     vdW  Elec       q    Type
REMARK                         _______ _______ _______ _____ _____    ______ ____
ROOT
ATOM      1  C   UNL     1       3.160   5.902  17.871  0.00  0.00    +0.000 C 
ENDROOT
BRANCH   1   7
ATOM      2  C   UNL     1       3.168   3.406  19.520  0.00  0.00    +0.000 C 
ATOM      3  C   UNL     1       3.172   2.544  20.787  0.00  0.00    +0.000 C 
ATOM      4  C   UNL     1       1.989   3.082  21.584  0.00  0.00    +0.000 C 
ATOM      5  C   UNL     1       2.060   4.576  21.317  0.00  0.00    +0.000 C 
ATOM      6  N   UNL     1       2.589   4.677  19.966  0.00  0.00    +0.000 N 
ATOM      7  C   UNL     1       2.587   5.888  19.301  0.00  0.00    +0.000 C 
ATOM      8  O   UNL     1       2.124   6.897  19.836  0.00  0.00    +0.000 OA
BRANCH   2  10
ATOM      9  N   UNL     1       1.776   2.287  17.578  0.00  0.00    +0.000 NA
ATOM     10  C   UNL     1       2.380   2.773  18.443  0.00  0.00    +0.000 C 
ENDBRANCH   2  10
ENDBRANCH   1   7
BRANCH   1  11
ATOM     11  N   UNL     1       4.531   6.425  17.857  0.00  0.00    +0.000 NA
ATOM     12  H   UNL     1       4.652   7.133  18.578  0.00  0.00    +0.000 HD
BRANCH  11  13
ATOM     13  C   UNL     1       5.529   5.368  17.959  0.00  0.00    +0.000 C 
ATOM     14  C   UNL     1       6.237   5.354  19.334  0.00  0.00    +0.000 C 
ATOM     15  C   UNL     1       7.726   5.486  18.962  0.00  0.00    +0.000 C 
ATOM     16  C   UNL     1       7.988   6.920  18.471  0.00  0.00    +0.000 C 
ATOM     17  C   UNL     1       7.325   6.939  17.088  0.00  0.00    +0.000 C 
ATOM     18  C   UNL     1       6.720   5.526  16.979  0.00  0.00    +0.000 C 
ATOM     19  C   UNL     1       7.799   4.686  17.662  0.00  0.00    +0.000 C 
ENDBRANCH  11  13
ENDBRANCH   1  11
TORSDOF 4
ENDMDL
MODEL 9
REMARK VINA RESULT:      -6.4      1.260      1.646
REMARK  Name = 
REMARK  4 active torsions:
REMARK  status: ('A' for Active; 'I' for Inactive)
REMARK    1  A    between atoms: C_2  and  C_3
REMARK    2  A    between atoms: C_8  and  C_10
REMARK    3  A    between atoms: C_10  and  N_11
REMARK    4  A    between atoms: N_11  and  C_12
REMARK                            x       y       z     vdW  Elec       q    Type
REMARK                         _______ _______ _______ _____ _____    ______ ____
ROOT
ATOM      1  C   UNL     1       2.975   6.289  19.241  0.00  0.00    +0.000 C 
ENDROOT
BRANCH   1   7
ATOM      2  C   UNL     1       4.995   4.759  17.651  0.00  0.00    +0.000 C 
ATOM      3  C   UNL     1       5.762   4.289  16.411  0.00  0.00    +0.000 C 
ATOM      4  C   UNL     1       6.222   5.592  15.766  0.00  0.00    +0.000 C 
ATOM      5  C   UNL     1       5.035   6.513  15.994  0.00  0.00    +0.000 C 
ATOM      6  N   UNL     1       4.476   6.073  17.261  0.00  0.00    +0.000 N 
ATOM      7  C   UNL     1       3.507   6.826  17.899  0.00  0.00    +0.000 C 
ATOM      8  O   UNL     1       3.115   7.887  17.411  0.00  0.00    +0.000 OA
BRANCH   2  10
ATOM      9  N   UNL     1       6.559   4.905  19.772  0.00  0.00    +0.000 NA
ATOM     10  C   UNL     1       5.878   4.828  18.833  0.00  0.00    +0.000 C 
ENDBRANCH   2  10
ENDBRANCH   1   7
BRANCH   1  11
ATOM     11  N   UNL     1       1.765   5.482  19.044  0.00  0.00    +0.000 NA
ATOM     12  H   UNL     1       1.867   4.874  18.234  0.00  0.00    +0.000 HD
BRANCH  11  13
ATOM     13  C   UNL     1       1.392   4.738  20.239  0.00  0.00    +0.000 C 
ATOM     14  C   UNL     1       2.569   4.582  21.230  0.00  0.00    +0.000 C 
ATOM     15  C   UNL     1       2.675   3.055  21.408  0.00  0.00    +0.000 C 
ATOM     16  C   UNL     1       3.248   2.446  20.117  0.00  0.00    +0.000 C 
ATOM     17  C   UNL     1       2.077   2.557  19.133  0.00  0.00    +0.000 C 
ATOM     18  C   UNL     1       0.993   3.265  19.969  0.00  0.00    +0.000 C 
ATOM     19  C   UNL     1       1.211   2.627  21.342  0.00  0.00    +0.000 C 
ENDBRANCH  11  13
ENDBRANCH   1  11
TORSDOF 4
ENDMDL
