MODEL 1
REMARK VINA RESULT:      -7.6      0.000      0.000
REMARK  Name = 
REMARK  9 active torsions:
REMARK  status: ('A' for Active; 'I' for Inactive)
REMARK    1  A    between atoms: C_1  and  C_2
REMARK    2  A    between atoms: C_2  and  O_3
REMARK    3  A    between atoms: C_2  and  C_4
REMARK    4  A    between atoms: C_4  and  N_5
REMARK    5  A    between atoms: C_4  and  C_28
REMARK    6  A    between atoms: N_11  and  C_12
REMARK    7  A    between atoms: C_15  and  C_16
REMARK    8  A    between atoms: C_17  and  C_18
REMARK    9  A    between atoms: N_30  and  O_31
REMARK                            x       y       z     vdW  Elec       q    Type
REMARK                         _______ _______ _______ _____ _____    ______ ____
ROOT
ATOM      1  N   UNL     1       3.482   5.273  18.711  0.00  0.00    +0.000 N 
ATOM      2  C   UNL     1       3.466   6.479  18.078  0.00  0.00    +0.000 C 
ATOM      3  O   UNL     1       4.151   6.676  17.076  0.00  0.00    +0.000 OA
ATOM      4  N   UNL     1       2.635   7.409  18.659  0.00  0.00    +0.000 N 
ATOM      5  C   UNL     1       2.317   8.678  17.980  0.00  0.00    +0.000 C 
ATOM      6  C   UNL     1       0.888   9.182  18.335  0.00  0.00    +0.000 C 
ATOM      7  N   UNL     1       0.695   9.155  19.796  0.00  0.00    +0.000 N 
ATOM      8  C   UNL     1       0.982   7.859  20.433  0.00  0.00    +0.000 C 
ATOM      9  C   UNL     1       2.421   7.458  20.114  0.00  0.00    +0.000 C 
ATOM     10  H   UNL     1       2.682   5.036  19.282  0.00  0.00    +0.000 HD
ENDROOT
BRANCH   7  11
ATOM     11  C   UNL     1       0.062  10.149  20.516  0.00  0.00    +0.000 A 
ATOM     12  C   UNL     1      -0.025  10.135  21.916  0.00  0.00    +0.000 A 
ATOM     13  C   UNL     1      -0.672  11.165  22.616  0.00  0.00    +0.000 A 
ATOM     14  C   UNL     1      -1.253  12.226  21.925  0.00  0.00    +0.000 A 
ATOM     15  C   UNL     1      -1.198  12.252  20.538  0.00  0.00    +0.000 A 
ATOM     16  C   UNL     1      -0.552  11.221  19.853  0.00  0.00    +0.000 A 
BRANCH  14  17
ATOM     17  C   UNL     1      -1.918  13.280  22.621  0.00  0.00    +0.000 C 
ATOM     18  C   UNL     1      -2.521  14.151  23.185  0.00  0.00    +0.000 C 
BRANCH  18  19
ATOM     19  C   UNL     1      -3.273  15.163  23.852  0.00  0.00    +0.000 A 
ATOM     20  C   UNL     1      -2.655  16.096  24.673  0.00  0.00    +0.000 A 
ATOM     21  C   UNL     1      -3.449  17.071  25.267  0.00  0.00    +0.000 A 
ATOM     22  C   UNL     1      -4.818  17.078  25.020  0.00  0.00    +0.000 A 
ATOM     23  C   UNL     1      -5.341  16.102  24.185  0.00  0.00    +0.000 A 
ATOM     24  N   UNL     1      -4.598  15.144  23.595  0.00  0.00    +0.000 NA
ENDBRANCH  18  19
ENDBRANCH  14  17
ENDBRANCH   7  11
BRANCH   1  25
ATOM     25  C   UNL     1       4.328   4.144  18.303  0.00  0.00    +0.000 C 
BRANCH  25  26
ATOM     26  C   UNL     1       5.777   4.483  18.692  0.00  0.00    +0.000 C 
ATOM     27  O   UNL     1       6.093   5.043  19.746  0.00  0.00    +0.000 OA
ATOM     28  N   UNL     1       6.737   4.095  17.795  0.00  0.00    +0.000 N 
ATOM     29  H   UNL     1       6.556   3.507  16.982  0.00  0.00    +0.000 HD
BRANCH  28  30
ATOM     30  O   UNL     1       8.077   4.311  18.189  0.00  0.00    +0.000 OA
ATOM     31  H   UNL     1       8.085   5.281  18.366  0.00  0.00    +0.000 HD
ENDBRANCH  28  30
ENDBRANCH  25  26
BRANCH  25  33
ATOM     32  C   UNL     1       3.175   1.841  18.103  0.00  0.00    +0.000 C 
ATOM     33  C   UNL     1       3.847   2.862  19.015  0.00  0.00    +0.000 C 
BRANCH  33  34
ATOM     34  O   UNL     1       4.944   2.259  19.709  0.00  0.00    +0.000 OA
ATOM     35  H   UNL     1       4.881   2.556  20.642  0.00  0.00    +0.000 HD
ENDBRANCH  33  34
ENDBRANCH  25  33
ENDBRANCH   1  25
TORSDOF 8
ENDMDL
MODEL 2
REMARK VINA RESULT:      -7.4      0.926      1.391
REMARK  Name = 
REMARK  9 active torsions:
REMARK  status: ('A' for Active; 'I' for Inactive)
REMARK    1  A    between atoms: C_1  and  C_2
REMARK    2  A    between atoms: C_2  and  O_3
REMARK    3  A    between atoms: C_2  and  C_4
REMARK    4  A    between atoms: C_4  and  N_5
REMARK    5  A    between atoms: C_4  and  C_28
REMARK    6  A    between atoms: N_11  and  C_12
REMARK    7  A    between atoms: C_15  and  C_16
REMARK    8  A    between atoms: C_17  and  C_18
REMARK    9  A    between atoms: N_30  and  O_31
REMARK                            x       y       z     vdW  Elec       q    Type
REMARK                         _______ _______ _______ _____ _____    ______ ____
ROOT
ATOM      1  N   UNL     1       3.580   5.119  18.553  0.00  0.00    +0.000 N 
ATOM      2  C   UNL     1       3.608   6.303  17.880  0.00  0.00    +0.000 C 
ATOM      3  O   UNL     1       4.251   6.422  16.837  0.00  0.00    +0.000 OA
ATOM      4  N   UNL     1       2.872   7.304  18.469  0.00  0.00    +0.000 N 
ATOM      5  C   UNL     1       2.600   8.569  17.763  0.00  0.00    +0.000 C 
ATOM      6  C   UNL     1       1.228   9.177  18.172  0.00  0.00    +0.000 C 
ATOM      7  N   UNL     1       1.111   9.209  19.642  0.00  0.00    +0.000 N 
ATOM      8  C   UNL     1       1.348   7.919  20.309  0.00  0.00    +0.000 C 
ATOM      9  C   UNL     1       2.739   7.413  19.930  0.00  0.00    +0.000 C 
ATOM     10  H   UNL     1       2.799   4.954  19.172  0.00  0.00    +0.000 HD
ENDROOT
BRANCH   7  11
ATOM     11  C   UNL     1       0.582  10.266  20.358  0.00  0.00    +0.000 A 
ATOM     12  C   UNL     1       0.752  11.604  19.975  0.00  0.00    +0.000 A 
ATOM     13  C   UNL     1       0.197  12.653  20.723  0.00  0.00    +0.000 A 
ATOM     14  C   UNL     1      -0.534  12.380  21.878  0.00  0.00    +0.000 A 
ATOM     15  C   UNL     1      -0.700  11.065  22.290  0.00  0.00    +0.000 A 
ATOM     16  C   UNL     1      -0.141  10.030  21.536  0.00  0.00    +0.000 A 
BRANCH  14  17
ATOM     17  C   UNL     1      -1.103  13.435  22.653  0.00  0.00    +0.000 C 
ATOM     18  C   UNL     1      -1.618  14.327  23.268  0.00  0.00    +0.000 C 
BRANCH  18  19
ATOM     19  C   UNL     1      -2.265  15.381  23.980  0.00  0.00    +0.000 A 
ATOM     20  C   UNL     1      -3.644  15.402  24.136  0.00  0.00    +0.000 A 
ATOM     21  C   UNL     1      -4.202  16.446  24.867  0.00  0.00    +0.000 A 
ATOM     22  C   UNL     1      -3.369  17.419  25.411  0.00  0.00    +0.000 A 
ATOM     23  C   UNL     1      -2.003  17.309  25.197  0.00  0.00    +0.000 A 
ATOM     24  N   UNL     1      -1.433  16.311  24.493  0.00  0.00    +0.000 NA
ENDBRANCH  18  19
ENDBRANCH  14  17
ENDBRANCH   7  11
BRANCH   1  25
ATOM     25  C   UNL     1       4.328   3.925  18.143  0.00  0.00    +0.000 C 
BRANCH  25  26
ATOM     26  C   UNL     1       5.827   4.241  18.284  0.00  0.00    +0.000 C 
ATOM     27  O   UNL     1       6.348   4.652  19.325  0.00  0.00    +0.000 OA
ATOM     28  N   UNL     1       6.588   4.012  17.168  0.00  0.00    +0.000 N 
ATOM     29  H   UNL     1       6.248   3.544  16.329  0.00  0.00    +0.000 HD
BRANCH  28  30
ATOM     30  O   UNL     1       7.981   4.204  17.317  0.00  0.00    +0.000 OA
ATOM     31  H   UNL     1       8.228   4.600  16.449  0.00  0.00    +0.000 HD
ENDBRANCH  28  30
ENDBRANCH  25  26
BRANCH  25  33
ATOM     32  C   UNL     1       3.048   1.691  18.358  0.00  0.00    +0.000 C 
ATOM     33  C   UNL     1       3.925   2.736  19.040  0.00  0.00    +0.000 C 
BRANCH  33  34
ATOM     34  O   UNL     1       5.101   2.119  19.576  0.00  0.00    +0.000 OA
ATOM     35  H   UNL     1       5.288   2.568  20.428  0.00  0.00    +0.000 HD
ENDBRANCH  33  34
ENDBRANCH  25  33
ENDBRANCH   1  25
TORSDOF 8
ENDMDL
MODEL 3
REMARK VINA RESULT:      -7.3      2.424      3.538
REMARK  Name = 
REMARK  9 active torsions:
REMARK  status: ('A' for Active; 'I' for Inactive)
REMARK    1  A    between atoms: C_1  and  C_2
REMARK    2  A    between atoms: C_2  and  O_3
REMARK    3  A    between atoms: C_2  and  C_4
REMARK    4  A    between atoms: C_4  and  N_5
REMARK    5  A    between atoms: C_4  and  C_28
REMARK    6  A    between atoms: N_11  and  C_12
REMARK    7  A    between atoms: C_15  and  C_16
REMARK    8  A    between atoms: C_17  and  C_18
REMARK    9  A    between atoms: N_30  and  O_31
REMARK                            x       y       z     vdW  Elec       q    Type
REMARK                         _______ _______ _______ _____ _____    ______ ____
ROOT
ATOM      1  N   UNL     1       5.096   5.806  17.510  0.00  0.00    +0.000 N 
ATOM      2  C   UNL     1       4.126   5.423  18.385  0.00  0.00    +0.000 C 
ATOM      3  O   UNL     1       4.089   4.275  18.825  0.00  0.00    +0.000 OA
ATOM      4  N   UNL     1       3.232   6.418  18.707  0.00  0.00    +0.000 N 
ATOM      5  C   UNL     1       2.267   6.251  19.807  0.00  0.00    +0.000 C 
ATOM      6  C   UNL     1       1.942   7.604  20.503  0.00  0.00    +0.000 C 
ATOM      7  N   UNL     1       1.610   8.623  19.490  0.00  0.00    +0.000 N 
ATOM      8  C   UNL     1       2.617   8.791  18.430  0.00  0.00    +0.000 C 
ATOM      9  C   UNL     1       2.834   7.448  17.735  0.00  0.00    +0.000 C 
ATOM     10  H   UNL     1       5.307   6.793  17.450  0.00  0.00    +0.000 HD
ENDROOT
BRANCH   7  11
ATOM     11  C   UNL     1       0.585   9.540  19.615  0.00  0.00    +0.000 A 
ATOM     12  C   UNL     1      -0.099  10.069  18.511  0.00  0.00    +0.000 A 
ATOM     13  C   UNL     1      -1.140  10.996  18.675  0.00  0.00    +0.000 A 
ATOM     14  C   UNL     1      -1.511  11.417  19.951  0.00  0.00    +0.000 A 
ATOM     15  C   UNL     1      -0.835  10.923  21.058  0.00  0.00    +0.000 A 
ATOM     16  C   UNL     1       0.200  10.001  20.882  0.00  0.00    +0.000 A 
BRANCH  14  17
ATOM     17  C   UNL     1      -2.565  12.361  20.135  0.00  0.00    +0.000 C 
ATOM     18  C   UNL     1      -3.483  13.123  20.266  0.00  0.00    +0.000 C 
BRANCH  18  19
ATOM     19  C   UNL     1      -4.601  13.996  20.417  0.00  0.00    +0.000 A 
ATOM     20  C   UNL     1      -5.900  13.537  20.254  0.00  0.00    +0.000 A 
ATOM     21  C   UNL     1      -6.941  14.440  20.446  0.00  0.00    +0.000 A 
ATOM     22  C   UNL     1      -6.646  15.755  20.791  0.00  0.00    +0.000 A 
ATOM     23  C   UNL     1      -5.315  16.117  20.929  0.00  0.00    +0.000 A 
ATOM     24  N   UNL     1      -4.285  15.266  20.750  0.00  0.00    +0.000 NA
ENDBRANCH  18  19
ENDBRANCH  14  17
ENDBRANCH   7  11
BRANCH   1  25
ATOM     25  C   UNL     1       6.129   4.904  16.984  0.00  0.00    +0.000 C 
BRANCH  25  26
ATOM     26  C   UNL     1       6.236   5.150  15.469  0.00  0.00    +0.000 C 
ATOM     27  O   UNL     1       5.260   5.284  14.724  0.00  0.00    +0.000 OA
ATOM     28  N   UNL     1       7.509   5.243  14.973  0.00  0.00    +0.000 N 
ATOM     29  H   UNL     1       8.347   5.284  15.552  0.00  0.00    +0.000 HD
BRANCH  28  30
ATOM     30  O   UNL     1       7.618   5.569  13.602  0.00  0.00    +0.000 OA
ATOM     31  H   UNL     1       8.577   5.779  13.516  0.00  0.00    +0.000 HD
ENDBRANCH  28  30
ENDBRANCH  25  26
BRANCH  25  33
ATOM     32  C   UNL     1       7.338   5.746  19.107  0.00  0.00    +0.000 C 
ATOM     33  C   UNL     1       7.470   5.196  17.690  0.00  0.00    +0.000 C 
BRANCH  33  34
ATOM     34  O   UNL     1       8.278   4.014  17.692  0.00  0.00    +0.000 OA
ATOM     35  H   UNL     1       7.954   3.453  16.955  0.00  0.00    +0.000 HD
ENDBRANCH  33  34
ENDBRANCH  25  33
ENDBRANCH   1  25
TORSDOF 8
ENDMDL
MODEL 4
REMARK VINA RESULT:      -7.2      1.599      1.960
REMARK  Name = 
REMARK  9 active torsions:
REMARK  status: ('A' for Active; 'I' for Inactive)
REMARK    1  A    between atoms: C_1  and  C_2
REMARK    2  A    between atoms: C_2  and  O_3
REMARK    3  A    between atoms: C_2  and  C_4
REMARK    4  A    between atoms: C_4  and  N_5
REMARK    5  A    between atoms: C_4  and  C_28
REMARK    6  A    between atoms: N_11  and  C_12
REMARK    7  A    between atoms: C_15  and  C_16
REMARK    8  A    between atoms: C_17  and  C_18
REMARK    9  A    between atoms: N_30  and  O_31
REMARK                            x       y       z     vdW  Elec       q    Type
REMARK                         _______ _______ _______ _____ _____    ______ ____
ROOT
ATOM      1  N   UNL     1       2.723   4.654  19.296  0.00  0.00    +0.000 N 
ATOM      2  C   UNL     1       3.020   5.850  18.715  0.00  0.00    +0.000 C 
ATOM      3  O   UNL     1       3.820   5.919  17.783  0.00  0.00    +0.000 OA
ATOM      4  N   UNL     1       2.355   6.923  19.262  0.00  0.00    +0.000 N 
ATOM      5  C   UNL     1       2.375   8.245  18.613  0.00  0.00    +0.000 C 
ATOM      6  C   UNL     1       1.058   9.034  18.866  0.00  0.00    +0.000 C 
ATOM      7  N   UNL     1       0.730   9.016  20.304  0.00  0.00    +0.000 N 
ATOM      8  C   UNL     1       0.679   7.675  20.908  0.00  0.00    +0.000 C 
ATOM      9  C   UNL     1       2.024   6.983  20.695  0.00  0.00    +0.000 C 
ATOM     10  H   UNL     1       1.843   4.580  19.787  0.00  0.00    +0.000 HD
ENDROOT
BRANCH   7  11
ATOM     11  C   UNL     1       0.258  10.106  21.009  0.00  0.00    +0.000 A 
ATOM     12  C   UNL     1      -0.417   9.984  22.232  0.00  0.00    +0.000 A 
ATOM     13  C   UNL     1      -0.879  11.114  22.925  0.00  0.00    +0.000 A 
ATOM     14  C   UNL     1      -0.681  12.389  22.399  0.00  0.00    +0.000 A 
ATOM     15  C   UNL     1      -0.033  12.534  21.180  0.00  0.00    +0.000 A 
ATOM     16  C   UNL     1       0.421  11.402  20.500  0.00  0.00    +0.000 A 
BRANCH  14  17
ATOM     17  C   UNL     1      -1.147  13.548  23.088  0.00  0.00    +0.000 C 
ATOM     18  C   UNL     1      -1.586  14.516  23.646  0.00  0.00    +0.000 C 
BRANCH  18  19
ATOM     19  C   UNL     1      -2.145  15.651  24.305  0.00  0.00    +0.000 A 
ATOM     20  C   UNL     1      -1.367  16.474  25.108  0.00  0.00    +0.000 A 
ATOM     21  C   UNL     1      -1.976  17.578  25.695  0.00  0.00    +0.000 A 
ATOM     22  C   UNL     1      -3.326  17.818  25.458  0.00  0.00    +0.000 A 
ATOM     23  C   UNL     1      -4.017  16.937  24.641  0.00  0.00    +0.000 A 
ATOM     24  N   UNL     1      -3.457  15.858  24.059  0.00  0.00    +0.000 NA
ENDBRANCH  18  19
ENDBRANCH  14  17
ENDBRANCH   7  11
BRANCH   1  25
ATOM     25  C   UNL     1       3.345   3.380  18.914  0.00  0.00    +0.000 C 
BRANCH  25  26
ATOM     26  C   UNL     1       3.804   2.680  20.205  0.00  0.00    +0.000 C 
ATOM     27  O   UNL     1       3.141   2.656  21.246  0.00  0.00    +0.000 OA
ATOM     28  N   UNL     1       5.012   2.038  20.133  0.00  0.00    +0.000 N 
ATOM     29  H   UNL     1       5.536   1.901  19.270  0.00  0.00    +0.000 HD
BRANCH  28  30
ATOM     30  O   UNL     1       5.395   1.307  21.281  0.00  0.00    +0.000 OA
ATOM     31  H   UNL     1       4.995   0.424  21.105  0.00  0.00    +0.000 HD
ENDBRANCH  28  30
ENDBRANCH  25  26
BRANCH  25  33
ATOM     32  C   UNL     1       0.950   2.418  18.815  0.00  0.00    +0.000 C 
ATOM     33  C   UNL     1       2.318   2.519  18.149  0.00  0.00    +0.000 C 
BRANCH  33  34
ATOM     34  O   UNL     1       2.182   3.011  16.812  0.00  0.00    +0.000 OA
ATOM     35  H   UNL     1       2.735   2.432  16.243  0.00  0.00    +0.000 HD
ENDBRANCH  33  34
ENDBRANCH  25  33
ENDBRANCH   1  25
TORSDOF 8
ENDMDL
MODEL 5
REMARK VINA RESULT:      -7.2      1.472      1.929
REMARK  Name = 
REMARK  9 active torsions:
REMARK  status: ('A' for Active; 'I' for Inactive)
REMARK    1  A    between atoms: C_1  and  C_2
REMARK    2  A    between atoms: C_2  and  O_3
REMARK    3  A    between atoms: C_2  and  C_4
REMARK    4  A    between atoms: C_4  and  N_5
REMARK    5  A    between atoms: C_4  and  C_28
REMARK    6  A    between atoms: N_11  and  C_12
REMARK    7  A    between atoms: C_15  and  C_16
REMARK    8  A    between atoms: C_17  and  C_18
REMARK    9  A    between atoms: N_30  and  O_31
REMARK                            x       y       z     vdW  Elec       q    Type
REMARK                         _______ _______ _______ _____ _____    ______ ____
ROOT
ATOM      1  N   UNL     1       2.768   4.940  18.666  0.00  0.00    +0.000 N 
ATOM      2  C   UNL     1       3.051   6.108  18.026  0.00  0.00    +0.000 C 
ATOM      3  O   UNL     1       3.768   6.123  17.027  0.00  0.00    +0.000 OA
ATOM      4  N   UNL     1       2.472   7.218  18.597  0.00  0.00    +0.000 N 
ATOM      5  C   UNL     1       2.478   8.521  17.909  0.00  0.00    +0.000 C 
ATOM      6  C   UNL     1       1.215   9.363  18.252  0.00  0.00    +0.000 C 
ATOM      7  N   UNL     1       1.015   9.394  19.713  0.00  0.00    +0.000 N 
ATOM      8  C   UNL     1       0.973   8.073  20.359  0.00  0.00    +0.000 C 
ATOM      9  C   UNL     1       2.271   7.329  20.050  0.00  0.00    +0.000 C 
ATOM     10  H   UNL     1       1.932   4.910  19.234  0.00  0.00    +0.000 HD
ENDROOT
BRANCH   7  11
ATOM     11  C   UNL     1       0.643  10.519  20.423  0.00  0.00    +0.000 A 
ATOM     12  C   UNL     1       1.041  11.813  20.061  0.00  0.00    +0.000 A 
ATOM     13  C   UNL     1       0.640  12.934  20.802  0.00  0.00    +0.000 A 
ATOM     14  C   UNL     1      -0.164  12.778  21.931  0.00  0.00    +0.000 A 
ATOM     15  C   UNL     1      -0.555  11.506  22.322  0.00  0.00    +0.000 A 
ATOM     16  C   UNL     1      -0.148  10.398  21.575  0.00  0.00    +0.000 A 
BRANCH  14  17
ATOM     17  C   UNL     1      -0.579  13.907  22.699  0.00  0.00    +0.000 C 
ATOM     18  C   UNL     1      -0.952  14.825  23.376  0.00  0.00    +0.000 C 
BRANCH  18  19
ATOM     19  C   UNL     1      -1.400  15.889  24.214  0.00  0.00    +0.000 A 
ATOM     20  C   UNL     1      -2.670  16.432  24.071  0.00  0.00    +0.000 A 
ATOM     21  C   UNL     1      -3.047  17.448  24.943  0.00  0.00    +0.000 A 
ATOM     22  C   UNL     1      -2.152  17.877  25.917  0.00  0.00    +0.000 A 
ATOM     23  C   UNL     1      -0.906  17.271  25.979  0.00  0.00    +0.000 A 
ATOM     24  N   UNL     1      -0.510  16.286  25.148  0.00  0.00    +0.000 NA
ENDBRANCH  18  19
ENDBRANCH  14  17
ENDBRANCH   7  11
BRANCH   1  25
ATOM     25  C   UNL     1       3.312   3.635  18.270  0.00  0.00    +0.000 C 
BRANCH  25  26
ATOM     26  C   UNL     1       4.774   3.576  18.745  0.00  0.00    +0.000 C 
ATOM     27  O   UNL     1       5.131   3.060  19.808  0.00  0.00    +0.000 OA
ATOM     28  N   UNL     1       5.697   4.117  17.890  0.00  0.00    +0.000 N 
ATOM     29  H   UNL     1       5.486   4.427  16.942  0.00  0.00    +0.000 HD
BRANCH  28  30
ATOM     30  O   UNL     1       7.051   3.977  18.270  0.00  0.00    +0.000 OA
ATOM     31  H   UNL     1       7.153   2.998  18.312  0.00  0.00    +0.000 HD
ENDBRANCH  28  30
ENDBRANCH  25  26
BRANCH  25  33
ATOM     32  C   UNL     1       0.972   2.614  18.664  0.00  0.00    +0.000 C 
ATOM     33  C   UNL     1       2.472   2.513  18.917  0.00  0.00    +0.000 C 
BRANCH  33  34
ATOM     34  O   UNL     1       2.961   1.239  18.485  0.00  0.00    +0.000 OA
ATOM     35  H   UNL     1       2.390   0.562  18.909  0.00  0.00    +0.000 HD
ENDBRANCH  33  34
ENDBRANCH  25  33
ENDBRANCH   1  25
TORSDOF 8
ENDMDL
MODEL 6
REMARK VINA RESULT:      -7.2      2.388      3.470
REMARK  Name = 
REMARK  9 active torsions:
REMARK  status: ('A' for Active; 'I' for Inactive)
REMARK    1  A    between atoms: C_1  and  C_2
REMARK    2  A    between atoms: C_2  and  O_3
REMARK    3  A    between atoms: C_2  and  C_4
REMARK    4  A    between atoms: C_4  and  N_5
REMARK    5  A    between atoms: C_4  and  C_28
REMARK    6  A    between atoms: N_11  and  C_12
REMARK    7  A    between atoms: C_15  and  C_16
REMARK    8  A    between atoms: C_17  and  C_18
REMARK    9  A    between atoms: N_30  and  O_31
REMARK                            x       y       z     vdW  Elec       q    Type
REMARK                         _______ _______ _______ _____ _____    ______ ____
ROOT
ATOM      1  N   UNL     1       5.105   5.588  17.428  0.00  0.00    +0.000 N 
ATOM      2  C   UNL     1       4.151   5.237  18.334  0.00  0.00    +0.000 C 
ATOM      3  O   UNL     1       4.114   4.102  18.806  0.00  0.00    +0.000 OA
ATOM      4  N   UNL     1       3.272   6.248  18.649  0.00  0.00    +0.000 N 
ATOM      5  C   UNL     1       2.330   6.119  19.774  0.00  0.00    +0.000 C 
ATOM      6  C   UNL     1       2.031   7.493  20.440  0.00  0.00    +0.000 C 
ATOM      7  N   UNL     1       1.685   8.487  19.407  0.00  0.00    +0.000 N 
ATOM      8  C   UNL     1       2.670   8.618  18.321  0.00  0.00    +0.000 C 
ATOM      9  C   UNL     1       2.861   7.255  17.658  0.00  0.00    +0.000 C 
ATOM     10  H   UNL     1       5.322   6.571  17.337  0.00  0.00    +0.000 HD
ENDROOT
BRANCH   7  11
ATOM     11  C   UNL     1       0.670   9.416  19.529  0.00  0.00    +0.000 A 
ATOM     12  C   UNL     1      -0.021   9.935  18.425  0.00  0.00    +0.000 A 
ATOM     13  C   UNL     1      -1.051  10.874  18.586  0.00  0.00    +0.000 A 
ATOM     14  C   UNL     1      -1.403  11.318  19.859  0.00  0.00    +0.000 A 
ATOM     15  C   UNL     1      -0.721  10.834  20.967  0.00  0.00    +0.000 A 
ATOM     16  C   UNL     1       0.303   9.900  20.793  0.00  0.00    +0.000 A 
BRANCH  14  17
ATOM     17  C   UNL     1      -2.446  12.276  20.041  0.00  0.00    +0.000 C 
ATOM     18  C   UNL     1      -3.329  13.063  20.242  0.00  0.00    +0.000 C 
BRANCH  18  19
ATOM     19  C   UNL     1      -4.370  13.997  20.522  0.00  0.00    +0.000 A 
ATOM     20  C   UNL     1      -4.157  15.085  21.357  0.00  0.00    +0.000 A 
ATOM     21  C   UNL     1      -5.211  15.969  21.560  0.00  0.00    +0.000 A 
ATOM     22  C   UNL     1      -6.428  15.736  20.926  0.00  0.00    +0.000 A 
ATOM     23  C   UNL     1      -6.541  14.620  20.112  0.00  0.00    +0.000 A 
ATOM     24  N   UNL     1      -5.539  13.744  19.895  0.00  0.00    +0.000 NA
ENDBRANCH  18  19
ENDBRANCH  14  17
ENDBRANCH   7  11
BRANCH   1  25
ATOM     25  C   UNL     1       6.118   4.664  16.905  0.00  0.00    +0.000 C 
BRANCH  25  26
ATOM     26  C   UNL     1       6.000   4.661  15.371  0.00  0.00    +0.000 C 
ATOM     27  O   UNL     1       5.766   5.670  14.699  0.00  0.00    +0.000 OA
ATOM     28  N   UNL     1       6.201   3.450  14.764  0.00  0.00    +0.000 N 
ATOM     29  H   UNL     1       6.535   2.617  15.246  0.00  0.00    +0.000 HD
BRANCH  28  30
ATOM     30  O   UNL     1       6.194   3.457  13.350  0.00  0.00    +0.000 OA
ATOM     31  H   UNL     1       5.382   2.936  13.147  0.00  0.00    +0.000 HD
ENDBRANCH  28  30
ENDBRANCH  25  26
BRANCH  25  33
ATOM     32  C   UNL     1       7.515   6.183  18.459  0.00  0.00    +0.000 C 
ATOM     33  C   UNL     1       7.518   5.133  17.354  0.00  0.00    +0.000 C 
BRANCH  33  34
ATOM     34  O   UNL     1       8.300   4.001  17.750  0.00  0.00    +0.000 OA
ATOM     35  H   UNL     1       8.145   3.878  18.712  0.00  0.00    +0.000 HD
ENDBRANCH  33  34
ENDBRANCH  25  33
ENDBRANCH   1  25
TORSDOF 8
ENDMDL
MODEL 7
REMARK VINA RESULT:      -7.2      5.460     12.542
REMARK  Name = 
REMARK  9 active torsions:
REMARK  status: ('A' for Active; 'I' for Inactive)
REMARK    1  A    between atoms: C_1  and  C_2
REMARK    2  A    between atoms: C_2  and  O_3
REMARK    3  A    between atoms: C_2  and  C_4
REMARK    4  A    between atoms: C_4  and  N_5
REMARK    5  A    between atoms: C_4  and  C_28
REMARK    6  A    between atoms: N_11  and  C_12
REMARK    7  A    between atoms: C_15  and  C_16
REMARK    8  A    between atoms: C_17  and  C_18
REMARK    9  A    between atoms: N_30  and  O_31
REMARK                            x       y       z     vdW  Elec       q    Type
REMARK                         _______ _______ _______ _____ _____    ______ ____
ROOT
ATOM      1  N   UNL     1      -3.646  13.962  22.636  0.00  0.00    +0.000 N 
ATOM      2  C   UNL     1      -2.971  14.343  21.516  0.00  0.00    +0.000 C 
ATOM      3  O   UNL     1      -3.196  15.427  20.980  0.00  0.00    +0.000 OA
ATOM      4  N   UNL     1      -2.052  13.421  21.071  0.00  0.00    +0.000 N 
ATOM      5  C   UNL     1      -1.076  13.761  20.021  0.00  0.00    +0.000 C 
ATOM      6  C   UNL     1       0.263  12.989  20.203  0.00  0.00    +0.000 C 
ATOM      7  N   UNL     1      -0.009  11.554  20.404  0.00  0.00    +0.000 N 
ATOM      8  C   UNL     1      -0.956  11.251  21.489  0.00  0.00    +0.000 C 
ATOM      9  C   UNL     1      -2.274  11.973  21.212  0.00  0.00    +0.000 C 
ATOM     10  H   UNL     1      -3.211  13.269  23.229  0.00  0.00    +0.000 HD
ENDROOT
BRANCH   7  11
ATOM     11  C   UNL     1       0.723  10.535  19.827  0.00  0.00    +0.000 A 
ATOM     12  C   UNL     1       0.983   9.322  20.480  0.00  0.00    +0.000 A 
ATOM     13  C   UNL     1       1.725   8.305  19.861  0.00  0.00    +0.000 A 
ATOM     14  C   UNL     1       2.231   8.489  18.575  0.00  0.00    +0.000 A 
ATOM     15  C   UNL     1       2.005   9.688  17.915  0.00  0.00    +0.000 A 
ATOM     16  C   UNL     1       1.264  10.693  18.543  0.00  0.00    +0.000 A 
BRANCH  14  17
ATOM     17  C   UNL     1       2.992   7.466  17.932  0.00  0.00    +0.000 C 
ATOM     18  C   UNL     1       3.667   6.643  17.379  0.00  0.00    +0.000 C 
BRANCH  18  19
ATOM     19  C   UNL     1       4.502   5.688  16.727  0.00  0.00    +0.000 A 
ATOM     20  C   UNL     1       5.436   6.077  15.778  0.00  0.00    +0.000 A 
ATOM     21  C   UNL     1       6.236   5.093  15.206  0.00  0.00    +0.000 A 
ATOM     22  C   UNL     1       6.074   3.769  15.602  0.00  0.00    +0.000 A 
ATOM     23  C   UNL     1       5.112   3.481  16.558  0.00  0.00    +0.000 A 
ATOM     24  N   UNL     1       4.322   4.411  17.130  0.00  0.00    +0.000 NA
ENDBRANCH  18  19
ENDBRANCH  14  17
ENDBRANCH   7  11
BRANCH   1  25
ATOM     25  C   UNL     1      -4.707  14.759  23.264  0.00  0.00    +0.000 C 
BRANCH  25  26
ATOM     26  C   UNL     1      -5.725  13.781  23.876  0.00  0.00    +0.000 C 
ATOM     27  O   UNL     1      -5.492  12.586  24.081  0.00  0.00    +0.000 OA
ATOM     28  N   UNL     1      -6.935  14.323  24.219  0.00  0.00    +0.000 N 
ATOM     29  H   UNL     1      -7.139  15.322  24.208  0.00  0.00    +0.000 HD
BRANCH  28  30
ATOM     30  O   UNL     1      -7.840  13.456  24.873  0.00  0.00    +0.000 OA
ATOM     31  H   UNL     1      -8.689  13.950  24.796  0.00  0.00    +0.000 HD
ENDBRANCH  28  30
ENDBRANCH  25  26
BRANCH  25  33
ATOM     32  C   UNL     1      -4.936  16.883  24.717  0.00  0.00    +0.000 C 
ATOM     33  C   UNL     1      -4.091  15.668  24.348  0.00  0.00    +0.000 C 
BRANCH  33  34
ATOM     34  O   UNL     1      -3.802  14.894  25.517  0.00  0.00    +0.000 OA
ATOM     35  H   UNL     1      -4.503  15.105  26.171  0.00  0.00    +0.000 HD
ENDBRANCH  33  34
ENDBRANCH  25  33
ENDBRANCH   1  25
TORSDOF 8
ENDMDL
MODEL 8
REMARK VINA RESULT:      -7.2      5.482     12.513
REMARK  Name = 
REMARK  9 active torsions:
REMARK  status: ('A' for Active; 'I' for Inactive)
REMARK    1  A    between atoms: C_1  and  C_2
REMARK    2  A    between atoms: C_2  and  O_3
REMARK    3  A    between atoms: C_2  and  C_4
REMARK    4  A    between atoms: C_4  and  N_5
REMARK    5  A    between atoms: C_4  and  C_28
REMARK    6  A    between atoms: N_11  and  C_12
REMARK    7  A    between atoms: C_15  and  C_16
REMARK    8  A    between atoms: C_17  and  C_18
REMARK    9  A    between atoms: N_30  and  O_31
REMARK                            x       y       z     vdW  Elec       q    Type
REMARK                         _______ _______ _______ _____ _____    ______ ____
ROOT
ATOM      1  N   UNL     1      -4.265  13.633  21.132  0.00  0.00    +0.000 N 
ATOM      2  C   UNL     1      -3.108  13.529  21.842  0.00  0.00    +0.000 C 
ATOM      3  O   UNL     1      -2.920  14.214  22.847  0.00  0.00    +0.000 OA
ATOM      4  N   UNL     1      -2.214  12.616  21.334  0.00  0.00    +0.000 N 
ATOM      5  C   UNL     1      -1.022  12.207  22.098  0.00  0.00    +0.000 C 
ATOM      6  C   UNL     1      -0.617  10.736  21.795  0.00  0.00    +0.000 C 
ATOM      7  N   UNL     1      -0.565  10.520  20.337  0.00  0.00    +0.000 N 
ATOM      8  C   UNL     1      -1.789  10.901  19.613  0.00  0.00    +0.000 C 
ATOM      9  C   UNL     1      -2.089  12.373  19.888  0.00  0.00    +0.000 C 
ATOM     10  H   UNL     1      -4.530  12.846  20.556  0.00  0.00    +0.000 HD
ENDROOT
BRANCH   7  11
ATOM     11  C   UNL     1       0.417   9.795  19.691  0.00  0.00    +0.000 A 
ATOM     12  C   UNL     1       0.852  10.094  18.392  0.00  0.00    +0.000 A 
ATOM     13  C   UNL     1       1.857   9.340  17.768  0.00  0.00    +0.000 A 
ATOM     14  C   UNL     1       2.441   8.263  18.432  0.00  0.00    +0.000 A 
ATOM     15  C   UNL     1       2.014   7.933  19.711  0.00  0.00    +0.000 A 
ATOM     16  C   UNL     1       1.012   8.692  20.321  0.00  0.00    +0.000 A 
BRANCH  14  17
ATOM     17  C   UNL     1       3.462   7.482  17.811  0.00  0.00    +0.000 C 
ATOM     18  C   UNL     1       4.287   6.787  17.287  0.00  0.00    +0.000 C 
BRANCH  18  19
ATOM     19  C   UNL     1       5.238   5.936  16.649  0.00  0.00    +0.000 A 
ATOM     20  C   UNL     1       5.259   5.787  15.269  0.00  0.00    +0.000 A 
ATOM     21  C   UNL     1       6.233   4.963  14.715  0.00  0.00    +0.000 A 
ATOM     22  C   UNL     1       7.143   4.326  15.554  0.00  0.00    +0.000 A 
ATOM     23  C   UNL     1       7.038   4.538  16.920  0.00  0.00    +0.000 A 
ATOM     24  N   UNL     1       6.106   5.329  17.486  0.00  0.00    +0.000 NA
ENDBRANCH  18  19
ENDBRANCH  14  17
ENDBRANCH   7  11
BRANCH   1  25
ATOM     25  C   UNL     1      -5.344  14.575  21.454  0.00  0.00    +0.000 C 
BRANCH  25  26
ATOM     26  C   UNL     1      -5.994  15.010  20.130  0.00  0.00    +0.000 C 
ATOM     27  O   UNL     1      -6.636  16.056  19.990  0.00  0.00    +0.000 OA
ATOM     28  N   UNL     1      -5.798  14.167  19.069  0.00  0.00    +0.000 N 
ATOM     29  H   UNL     1      -5.165  13.368  19.082  0.00  0.00    +0.000 HD
BRANCH  28  30
ATOM     30  O   UNL     1      -6.306  14.607  17.825  0.00  0.00    +0.000 OA
ATOM     31  H   UNL     1      -6.104  13.841  17.238  0.00  0.00    +0.000 HD
ENDBRANCH  28  30
ENDBRANCH  25  26
BRANCH  25  33
ATOM     32  C   UNL     1      -6.634  14.603  23.692  0.00  0.00    +0.000 C 
ATOM     33  C   UNL     1      -6.370  13.881  22.375  0.00  0.00    +0.000 C 
BRANCH  33  34
ATOM     34  O   UNL     1      -7.597  13.685  21.665  0.00  0.00    +0.000 OA
ATOM     35  H   UNL     1      -7.401  13.852  20.717  0.00  0.00    +0.000 HD
ENDBRANCH  33  34
ENDBRANCH  25  33
ENDBRANCH   1  25
TORSDOF 8
ENDMDL
MODEL 9
REMARK VINA RESULT:      -7.1      2.697      3.587
REMARK  Name = 
REMARK  9 active torsions:
REMARK  status: ('A' for Active; 'I' for Inactive)
REMARK    1  A    between atoms: C_1  and  C_2
REMARK    2  A    between atoms: C_2  and  O_3
REMARK    3  A    between atoms: C_2  and  C_4
REMARK    4  A    between atoms: C_4  and  N_5
REMARK    5  A    between atoms: C_4  and  C_28
REMARK    6  A    between atoms: N_11  and  C_12
REMARK    7  A    between atoms: C_15  and  C_16
REMARK    8  A    between atoms: C_17  and  C_18
REMARK    9  A    between atoms: N_30  and  O_31
REMARK                            x       y       z     vdW  Elec       q    Type
REMARK                         _______ _______ _______ _____ _____    ______ ____
ROOT
ATOM      1  N   UNL     1       4.495   6.668  17.800  0.00  0.00    +0.000 N 
ATOM      2  C   UNL     1       3.619   6.326  18.784  0.00  0.00    +0.000 C 
ATOM      3  O   UNL     1       3.715   5.248  19.370  0.00  0.00    +0.000 OA
ATOM      4  N   UNL     1       2.659   7.278  19.040  0.00  0.00    +0.000 N 
ATOM      5  C   UNL     1       1.781   7.180  20.219  0.00  0.00    +0.000 C 
ATOM      6  C   UNL     1       1.375   8.582  20.757  0.00  0.00    +0.000 C 
ATOM      7  N   UNL     1       0.890   9.425  19.648  0.00  0.00    +0.000 N 
ATOM      8  C   UNL     1       1.812   9.532  18.505  0.00  0.00    +0.000 C 
ATOM      9  C   UNL     1       2.109   8.131  17.974  0.00  0.00    +0.000 C 
ATOM     10  H   UNL     1       4.610   7.652  17.599  0.00  0.00    +0.000 HD
ENDROOT
BRANCH   7  11
ATOM     11  C   UNL     1      -0.206  10.261  19.727  0.00  0.00    +0.000 A 
ATOM     12  C   UNL     1      -1.113  10.426  18.672  0.00  0.00    +0.000 A 
ATOM     13  C   UNL     1      -2.220  11.281  18.788  0.00  0.00    +0.000 A 
ATOM     14  C   UNL     1      -2.433  11.996  19.966  0.00  0.00    +0.000 A 
ATOM     15  C   UNL     1      -1.537  11.866  21.018  0.00  0.00    +0.000 A 
ATOM     16  C   UNL     1      -0.440  11.012  20.888  0.00  0.00    +0.000 A 
BRANCH  14  17
ATOM     17  C   UNL     1      -3.551  12.873  20.100  0.00  0.00    +0.000 C 
ATOM     18  C   UNL     1      -4.486  13.607  20.265  0.00  0.00    +0.000 C 
BRANCH  18  19
ATOM     19  C   UNL     1      -5.582  14.490  20.498  0.00  0.00    +0.000 A 
ATOM     20  C   UNL     1      -5.390  15.860  20.618  0.00  0.00    +0.000 A 
ATOM     21  C   UNL     1      -6.510  16.661  20.816  0.00  0.00    +0.000 A 
ATOM     22  C   UNL     1      -7.767  16.070  20.884  0.00  0.00    +0.000 A 
ATOM     23  C   UNL     1      -7.854  14.692  20.753  0.00  0.00    +0.000 A 
ATOM     24  N   UNL     1      -6.789  13.889  20.562  0.00  0.00    +0.000 NA
ENDBRANCH  18  19
ENDBRANCH  14  17
ENDBRANCH   7  11
BRANCH   1  25
ATOM     25  C   UNL     1       5.573   5.793  17.322  0.00  0.00    +0.000 C 
BRANCH  25  26
ATOM     26  C   UNL     1       5.406   5.636  15.800  0.00  0.00    +0.000 C 
ATOM     27  O   UNL     1       5.139   6.570  15.038  0.00  0.00    +0.000 OA
ATOM     28  N   UNL     1       5.601   4.372  15.311  0.00  0.00    +0.000 N 
ATOM     29  H   UNL     1       5.961   3.594  15.862  0.00  0.00    +0.000 HD
BRANCH  28  30
ATOM     30  O   UNL     1       5.550   4.237  13.904  0.00  0.00    +0.000 OA
ATOM     31  H   UNL     1       6.296   3.617  13.730  0.00  0.00    +0.000 HD
ENDBRANCH  28  30
ENDBRANCH  25  26
BRANCH  25  33
ATOM     32  C   UNL     1       7.723   5.693  18.751  0.00  0.00    +0.000 C 
ATOM     33  C   UNL     1       6.937   6.426  17.668  0.00  0.00    +0.000 C 
BRANCH  33  34
ATOM     34  O   UNL     1       7.727   6.545  16.480  0.00  0.00    +0.000 OA
ATOM     35  H   UNL     1       8.478   7.135  16.702  0.00  0.00    +0.000 HD
ENDBRANCH  33  34
ENDBRANCH  25  33
ENDBRANCH   1  25
TORSDOF 8
ENDMDL
