MODEL 1
REMARK VINA RESULT:      -7.4      0.000      0.000
REMARK  Name = 
REMARK  10 active torsions:
REMARK  status: ('A' for Active; 'I' for Inactive)
REMARK    1  A    between atoms: C_1  and  C_2
REMARK    2  A    between atoms: C_4  and  O_5
REMARK    3  A    between atoms: C_7  and  C_8
REMARK    4  A    between atoms: C_7  and  C_9
REMARK    5  A    between atoms: C_10  and  O_11
REMARK    6  A    between atoms: C_10  and  C_12
REMARK    7  A    between atoms: C_13  and  C_14
REMARK    8  A    between atoms: C_14  and  C_15
REMARK    9  A    between atoms: C_16  and  C_17
REMARK   10  A    between atoms: C_17  and  O_19
REMARK                            x       y       z     vdW  Elec       q    Type
REMARK                         _______ _______ _______ _____ _____    ______ ____
ROOT
ATOM      1  C   UNL     1       2.512   6.410  18.104  0.00  0.00    +0.000 C 
ATOM      2  C   UNL     1       2.462   4.956  18.524  0.00  0.00    +0.000 C 
ATOM      3  C   UNL     1       1.681   4.111  17.836  0.00  0.00    +0.000 C 
ATOM      4  C   UNL     1       1.483   2.677  18.133  0.00  0.00    +0.000 C 
ATOM      5  C   UNL     1       2.177   2.106  19.361  0.00  0.00    +0.000 C 
ATOM      6  C   UNL     1       3.117   3.011  20.223  0.00  0.00    +0.000 C 
ATOM      7  C   UNL     1       2.583   2.954  21.684  0.00  0.00    +0.000 C 
ATOM      8  C   UNL     1       4.482   2.249  20.275  0.00  0.00    +0.000 C 
ATOM      9  C   UNL     1       3.269   4.546  19.747  0.00  0.00    +0.000 C 
ENDROOT
BRANCH   4  10
ATOM     10  O   UNL     1       0.077   2.473  18.260  0.00  0.00    +0.000 OA
ATOM     11  H   UNL     1      -0.345   3.348  18.223  0.00  0.00    +0.000 HD
ENDBRANCH   4  10
BRANCH   9  12
ATOM     12  O   UNL     1       2.784   5.412  20.786  0.00  0.00    +0.000 OA
ATOM     13  H   UNL     1       1.815   5.425  20.723  0.00  0.00    +0.000 HD
ENDBRANCH   9  12
BRANCH   9  14
ATOM     14  C   UNL     1       4.740   4.889  19.536  0.00  0.00    +0.000 C 
ATOM     15  C   UNL     1       5.416   4.689  18.389  0.00  0.00    +0.000 C 
BRANCH  15  16
ATOM     16  C   UNL     1       6.710   5.257  18.038  0.00  0.00    +0.000 C 
ATOM     17  C   UNL     1       7.615   5.784  19.126  0.00  0.00    +0.000 C 
ATOM     18  C   UNL     1       7.138   5.376  16.761  0.00  0.00    +0.000 C 
BRANCH  18  19
ATOM     19  C   UNL     1       6.393   5.029  15.525  0.00  0.00    +0.000 C 
ATOM     20  O   UNL     1       6.429   3.960  14.940  0.00  0.00    +0.000 OA
BRANCH  19  21
ATOM     21  O   UNL     1       5.613   6.053  15.119  0.00  0.00    +0.000 OA
ATOM     22  H   UNL     1       4.703   6.051  15.463  0.00  0.00    +0.000 HD
ENDBRANCH  19  21
ENDBRANCH  18  19
ENDBRANCH  15  16
ENDBRANCH   9  14
TORSDOF 6
ENDMDL
MODEL 2
REMARK VINA RESULT:      -7.2      2.679      5.410
REMARK  Name = 
REMARK  10 active torsions:
REMARK  status: ('A' for Active; 'I' for Inactive)
REMARK    1  A    between atoms: C_1  and  C_2
REMARK    2  A    between atoms: C_4  and  O_5
REMARK    3  A    between atoms: C_7  and  C_8
REMARK    4  A    between atoms: C_7  and  C_9
REMARK    5  A    between atoms: C_10  and  O_11
REMARK    6  A    between atoms: C_10  and  C_12
REMARK    7  A    between atoms: C_13  and  C_14
REMARK    8  A    between atoms: C_14  and  C_15
REMARK    9  A    between atoms: C_16  and  C_17
REMARK   10  A    between atoms: C_17  and  O_19
REMARK                            x       y       z     vdW  Elec       q    Type
REMARK                         _______ _______ _______ _____ _____    ______ ____
ROOT
ATOM      1  C   UNL     1       0.929   3.840  20.442  0.00  0.00    +0.000 C 
ATOM      2  C   UNL     1       2.039   3.700  19.421  0.00  0.00    +0.000 C 
ATOM      3  C   UNL     1       2.151   2.548  18.744  0.00  0.00    +0.000 C 
ATOM      4  C   UNL     1       3.194   2.228  17.747  0.00  0.00    +0.000 C 
ATOM      5  C   UNL     1       4.277   3.267  17.496  0.00  0.00    +0.000 C 
ATOM      6  C   UNL     1       4.226   4.647  18.230  0.00  0.00    +0.000 C 
ATOM      7  C   UNL     1       5.584   4.813  18.973  0.00  0.00    +0.000 C 
ATOM      8  C   UNL     1       4.270   5.718  17.091  0.00  0.00    +0.000 C 
ATOM      9  C   UNL     1       3.001   4.867  19.257  0.00  0.00    +0.000 C 
ENDROOT
BRANCH   4  10
ATOM     10  O   UNL     1       3.810   1.012  18.170  0.00  0.00    +0.000 OA
ATOM     11  H   UNL     1       4.718   1.015  17.827  0.00  0.00    +0.000 HD
ENDBRANCH   4  10
BRANCH   9  12
ATOM     12  O   UNL     1       3.524   5.069  20.579  0.00  0.00    +0.000 OA
ATOM     13  H   UNL     1       3.977   4.250  20.840  0.00  0.00    +0.000 HD
ENDBRANCH   9  12
BRANCH   9  14
ATOM     14  C   UNL     1       2.226   6.129  18.891  0.00  0.00    +0.000 C 
ATOM     15  C   UNL     1       2.166   7.239  19.650  0.00  0.00    +0.000 C 
BRANCH  15  16
ATOM     16  C   UNL     1       1.701   8.552  19.227  0.00  0.00    +0.000 C 
ATOM     17  C   UNL     1       1.992   9.033  17.825  0.00  0.00    +0.000 C 
ATOM     18  C   UNL     1       1.042   9.398  20.050  0.00  0.00    +0.000 C 
BRANCH  18  19
ATOM     19  C   UNL     1       0.731   9.197  21.488  0.00  0.00    +0.000 C 
ATOM     20  O   UNL     1       1.396   9.594  22.430  0.00  0.00    +0.000 OA
BRANCH  19  21
ATOM     21  O   UNL     1      -0.432   8.531  21.649  0.00  0.00    +0.000 OA
ATOM     22  H   UNL     1      -1.042   8.902  22.310  0.00  0.00    +0.000 HD
ENDBRANCH  19  21
ENDBRANCH  18  19
ENDBRANCH  15  16
ENDBRANCH   9  14
TORSDOF 6
ENDMDL
MODEL 3
REMARK VINA RESULT:      -7.1      2.419      5.102
REMARK  Name = 
REMARK  10 active torsions:
REMARK  status: ('A' for Active; 'I' for Inactive)
REMARK    1  A    between atoms: C_1  and  C_2
REMARK    2  A    between atoms: C_4  and  O_5
REMARK    3  A    between atoms: C_7  and  C_8
REMARK    4  A    between atoms: C_7  and  C_9
REMARK    5  A    between atoms: C_10  and  O_11
REMARK    6  A    between atoms: C_10  and  C_12
REMARK    7  A    between atoms: C_13  and  C_14
REMARK    8  A    between atoms: C_14  and  C_15
REMARK    9  A    between atoms: C_16  and  C_17
REMARK   10  A    between atoms: C_17  and  O_19
REMARK                            x       y       z     vdW  Elec       q    Type
REMARK                         _______ _______ _______ _____ _____    ______ ____
ROOT
ATOM      1  C   UNL     1       4.486   4.980  16.850  0.00  0.00    +0.000 C 
ATOM      2  C   UNL     1       3.934   4.251  18.058  0.00  0.00    +0.000 C 
ATOM      3  C   UNL     1       4.789   3.646  18.894  0.00  0.00    +0.000 C 
ATOM      4  C   UNL     1       4.421   2.860  20.090  0.00  0.00    +0.000 C 
ATOM      5  C   UNL     1       2.940   2.665  20.381  0.00  0.00    +0.000 C 
ATOM      6  C   UNL     1       1.866   3.340  19.468  0.00  0.00    +0.000 C 
ATOM      7  C   UNL     1       0.931   2.206  18.956  0.00  0.00    +0.000 C 
ATOM      8  C   UNL     1       0.970   4.175  20.441  0.00  0.00    +0.000 C 
ATOM      9  C   UNL     1       2.422   4.205  18.225  0.00  0.00    +0.000 C 
ENDROOT
BRANCH   4  10
ATOM     10  O   UNL     1       5.037   1.582  19.949  0.00  0.00    +0.000 OA
ATOM     11  H   UNL     1       4.491   1.066  19.333  0.00  0.00    +0.000 HD
ENDBRANCH   4  10
BRANCH   9  12
ATOM     12  O   UNL     1       1.958   3.619  16.998  0.00  0.00    +0.000 OA
ATOM     13  H   UNL     1       2.362   4.118  16.269  0.00  0.00    +0.000 HD
ENDBRANCH   9  12
BRANCH   9  14
ATOM     14  C   UNL     1       1.863   5.624  18.277  0.00  0.00    +0.000 C 
ATOM     15  C   UNL     1       2.401   6.633  18.986  0.00  0.00    +0.000 C 
BRANCH  15  16
ATOM     16  C   UNL     1       2.095   8.049  18.844  0.00  0.00    +0.000 C 
ATOM     17  C   UNL     1       2.546   8.792  17.608  0.00  0.00    +0.000 C 
ATOM     18  C   UNL     1       1.449   8.760  19.795  0.00  0.00    +0.000 C 
BRANCH  18  19
ATOM     19  C   UNL     1       1.000   8.284  21.127  0.00  0.00    +0.000 C 
ATOM     20  O   UNL     1      -0.075   7.767  21.382  0.00  0.00    +0.000 OA
BRANCH  19  21
ATOM     21  O   UNL     1       1.961   8.460  22.059  0.00  0.00    +0.000 OA
ATOM     22  H   UNL     1       1.726   8.183  22.962  0.00  0.00    +0.000 HD
ENDBRANCH  19  21
ENDBRANCH  18  19
ENDBRANCH  15  16
ENDBRANCH   9  14
TORSDOF 6
ENDMDL
MODEL 4
REMARK VINA RESULT:      -7.1      1.442      2.895
REMARK  Name = 
REMARK  10 active torsions:
REMARK  status: ('A' for Active; 'I' for Inactive)
REMARK    1  A    between atoms: C_1  and  C_2
REMARK    2  A    between atoms: C_4  and  O_5
REMARK    3  A    between atoms: C_7  and  C_8
REMARK    4  A    between atoms: C_7  and  C_9
REMARK    5  A    between atoms: C_10  and  O_11
REMARK    6  A    between atoms: C_10  and  C_12
REMARK    7  A    between atoms: C_13  and  C_14
REMARK    8  A    between atoms: C_14  and  C_15
REMARK    9  A    between atoms: C_16  and  C_17
REMARK   10  A    between atoms: C_17  and  O_19
REMARK                            x       y       z     vdW  Elec       q    Type
REMARK                         _______ _______ _______ _____ _____    ______ ____
ROOT
ATOM      1  C   UNL     1       5.019   1.694  20.567  0.00  0.00    +0.000 C 
ATOM      2  C   UNL     1       3.867   2.662  20.395  0.00  0.00    +0.000 C 
ATOM      3  C   UNL     1       2.866   2.640  21.287  0.00  0.00    +0.000 C 
ATOM      4  C   UNL     1       1.652   3.482  21.247  0.00  0.00    +0.000 C 
ATOM      5  C   UNL     1       1.482   4.424  20.064  0.00  0.00    +0.000 C 
ATOM      6  C   UNL     1       2.601   4.528  18.977  0.00  0.00    +0.000 C 
ATOM      7  C   UNL     1       1.926   4.231  17.606  0.00  0.00    +0.000 C 
ATOM      8  C   UNL     1       2.966   6.048  18.911  0.00  0.00    +0.000 C 
ATOM      9  C   UNL     1       3.889   3.578  19.180  0.00  0.00    +0.000 C 
ENDROOT
BRANCH   4  10
ATOM     10  O   UNL     1       0.535   2.596  21.298  0.00  0.00    +0.000 OA
ATOM     11  H   UNL     1      -0.160   3.039  21.813  0.00  0.00    +0.000 HD
ENDBRANCH   4  10
BRANCH   9  12
ATOM     12  O   UNL     1       3.986   2.672  18.069  0.00  0.00    +0.000 OA
ATOM     13  H   UNL     1       3.261   2.884  17.458  0.00  0.00    +0.000 HD
ENDBRANCH   9  12
BRANCH   9  14
ATOM     14  C   UNL     1       5.165   4.413  19.183  0.00  0.00    +0.000 C 
ATOM     15  C   UNL     1       6.040   4.479  18.162  0.00  0.00    +0.000 C 
BRANCH  15  16
ATOM     16  C   UNL     1       7.097   5.465  17.992  0.00  0.00    +0.000 C 
ATOM     17  C   UNL     1       7.900   5.915  19.190  0.00  0.00    +0.000 C 
ATOM     18  C   UNL     1       7.379   6.042  16.802  0.00  0.00    +0.000 C 
BRANCH  18  19
ATOM     19  C   UNL     1       6.668   5.844  15.514  0.00  0.00    +0.000 C 
ATOM     20  O   UNL     1       5.538   6.218  15.251  0.00  0.00    +0.000 OA
BRANCH  19  21
ATOM     21  O   UNL     1       7.452   5.210  14.616  0.00  0.00    +0.000 OA
ATOM     22  H   UNL     1       7.725   4.308  14.859  0.00  0.00    +0.000 HD
ENDBRANCH  19  21
ENDBRANCH  18  19
ENDBRANCH  15  16
ENDBRANCH   9  14
TORSDOF 6
ENDMDL
MODEL 5
REMARK VINA RESULT:      -7.1      2.046      3.458
REMARK  Name = 
REMARK  10 active torsions:
REMARK  status: ('A' for Active; 'I' for Inactive)
REMARK    1  A    between atoms: C_1  and  C_2
REMARK    2  A    between atoms: C_4  and  O_5
REMARK    3  A    between atoms: C_7  and  C_8
REMARK    4  A    between atoms: C_7  and  C_9
REMARK    5  A    between atoms: C_10  and  O_11
REMARK    6  A    between atoms: C_10  and  C_12
REMARK    7  A    between atoms: C_13  and  C_14
REMARK    8  A    between atoms: C_14  and  C_15
REMARK    9  A    between atoms: C_16  and  C_17
REMARK   10  A    between atoms: C_17  and  O_19
REMARK                            x       y       z     vdW  Elec       q    Type
REMARK                         _______ _______ _______ _____ _____    ______ ____
ROOT
ATOM      1  C   UNL     1       5.004   1.862  20.134  0.00  0.00    +0.000 C 
ATOM      2  C   UNL     1       3.749   2.708  20.165  0.00  0.00    +0.000 C 
ATOM      3  C   UNL     1       3.016   2.736  21.287  0.00  0.00    +0.000 C 
ATOM      4  C   UNL     1       1.748   3.471  21.476  0.00  0.00    +0.000 C 
ATOM      5  C   UNL     1       1.182   4.225  20.281  0.00  0.00    +0.000 C 
ATOM      6  C   UNL     1       1.970   4.260  18.931  0.00  0.00    +0.000 C 
ATOM      7  C   UNL     1       1.005   3.727  17.832  0.00  0.00    +0.000 C 
ATOM      8  C   UNL     1       2.140   5.779  18.597  0.00  0.00    +0.000 C 
ATOM      9  C   UNL     1       3.362   3.446  18.891  0.00  0.00    +0.000 C 
ENDROOT
BRANCH   4  10
ATOM     10  O   UNL     1       0.783   2.521  21.922  0.00  0.00    +0.000 OA
ATOM     11  H   UNL     1       0.896   2.424  22.882  0.00  0.00    +0.000 HD
ENDBRANCH   4  10
BRANCH   9  12
ATOM     12  O   UNL     1       3.271   2.405  17.906  0.00  0.00    +0.000 OA
ATOM     13  H   UNL     1       2.347   2.364  17.612  0.00  0.00    +0.000 HD
ENDBRANCH   9  12
BRANCH   9  14
ATOM     14  C   UNL     1       4.500   4.366  18.460  0.00  0.00    +0.000 C 
ATOM     15  C   UNL     1       4.916   4.525  17.190  0.00  0.00    +0.000 C 
BRANCH  15  16
ATOM     16  C   UNL     1       5.777   5.587  16.690  0.00  0.00    +0.000 C 
ATOM     17  C   UNL     1       5.311   6.448  15.539  0.00  0.00    +0.000 C 
ATOM     18  C   UNL     1       7.013   5.824  17.183  0.00  0.00    +0.000 C 
BRANCH  18  19
ATOM     19  C   UNL     1       7.727   5.056  18.233  0.00  0.00    +0.000 C 
ATOM     20  O   UNL     1       7.757   5.322  19.423  0.00  0.00    +0.000 OA
BRANCH  19  21
ATOM     21  O   UNL     1       8.337   3.969  17.716  0.00  0.00    +0.000 OA
ATOM     22  H   UNL     1       8.300   3.165  18.264  0.00  0.00    +0.000 HD
ENDBRANCH  19  21
ENDBRANCH  18  19
ENDBRANCH  15  16
ENDBRANCH   9  14
TORSDOF 6
ENDMDL
MODEL 6
REMARK VINA RESULT:      -7.1      1.805      5.467
REMARK  Name = 
REMARK  10 active torsions:
REMARK  status: ('A' for Active; 'I' for Inactive)
REMARK    1  A    between atoms: C_1  and  C_2
REMARK    2  A    between atoms: C_4  and  O_5
REMARK    3  A    between atoms: C_7  and  C_8
REMARK    4  A    between atoms: C_7  and  C_9
REMARK    5  A    between atoms: C_10  and  O_11
REMARK    6  A    between atoms: C_10  and  C_12
REMARK    7  A    between atoms: C_13  and  C_14
REMARK    8  A    between atoms: C_14  and  C_15
REMARK    9  A    between atoms: C_16  and  C_17
REMARK   10  A    between atoms: C_17  and  O_19
REMARK                            x       y       z     vdW  Elec       q    Type
REMARK                         _______ _______ _______ _____ _____    ______ ____
ROOT
ATOM      1  C   UNL     1       3.290   2.838  17.716  0.00  0.00    +0.000 C 
ATOM      2  C   UNL     1       4.405   3.686  17.142  0.00  0.00    +0.000 C 
ATOM      3  C   UNL     1       4.581   3.708  15.813  0.00  0.00    +0.000 C 
ATOM      4  C   UNL     1       5.640   4.445  15.091  0.00  0.00    +0.000 C 
ATOM      5  C   UNL     1       6.664   5.205  15.921  0.00  0.00    +0.000 C 
ATOM      6  C   UNL     1       6.537   5.247  17.479  0.00  0.00    +0.000 C 
ATOM      7  C   UNL     1       7.884   4.721  18.055  0.00  0.00    +0.000 C 
ATOM      8  C   UNL     1       6.523   6.768  17.846  0.00  0.00    +0.000 C 
ATOM      9  C   UNL     1       5.302   4.431  18.120  0.00  0.00    +0.000 C 
ENDROOT
BRANCH   4  10
ATOM     10  O   UNL     1       6.321   3.493  14.276  0.00  0.00    +0.000 OA
ATOM     11  H   UNL     1       6.916   3.989  13.690  0.00  0.00    +0.000 HD
ENDBRANCH   4  10
BRANCH   9  12
ATOM     12  O   UNL     1       5.813   3.396  18.974  0.00  0.00    +0.000 OA
ATOM     13  H   UNL     1       5.620   2.546  18.546  0.00  0.00    +0.000 HD
ENDBRANCH   9  12
BRANCH   9  14
ATOM     14  C   UNL     1       4.459   5.352  18.996  0.00  0.00    +0.000 C 
ATOM     15  C   UNL     1       3.149   5.598  18.812  0.00  0.00    +0.000 C 
BRANCH  15  16
ATOM     16  C   UNL     1       2.243   6.218  19.767  0.00  0.00    +0.000 C 
ATOM     17  C   UNL     1       2.106   7.722  19.801  0.00  0.00    +0.000 C 
ATOM     18  C   UNL     1       1.531   5.508  20.671  0.00  0.00    +0.000 C 
BRANCH  18  19
ATOM     19  C   UNL     1       1.573   4.042  20.901  0.00  0.00    +0.000 C 
ATOM     20  O   UNL     1       2.392   3.443  21.577  0.00  0.00    +0.000 OA
BRANCH  19  21
ATOM     21  O   UNL     1       0.545   3.421  20.285  0.00  0.00    +0.000 OA
ATOM     22  H   UNL     1       0.777   2.913  19.488  0.00  0.00    +0.000 HD
ENDBRANCH  19  21
ENDBRANCH  18  19
ENDBRANCH  15  16
ENDBRANCH   9  14
TORSDOF 6
ENDMDL
MODEL 7
REMARK VINA RESULT:      -6.9      1.894      2.362
REMARK  Name = 
REMARK  10 active torsions:
REMARK  status: ('A' for Active; 'I' for Inactive)
REMARK    1  A    between atoms: C_1  and  C_2
REMARK    2  A    between atoms: C_4  and  O_5
REMARK    3  A    between atoms: C_7  and  C_8
REMARK    4  A    between atoms: C_7  and  C_9
REMARK    5  A    between atoms: C_10  and  O_11
REMARK    6  A    between atoms: C_10  and  C_12
REMARK    7  A    between atoms: C_13  and  C_14
REMARK    8  A    between atoms: C_14  and  C_15
REMARK    9  A    between atoms: C_16  and  C_17
REMARK   10  A    between atoms: C_17  and  O_19
REMARK                            x       y       z     vdW  Elec       q    Type
REMARK                         _______ _______ _______ _____ _____    ______ ____
ROOT
ATOM      1  C   UNL     1       2.313   6.726  19.858  0.00  0.00    +0.000 C 
ATOM      2  C   UNL     1       2.271   5.216  19.762  0.00  0.00    +0.000 C 
ATOM      3  C   UNL     1       1.194   4.569  20.232  0.00  0.00    +0.000 C 
ATOM      4  C   UNL     1       1.006   3.103  20.255  0.00  0.00    +0.000 C 
ATOM      5  C   UNL     1       2.152   2.234  19.756  0.00  0.00    +0.000 C 
ATOM      6  C   UNL     1       3.446   2.897  19.180  0.00  0.00    +0.000 C 
ATOM      7  C   UNL     1       4.644   2.331  19.997  0.00  0.00    +0.000 C 
ATOM      8  C   UNL     1       3.620   2.280  17.753  0.00  0.00    +0.000 C 
ATOM      9  C   UNL     1       3.486   4.510  19.179  0.00  0.00    +0.000 C 
ENDROOT
BRANCH   4  10
ATOM     10  O   UNL     1       0.710   2.747  21.604  0.00  0.00    +0.000 OA
ATOM     11  H   UNL     1       0.972   1.819  21.721  0.00  0.00    +0.000 HD
ENDBRANCH   4  10
BRANCH   9  12
ATOM     12  O   UNL     1       4.572   4.955  20.007  0.00  0.00    +0.000 OA
ATOM     13  H   UNL     1       5.294   5.226  19.417  0.00  0.00    +0.000 HD
ENDBRANCH   9  12
BRANCH   9  14
ATOM     14  C   UNL     1       3.761   5.030  17.772  0.00  0.00    +0.000 C 
ATOM     15  C   UNL     1       4.795   5.823  17.436  0.00  0.00    +0.000 C 
BRANCH  15  16
ATOM     16  C   UNL     1       5.269   6.102  16.089  0.00  0.00    +0.000 C 
ATOM     17  C   UNL     1       4.628   7.208  15.284  0.00  0.00    +0.000 C 
ATOM     18  C   UNL     1       6.247   5.385  15.490  0.00  0.00    +0.000 C 
BRANCH  18  19
ATOM     19  C   UNL     1       6.953   4.197  16.032  0.00  0.00    +0.000 C 
ATOM     20  O   UNL     1       7.955   4.210  16.726  0.00  0.00    +0.000 OA
BRANCH  19  21
ATOM     21  O   UNL     1       6.323   3.054  15.688  0.00  0.00    +0.000 OA
ATOM     22  H   UNL     1       6.572   2.679  14.825  0.00  0.00    +0.000 HD
ENDBRANCH  19  21
ENDBRANCH  18  19
ENDBRANCH  15  16
ENDBRANCH   9  14
TORSDOF 6
ENDMDL
MODEL 8
REMARK VINA RESULT:      -6.8      1.866      5.423
REMARK  Name = 
REMARK  10 active torsions:
REMARK  status: ('A' for Active; 'I' for Inactive)
REMARK    1  A    between atoms: C_1  and  C_2
REMARK    2  A    between atoms: C_4  and  O_5
REMARK    3  A    between atoms: C_7  and  C_8
REMARK    4  A    between atoms: C_7  and  C_9
REMARK    5  A    between atoms: C_10  and  O_11
REMARK    6  A    between atoms: C_10  and  C_12
REMARK    7  A    between atoms: C_13  and  C_14
REMARK    8  A    between atoms: C_14  and  C_15
REMARK    9  A    between atoms: C_16  and  C_17
REMARK   10  A    between atoms: C_17  and  O_19
REMARK                            x       y       z     vdW  Elec       q    Type
REMARK                         _______ _______ _______ _____ _____    ______ ____
ROOT
ATOM      1  C   UNL     1       3.119   3.237  17.355  0.00  0.00    +0.000 C 
ATOM      2  C   UNL     1       4.355   3.933  16.825  0.00  0.00    +0.000 C 
ATOM      3  C   UNL     1       4.618   3.870  15.511  0.00  0.00    +0.000 C 
ATOM      4  C   UNL     1       5.796   4.453  14.835  0.00  0.00    +0.000 C 
ATOM      5  C   UNL     1       6.841   5.142  15.701  0.00  0.00    +0.000 C 
ATOM      6  C   UNL     1       6.618   5.274  17.243  0.00  0.00    +0.000 C 
ATOM      7  C   UNL     1       7.859   4.638  17.934  0.00  0.00    +0.000 C 
ATOM      8  C   UNL     1       6.745   6.804  17.544  0.00  0.00    +0.000 C 
ATOM      9  C   UNL     1       5.262   4.626  17.830  0.00  0.00    +0.000 C 
ENDROOT
BRANCH   4  10
ATOM     10  O   UNL     1       6.420   3.395  14.110  0.00  0.00    +0.000 OA
ATOM     11  H   UNL     1       6.588   2.675  14.741  0.00  0.00    +0.000 HD
ENDBRANCH   4  10
BRANCH   9  12
ATOM     12  O   UNL     1       5.601   3.587  18.762  0.00  0.00    +0.000 OA
ATOM     13  H   UNL     1       6.478   3.796  19.123  0.00  0.00    +0.000 HD
ENDBRANCH   9  12
BRANCH   9  14
ATOM     14  C   UNL     1       4.469   5.674  18.606  0.00  0.00    +0.000 C 
ATOM     15  C   UNL     1       3.283   6.178  18.219  0.00  0.00    +0.000 C 
BRANCH  15  16
ATOM     16  C   UNL     1       2.358   6.941  19.044  0.00  0.00    +0.000 C 
ATOM     17  C   UNL     1       2.196   8.425  18.811  0.00  0.00    +0.000 C 
ATOM     18  C   UNL     1       1.649   6.390  20.055  0.00  0.00    +0.000 C 
BRANCH  18  19
ATOM     19  C   UNL     1       1.712   4.989  20.541  0.00  0.00    +0.000 C 
ATOM     20  O   UNL     1       1.050   4.053  20.126  0.00  0.00    +0.000 OA
BRANCH  19  21
ATOM     21  O   UNL     1       2.643   4.848  21.508  0.00  0.00    +0.000 OA
ATOM     22  H   UNL     1       2.518   4.089  22.105  0.00  0.00    +0.000 HD
ENDBRANCH  19  21
ENDBRANCH  18  19
ENDBRANCH  15  16
ENDBRANCH   9  14
TORSDOF 6
ENDMDL
MODEL 9
REMARK VINA RESULT:      -6.8      1.821      3.312
REMARK  Name = 
REMARK  10 active torsions:
REMARK  status: ('A' for Active; 'I' for Inactive)
REMARK    1  A    between atoms: C_1  and  C_2
REMARK    2  A    between atoms: C_4  and  O_5
REMARK    3  A    between atoms: C_7  and  C_8
REMARK    4  A    between atoms: C_7  and  C_9
REMARK    5  A    between atoms: C_10  and  O_11
REMARK    6  A    between atoms: C_10  and  C_12
REMARK    7  A    between atoms: C_13  and  C_14
REMARK    8  A    between atoms: C_14  and  C_15
REMARK    9  A    between atoms: C_16  and  C_17
REMARK   10  A    between atoms: C_17  and  O_19
REMARK                            x       y       z     vdW  Elec       q    Type
REMARK                         _______ _______ _______ _____ _____    ______ ____
ROOT
ATOM      1  C   UNL     1       3.906   1.088  18.403  0.00  0.00    +0.000 C 
ATOM      2  C   UNL     1       3.303   2.368  18.942  0.00  0.00    +0.000 C 
ATOM      3  C   UNL     1       2.804   2.374  20.187  0.00  0.00    +0.000 C 
ATOM      4  C   UNL     1       2.146   3.518  20.851  0.00  0.00    +0.000 C 
ATOM      5  C   UNL     1       1.959   4.794  20.044  0.00  0.00    +0.000 C 
ATOM      6  C   UNL     1       2.516   4.888  18.586  0.00  0.00    +0.000 C 
ATOM      7  C   UNL     1       1.318   5.275  17.669  0.00  0.00    +0.000 C 
ATOM      8  C   UNL     1       3.436   6.154  18.581  0.00  0.00    +0.000 C 
ATOM      9  C   UNL     1       3.251   3.572  18.012  0.00  0.00    +0.000 C 
ENDROOT
BRANCH   4  10
ATOM     10  O   UNL     1       0.869   3.059  21.292  0.00  0.00    +0.000 OA
ATOM     11  H   UNL     1       0.697   2.214  20.844  0.00  0.00    +0.000 HD
ENDBRANCH   4  10
BRANCH   9  12
ATOM     12  O   UNL     1       2.530   3.090  16.867  0.00  0.00    +0.000 OA
ATOM     13  H   UNL     1       1.583   3.172  17.065  0.00  0.00    +0.000 HD
ENDBRANCH   9  12
BRANCH   9  14
ATOM     14  C   UNL     1       4.658   3.918  17.535  0.00  0.00    +0.000 C 
ATOM     15  C   UNL     1       5.055   3.911  16.249  0.00  0.00    +0.000 C 
BRANCH  15  16
ATOM     16  C   UNL     1       6.271   4.506  15.716  0.00  0.00    +0.000 C 
ATOM     17  C   UNL     1       7.172   5.308  16.626  0.00  0.00    +0.000 C 
ATOM     18  C   UNL     1       6.626   4.413  14.415  0.00  0.00    +0.000 C 
BRANCH  18  19
ATOM     19  C   UNL     1       5.861   3.772  13.316  0.00  0.00    +0.000 C 
ATOM     20  O   UNL     1       4.734   4.067  12.957  0.00  0.00    +0.000 OA
BRANCH  19  21
ATOM     21  O   UNL     1       6.589   2.810  12.709  0.00  0.00    +0.000 OA
ATOM     22  H   UNL     1       7.129   3.105  11.955  0.00  0.00    +0.000 HD
ENDBRANCH  19  21
ENDBRANCH  18  19
ENDBRANCH  15  16
ENDBRANCH   9  14
TORSDOF 6
ENDMDL
