MODEL 1
REMARK VINA RESULT:      -7.3      0.000      0.000
REMARK  Name = 
REMARK  9 active torsions:
REMARK  status: ('A' for Active; 'I' for Inactive)
REMARK    1  A    between atoms: C_2  and  C_5
REMARK    2  A    between atoms: N_3  and  O_4
REMARK    3  A    between atoms: C_5  and  C_6
REMARK    4  A    between atoms: C_5  and  N_18
REMARK    5  A    between atoms: C_6  and  N_7
REMARK    6  A    between atoms: N_7  and  S_8
REMARK    7  A    between atoms: S_8  and  C_11
REMARK    8  A    between atoms: N_18  and  S_19
REMARK    9  A    between atoms: S_19  and  C_22
REMARK                            x       y       z     vdW  Elec       q    Type
REMARK                         _______ _______ _______ _____ _____    ______ ____
ROOT
ATOM      1  C   UNL     1       3.764   3.436  17.367  0.00  0.00    +0.000 C 
ENDROOT
BRANCH   1   3
ATOM      2  O   UNL     1       3.403   1.308  18.508  0.00  0.00    +0.000 OA
ATOM      3  C   UNL     1       3.993   2.388  18.468  0.00  0.00    +0.000 C 
ATOM      4  N   UNL     1       4.973   2.706  19.384  0.00  0.00    +0.000 N 
ATOM      5  H   UNL     1       5.176   3.663  19.661  0.00  0.00    +0.000 HD
BRANCH   4   6
ATOM      6  O   UNL     1       5.215   1.730  20.383  0.00  0.00    +0.000 OA
ATOM      7  H   UNL     1       4.388   1.199  20.386  0.00  0.00    +0.000 HD
ENDBRANCH   4   6
ENDBRANCH   1   3
BRANCH   1   8
ATOM      8  N   UNL     1       4.789   4.496  17.525  0.00  0.00    +0.000 NA
ATOM      9  H   UNL     1       5.107   4.694  18.477  0.00  0.00    +0.000 HD
BRANCH   8  10
ATOM     10  S   UNL     1       5.912   4.911  16.353  0.00  0.00    +0.000 S 
ATOM     11  O   UNL     1       6.788   3.794  16.119  0.00  0.00    +0.000 OA
ATOM     12  O   UNL     1       5.175   5.565  15.290  0.00  0.00    +0.000 OA
BRANCH  10  13
ATOM     13  C   UNL     1       6.866   6.160  17.177  0.00  0.00    +0.000 A 
ATOM     14  C   UNL     1       7.629   5.841  18.305  0.00  0.00    +0.000 A 
ATOM     15  C   UNL     1       8.328   6.856  18.961  0.00  0.00    +0.000 A 
ATOM     16  C   UNL     1       8.279   8.162  18.471  0.00  0.00    +0.000 A 
ATOM     17 CL   UNL     1       9.131   9.411  19.287  0.00  0.00    +0.000 Cl
ATOM     18  C   UNL     1       7.544   8.469  17.323  0.00  0.00    +0.000 A 
ATOM     19  C   UNL     1       6.838   7.465  16.671  0.00  0.00    +0.000 A 
ENDBRANCH  10  13
ENDBRANCH   8  10
ENDBRANCH   1   8
BRANCH   1  20
ATOM     20  C   UNL     1       2.315   3.917  17.576  0.00  0.00    +0.000 C 
BRANCH  20  21
ATOM     21  N   UNL     1       2.235   5.308  18.002  0.00  0.00    +0.000 NA
ATOM     22  H   UNL     1       2.372   6.084  17.360  0.00  0.00    +0.000 HD
BRANCH  21  23
ATOM     23  S   UNL     1       2.382   5.744  19.606  0.00  0.00    +0.000 S 
ATOM     24  O   UNL     1       1.492   4.868  20.336  0.00  0.00    +0.000 OA
ATOM     25  O   UNL     1       3.801   5.777  19.884  0.00  0.00    +0.000 OA
BRANCH  23  26
ATOM     26  C   UNL     1       1.751   7.406  19.756  0.00  0.00    +0.000 A 
ATOM     27  C   UNL     1       1.326   7.901  20.997  0.00  0.00    +0.000 A 
ATOM     28  C   UNL     1       0.967   9.250  21.126  0.00  0.00    +0.000 A 
ATOM     29  C   UNL     1       1.062  10.103  20.028  0.00  0.00    +0.000 A 
ATOM     30 CL   UNL     1       0.667  11.770  20.191  0.00  0.00    +0.000 Cl
ATOM     31  C   UNL     1       1.502   9.618  18.796  0.00  0.00    +0.000 A 
ATOM     32  C   UNL     1       1.847   8.270  18.658  0.00  0.00    +0.000 A 
ENDBRANCH  23  26
ENDBRANCH  21  23
ENDBRANCH  20  21
ENDBRANCH   1  20
TORSDOF 9
ENDMDL
MODEL 2
REMARK VINA RESULT:      -7.2      2.869      6.523
REMARK  Name = 
REMARK  9 active torsions:
REMARK  status: ('A' for Active; 'I' for Inactive)
REMARK    1  A    between atoms: C_2  and  C_5
REMARK    2  A    between atoms: N_3  and  O_4
REMARK    3  A    between atoms: C_5  and  C_6
REMARK    4  A    between atoms: C_5  and  N_18
REMARK    5  A    between atoms: C_6  and  N_7
REMARK    6  A    between atoms: N_7  and  S_8
REMARK    7  A    between atoms: S_8  and  C_11
REMARK    8  A    between atoms: N_18  and  S_19
REMARK    9  A    between atoms: S_19  and  C_22
REMARK                            x       y       z     vdW  Elec       q    Type
REMARK                         _______ _______ _______ _____ _____    ______ ____
ROOT
ATOM      1  C   UNL     1       5.081   4.390  19.523  0.00  0.00    +0.000 C 
ENDROOT
BRANCH   1   3
ATOM      2  O   UNL     1       4.198   2.291  20.403  0.00  0.00    +0.000 OA
ATOM      3  C   UNL     1       4.448   2.993  19.423  0.00  0.00    +0.000 C 
ATOM      4  N   UNL     1       4.103   2.596  18.150  0.00  0.00    +0.000 N 
ATOM      5  H   UNL     1       4.622   2.886  17.325  0.00  0.00    +0.000 HD
BRANCH   4   6
ATOM      6  O   UNL     1       3.488   1.323  18.051  0.00  0.00    +0.000 OA
ATOM      7  H   UNL     1       2.821   1.337  18.773  0.00  0.00    +0.000 HD
ENDBRANCH   4   6
ENDBRANCH   1   3
BRANCH   1   8
ATOM      8  N   UNL     1       4.056   5.385  19.128  0.00  0.00    +0.000 NA
ATOM      9  H   UNL     1       4.171   5.829  18.213  0.00  0.00    +0.000 HD
BRANCH   8  10
ATOM     10  S   UNL     1       2.468   5.375  19.662  0.00  0.00    +0.000 S 
ATOM     11  O   UNL     1       1.670   4.583  18.764  0.00  0.00    +0.000 OA
ATOM     12  O   UNL     1       2.516   5.129  21.090  0.00  0.00    +0.000 OA
BRANCH  10  13
ATOM     13  C   UNL     1       1.987   7.067  19.435  0.00  0.00    +0.000 A 
ATOM     14  C   UNL     1       2.132   7.686  18.189  0.00  0.00    +0.000 A 
ATOM     15  C   UNL     1       1.792   9.033  18.055  0.00  0.00    +0.000 A 
ATOM     16  C   UNL     1       1.290   9.735  19.153  0.00  0.00    +0.000 A 
ATOM     17 CL   UNL     1       0.883  11.396  18.989  0.00  0.00    +0.000 Cl
ATOM     18  C   UNL     1       1.114   9.104  20.387  0.00  0.00    +0.000 A 
ATOM     19  C   UNL     1       1.459   7.764  20.529  0.00  0.00    +0.000 A 
ENDBRANCH  10  13
ENDBRANCH   8  10
ENDBRANCH   1   8
BRANCH   1  20
ATOM     20  C   UNL     1       6.307   4.335  18.591  0.00  0.00    +0.000 C 
BRANCH  20  21
ATOM     21  N   UNL     1       6.924   5.640  18.389  0.00  0.00    +0.000 NA
ATOM     22  H   UNL     1       7.311   6.185  19.155  0.00  0.00    +0.000 HD
BRANCH  21  23
ATOM     23  S   UNL     1       6.640   6.541  17.014  0.00  0.00    +0.000 S 
ATOM     24  O   UNL     1       5.377   7.210  17.234  0.00  0.00    +0.000 OA
ATOM     25  O   UNL     1       7.854   7.289  16.767  0.00  0.00    +0.000 OA
BRANCH  23  26
ATOM     26  C   UNL     1       6.418   5.389  15.670  0.00  0.00    +0.000 A 
ATOM     27  C   UNL     1       5.178   4.774  15.453  0.00  0.00    +0.000 A 
ATOM     28  C   UNL     1       4.979   3.982  14.312  0.00  0.00    +0.000 A 
ATOM     29  C   UNL     1       6.008   3.833  13.383  0.00  0.00    +0.000 A 
ATOM     30 CL   UNL     1       5.756   2.900  11.958  0.00  0.00    +0.000 Cl
ATOM     31  C   UNL     1       7.237   4.459  13.587  0.00  0.00    +0.000 A 
ATOM     32  C   UNL     1       7.445   5.237  14.730  0.00  0.00    +0.000 A 
ENDBRANCH  23  26
ENDBRANCH  21  23
ENDBRANCH  20  21
ENDBRANCH   1  20
TORSDOF 9
ENDMDL
MODEL 3
REMARK VINA RESULT:      -7.2      3.125      6.840
REMARK  Name = 
REMARK  9 active torsions:
REMARK  status: ('A' for Active; 'I' for Inactive)
REMARK    1  A    between atoms: C_2  and  C_5
REMARK    2  A    between atoms: N_3  and  O_4
REMARK    3  A    between atoms: C_5  and  C_6
REMARK    4  A    between atoms: C_5  and  N_18
REMARK    5  A    between atoms: C_6  and  N_7
REMARK    6  A    between atoms: N_7  and  S_8
REMARK    7  A    between atoms: S_8  and  C_11
REMARK    8  A    between atoms: N_18  and  S_19
REMARK    9  A    between atoms: S_19  and  C_22
REMARK                            x       y       z     vdW  Elec       q    Type
REMARK                         _______ _______ _______ _____ _____    ______ ____
ROOT
ATOM      1  C   UNL     1       5.025   4.987  19.519  0.00  0.00    +0.000 C 
ENDROOT
BRANCH   1   3
ATOM      2  O   UNL     1       4.347   3.332  17.857  0.00  0.00    +0.000 OA
ATOM      3  C   UNL     1       4.735   3.569  19.001  0.00  0.00    +0.000 C 
ATOM      4  N   UNL     1       5.011   2.553  19.890  0.00  0.00    +0.000 N 
ATOM      5  H   UNL     1       4.918   2.664  20.897  0.00  0.00    +0.000 HD
BRANCH   4   6
ATOM      6  O   UNL     1       4.778   1.240  19.410  0.00  0.00    +0.000 OA
ATOM      7  H   UNL     1       3.844   1.273  19.104  0.00  0.00    +0.000 HD
ENDBRANCH   4   6
ENDBRANCH   1   3
BRANCH   1   8
ATOM      8  N   UNL     1       4.005   5.899  18.950  0.00  0.00    +0.000 NA
ATOM      9  H   UNL     1       4.192   6.278  18.018  0.00  0.00    +0.000 HD
BRANCH   8  10
ATOM     10  S   UNL     1       2.374   5.853  19.328  0.00  0.00    +0.000 S 
ATOM     11  O   UNL     1       1.662   5.175  18.278  0.00  0.00    +0.000 OA
ATOM     12  O   UNL     1       2.286   5.452  20.719  0.00  0.00    +0.000 OA
BRANCH  10  13
ATOM     13  C   UNL     1       1.923   7.567  19.245  0.00  0.00    +0.000 A 
ATOM     14  C   UNL     1       1.364   8.209  20.355  0.00  0.00    +0.000 A 
ATOM     15  C   UNL     1       0.973   9.544  20.242  0.00  0.00    +0.000 A 
ATOM     16  C   UNL     1       1.168  10.225  19.039  0.00  0.00    +0.000 A 
ATOM     17 CL   UNL     1       0.675  11.865  18.899  0.00  0.00    +0.000 Cl
ATOM     18  C   UNL     1       1.758   9.590  17.943  0.00  0.00    +0.000 A 
ATOM     19  C   UNL     1       2.141   8.258  18.047  0.00  0.00    +0.000 A 
ENDBRANCH  10  13
ENDBRANCH   8  10
ENDBRANCH   1   8
BRANCH   1  20
ATOM     20  C   UNL     1       6.468   5.284  19.066  0.00  0.00    +0.000 C 
BRANCH  20  21
ATOM     21  N   UNL     1       6.734   4.850  17.701  0.00  0.00    +0.000 NA
ATOM     22  H   UNL     1       7.262   4.008  17.489  0.00  0.00    +0.000 HD
BRANCH  21  23
ATOM     23  S   UNL     1       6.614   5.897  16.408  0.00  0.00    +0.000 S 
ATOM     24  O   UNL     1       5.323   6.536  16.535  0.00  0.00    +0.000 OA
ATOM     25  O   UNL     1       7.838   6.670  16.404  0.00  0.00    +0.000 OA
BRANCH  23  26
ATOM     26  C   UNL     1       6.585   4.901  14.928  0.00  0.00    +0.000 A 
ATOM     27  C   UNL     1       5.540   3.996  14.696  0.00  0.00    +0.000 A 
ATOM     28  C   UNL     1       5.456   3.325  13.467  0.00  0.00    +0.000 A 
ATOM     29  C   UNL     1       6.395   3.582  12.470  0.00  0.00    +0.000 A 
ATOM     30 CL   UNL     1       6.271   2.796  10.943  0.00  0.00    +0.000 Cl
ATOM     31  C   UNL     1       7.426   4.495  12.692  0.00  0.00    +0.000 A 
ATOM     32  C   UNL     1       7.523   5.156  13.921  0.00  0.00    +0.000 A 
ENDBRANCH  23  26
ENDBRANCH  21  23
ENDBRANCH  20  21
ENDBRANCH   1  20
TORSDOF 9
ENDMDL
MODEL 4
REMARK VINA RESULT:      -7.2      3.002      6.878
REMARK  Name = 
REMARK  9 active torsions:
REMARK  status: ('A' for Active; 'I' for Inactive)
REMARK    1  A    between atoms: C_2  and  C_5
REMARK    2  A    between atoms: N_3  and  O_4
REMARK    3  A    between atoms: C_5  and  C_6
REMARK    4  A    between atoms: C_5  and  N_18
REMARK    5  A    between atoms: C_6  and  N_7
REMARK    6  A    between atoms: N_7  and  S_8
REMARK    7  A    between atoms: S_8  and  C_11
REMARK    8  A    between atoms: N_18  and  S_19
REMARK    9  A    between atoms: S_19  and  C_22
REMARK                            x       y       z     vdW  Elec       q    Type
REMARK                         _______ _______ _______ _____ _____    ______ ____
ROOT
ATOM      1  C   UNL     1       4.713   4.311  19.553  0.00  0.00    +0.000 C 
ENDROOT
BRANCH   1   3
ATOM      2  O   UNL     1       3.789   2.964  17.738  0.00  0.00    +0.000 OA
ATOM      3  C   UNL     1       4.355   3.002  18.831  0.00  0.00    +0.000 C 
ATOM      4  N   UNL     1       4.780   1.851  19.459  0.00  0.00    +0.000 N 
ATOM      5  H   UNL     1       4.850   1.772  20.470  0.00  0.00    +0.000 HD
BRANCH   4   6
ATOM      6  O   UNL     1       4.484   0.641  18.784  0.00  0.00    +0.000 OA
ATOM      7  H   UNL     1       5.369   0.310  18.514  0.00  0.00    +0.000 HD
ENDBRANCH   4   6
ENDBRANCH   1   3
BRANCH   1   8
ATOM      8  N   UNL     1       3.649   5.300  19.259  0.00  0.00    +0.000 NA
ATOM      9  H   UNL     1       3.629   5.691  18.314  0.00  0.00    +0.000 HD
BRANCH   8  10
ATOM     10  S   UNL     1       2.160   5.348  20.025  0.00  0.00    +0.000 S 
ATOM     11  O   UNL     1       1.201   4.615  19.244  0.00  0.00    +0.000 OA
ATOM     12  O   UNL     1       2.409   5.067  21.425  0.00  0.00    +0.000 OA
BRANCH  10  13
ATOM     13  C   UNL     1       1.732   7.066  19.901  0.00  0.00    +0.000 A 
ATOM     14  C   UNL     1       1.963   7.771  18.715  0.00  0.00    +0.000 A 
ATOM     15  C   UNL     1       1.663   9.133  18.666  0.00  0.00    +0.000 A 
ATOM     16  C   UNL     1       1.113   9.764  19.783  0.00  0.00    +0.000 A 
ATOM     17 CL   UNL     1       0.754  11.443  19.723  0.00  0.00    +0.000 Cl
ATOM     18  C   UNL     1       0.850   9.048  20.954  0.00  0.00    +0.000 A 
ATOM     19  C   UNL     1       1.157   7.693  21.013  0.00  0.00    +0.000 A 
ENDBRANCH  10  13
ENDBRANCH   8  10
ENDBRANCH   1   8
BRANCH   1  20
ATOM     20  C   UNL     1       6.104   4.692  19.011  0.00  0.00    +0.000 C 
BRANCH  20  21
ATOM     21  N   UNL     1       6.040   5.433  17.757  0.00  0.00    +0.000 NA
ATOM     22  H   UNL     1       5.162   5.763  17.363  0.00  0.00    +0.000 HD
BRANCH  21  23
ATOM     23  S   UNL     1       7.290   5.399  16.653  0.00  0.00    +0.000 S 
ATOM     24  O   UNL     1       7.700   6.775  16.480  0.00  0.00    +0.000 OA
ATOM     25  O   UNL     1       8.215   4.392  17.126  0.00  0.00    +0.000 OA
BRANCH  23  26
ATOM     26  C   UNL     1       6.605   4.837  15.105  0.00  0.00    +0.000 A 
ATOM     27  C   UNL     1       7.398   4.781  13.950  0.00  0.00    +0.000 A 
ATOM     28  C   UNL     1       6.888   4.205  12.778  0.00  0.00    +0.000 A 
ATOM     29  C   UNL     1       5.604   3.663  12.773  0.00  0.00    +0.000 A 
ATOM     30 CL   UNL     1       4.988   2.914  11.350  0.00  0.00    +0.000 Cl
ATOM     31  C   UNL     1       4.818   3.701  13.925  0.00  0.00    +0.000 A 
ATOM     32  C   UNL     1       5.317   4.288  15.092  0.00  0.00    +0.000 A 
ENDBRANCH  23  26
ENDBRANCH  21  23
ENDBRANCH  20  21
ENDBRANCH   1  20
TORSDOF 9
ENDMDL
MODEL 5
REMARK VINA RESULT:      -7.2      2.972      6.274
REMARK  Name = 
REMARK  9 active torsions:
REMARK  status: ('A' for Active; 'I' for Inactive)
REMARK    1  A    between atoms: C_2  and  C_5
REMARK    2  A    between atoms: N_3  and  O_4
REMARK    3  A    between atoms: C_5  and  C_6
REMARK    4  A    between atoms: C_5  and  N_18
REMARK    5  A    between atoms: C_6  and  N_7
REMARK    6  A    between atoms: N_7  and  S_8
REMARK    7  A    between atoms: S_8  and  C_11
REMARK    8  A    between atoms: N_18  and  S_19
REMARK    9  A    between atoms: S_19  and  C_22
REMARK                            x       y       z     vdW  Elec       q    Type
REMARK                         _______ _______ _______ _____ _____    ______ ____
ROOT
ATOM      1  C   UNL     1       4.165   2.639  20.017  0.00  0.00    +0.000 C 
ENDROOT
BRANCH   1   3
ATOM      2  O   UNL     1       5.515   1.375  21.611  0.00  0.00    +0.000 OA
ATOM      3  C   UNL     1       4.999   1.439  20.495  0.00  0.00    +0.000 C 
ATOM      4  N   UNL     1       5.073   0.387  19.608  0.00  0.00    +0.000 N 
ATOM      5  H   UNL     1       5.057   0.517  18.600  0.00  0.00    +0.000 HD
BRANCH   4   6
ATOM      6  O   UNL     1       5.811  -0.737  20.054  0.00  0.00    +0.000 OA
ATOM      7  H   UNL     1       6.068  -0.491  20.970  0.00  0.00    +0.000 HD
ENDBRANCH   4   6
ENDBRANCH   1   3
BRANCH   1   8
ATOM      8  N   UNL     1       2.845   2.130  19.575  0.00  0.00    +0.000 NA
ATOM      9  H   UNL     1       2.761   1.120  19.436  0.00  0.00    +0.000 HD
BRANCH   8  10
ATOM     10  S   UNL     1       1.382   2.875  19.909  0.00  0.00    +0.000 S 
ATOM     11  O   UNL     1       0.383   2.391  18.993  0.00  0.00    +0.000 OA
ATOM     12  O   UNL     1       1.213   2.825  21.348  0.00  0.00    +0.000 OA
BRANCH  10  13
ATOM     13  C   UNL     1       1.715   4.563  19.476  0.00  0.00    +0.000 A 
ATOM     14  C   UNL     1       1.807   5.545  20.468  0.00  0.00    +0.000 A 
ATOM     15  C   UNL     1       2.020   6.872  20.091  0.00  0.00    +0.000 A 
ATOM     16  C   UNL     1       2.163   7.197  18.741  0.00  0.00    +0.000 A 
ATOM     17 CL   UNL     1       2.413   8.833  18.280  0.00  0.00    +0.000 Cl
ATOM     18  C   UNL     1       2.106   6.208  17.756  0.00  0.00    +0.000 A 
ATOM     19  C   UNL     1       1.885   4.885  18.124  0.00  0.00    +0.000 A 
ENDBRANCH  10  13
ENDBRANCH   8  10
ENDBRANCH   1   8
BRANCH   1  20
ATOM     20  C   UNL     1       5.006   3.282  18.897  0.00  0.00    +0.000 C 
BRANCH  20  21
ATOM     21  N   UNL     1       5.740   4.459  19.344  0.00  0.00    +0.000 NA
ATOM     22  H   UNL     1       5.680   4.810  20.296  0.00  0.00    +0.000 HD
BRANCH  21  23
ATOM     23  S   UNL     1       6.348   5.576  18.265  0.00  0.00    +0.000 S 
ATOM     24  O   UNL     1       5.447   6.705  18.315  0.00  0.00    +0.000 OA
ATOM     25  O   UNL     1       7.752   5.719  18.585  0.00  0.00    +0.000 OA
BRANCH  23  26
ATOM     26  C   UNL     1       6.224   4.854  16.638  0.00  0.00    +0.000 A 
ATOM     27  C   UNL     1       4.989   4.414  16.143  0.00  0.00    +0.000 A 
ATOM     28  C   UNL     1       4.882   3.980  14.814  0.00  0.00    +0.000 A 
ATOM     29  C   UNL     1       5.998   4.014  13.980  0.00  0.00    +0.000 A 
ATOM     30 CL   UNL     1       5.863   3.527  12.335  0.00  0.00    +0.000 Cl
ATOM     31  C   UNL     1       7.225   4.468  14.464  0.00  0.00    +0.000 A 
ATOM     32  C   UNL     1       7.340   4.888  15.793  0.00  0.00    +0.000 A 
ENDBRANCH  23  26
ENDBRANCH  21  23
ENDBRANCH  20  21
ENDBRANCH   1  20
TORSDOF 9
ENDMDL
MODEL 6
REMARK VINA RESULT:      -7.1      3.153      6.952
REMARK  Name = 
REMARK  9 active torsions:
REMARK  status: ('A' for Active; 'I' for Inactive)
REMARK    1  A    between atoms: C_2  and  C_5
REMARK    2  A    between atoms: N_3  and  O_4
REMARK    3  A    between atoms: C_5  and  C_6
REMARK    4  A    between atoms: C_5  and  N_18
REMARK    5  A    between atoms: C_6  and  N_7
REMARK    6  A    between atoms: N_7  and  S_8
REMARK    7  A    between atoms: S_8  and  C_11
REMARK    8  A    between atoms: N_18  and  S_19
REMARK    9  A    between atoms: S_19  and  C_22
REMARK                            x       y       z     vdW  Elec       q    Type
REMARK                         _______ _______ _______ _____ _____    ______ ____
ROOT
ATOM      1  C   UNL     1       4.675   4.121  19.319  0.00  0.00    +0.000 C 
ENDROOT
BRANCH   1   3
ATOM      2  O   UNL     1       4.999   1.973  20.433  0.00  0.00    +0.000 OA
ATOM      3  C   UNL     1       4.664   2.587  19.420  0.00  0.00    +0.000 C 
ATOM      4  N   UNL     1       4.176   1.931  18.311  0.00  0.00    +0.000 N 
ATOM      5  H   UNL     1       4.284   2.292  17.367  0.00  0.00    +0.000 HD
BRANCH   4   6
ATOM      6  O   UNL     1       4.130   0.517  18.408  0.00  0.00    +0.000 OA
ATOM      7  H   UNL     1       4.388   0.221  17.507  0.00  0.00    +0.000 HD
ENDBRANCH   4   6
ENDBRANCH   1   3
BRANCH   1   8
ATOM      8  N   UNL     1       3.308   4.564  18.954  0.00  0.00    +0.000 NA
ATOM      9  H   UNL     1       2.930   4.217  18.069  0.00  0.00    +0.000 HD
BRANCH   8  10
ATOM     10  S   UNL     1       2.122   4.988  20.058  0.00  0.00    +0.000 S 
ATOM     11  O   UNL     1       0.891   4.333  19.707  0.00  0.00    +0.000 OA
ATOM     12  O   UNL     1       2.723   4.872  21.372  0.00  0.00    +0.000 OA
BRANCH  10  13
ATOM     13  C   UNL     1       1.906   6.718  19.729  0.00  0.00    +0.000 A 
ATOM     14  C   UNL     1       1.347   7.561  20.695  0.00  0.00    +0.000 A 
ATOM     15  C   UNL     1       1.144   8.907  20.387  0.00  0.00    +0.000 A 
ATOM     16  C   UNL     1       1.523   9.398  19.137  0.00  0.00    +0.000 A 
ATOM     17 CL   UNL     1       1.262  11.053  18.756  0.00  0.00    +0.000 Cl
ATOM     18  C   UNL     1       2.114   8.561  18.187  0.00  0.00    +0.000 A 
ATOM     19  C   UNL     1       2.311   7.217  18.484  0.00  0.00    +0.000 A 
ENDBRANCH  10  13
ENDBRANCH   8  10
ENDBRANCH   1   8
BRANCH   1  20
ATOM     20  C   UNL     1       5.750   4.438  18.261  0.00  0.00    +0.000 C 
BRANCH  20  21
ATOM     21  N   UNL     1       5.184   4.885  16.995  0.00  0.00    +0.000 NA
ATOM     22  H   UNL     1       4.413   4.402  16.541  0.00  0.00    +0.000 HD
BRANCH  21  23
ATOM     23  S   UNL     1       6.019   5.906  15.972  0.00  0.00    +0.000 S 
ATOM     24  O   UNL     1       5.127   7.013  15.706  0.00  0.00    +0.000 OA
ATOM     25  O   UNL     1       7.314   6.113  16.583  0.00  0.00    +0.000 OA
BRANCH  23  26
ATOM     26  C   UNL     1       6.265   5.025  14.440  0.00  0.00    +0.000 A 
ATOM     27  C   UNL     1       7.429   5.217  13.684  0.00  0.00    +0.000 A 
ATOM     28  C   UNL     1       7.673   4.416  12.559  0.00  0.00    +0.000 A 
ATOM     29  C   UNL     1       6.770   3.411  12.213  0.00  0.00    +0.000 A 
ATOM     30 CL   UNL     1       7.086   2.394  10.861  0.00  0.00    +0.000 Cl
ATOM     31  C   UNL     1       5.620   3.206  12.974  0.00  0.00    +0.000 A 
ATOM     32  C   UNL     1       5.365   4.012  14.088  0.00  0.00    +0.000 A 
ENDBRANCH  23  26
ENDBRANCH  21  23
ENDBRANCH  20  21
ENDBRANCH   1  20
TORSDOF 9
ENDMDL
MODEL 7
REMARK VINA RESULT:      -7.1      4.083      8.376
REMARK  Name = 
REMARK  9 active torsions:
REMARK  status: ('A' for Active; 'I' for Inactive)
REMARK    1  A    between atoms: C_2  and  C_5
REMARK    2  A    between atoms: N_3  and  O_4
REMARK    3  A    between atoms: C_5  and  C_6
REMARK    4  A    between atoms: C_5  and  N_18
REMARK    5  A    between atoms: C_6  and  N_7
REMARK    6  A    between atoms: N_7  and  S_8
REMARK    7  A    between atoms: S_8  and  C_11
REMARK    8  A    between atoms: N_18  and  S_19
REMARK    9  A    between atoms: S_19  and  C_22
REMARK                            x       y       z     vdW  Elec       q    Type
REMARK                         _______ _______ _______ _____ _____    ______ ____
ROOT
ATOM      1  C   UNL     1       1.524   8.903  20.739  0.00  0.00    +0.000 C 
ENDROOT
BRANCH   1   3
ATOM      2  O   UNL     1       2.239   9.437  23.012  0.00  0.00    +0.000 OA
ATOM      3  C   UNL     1       1.318   9.179  22.237  0.00  0.00    +0.000 C 
ATOM      4  N   UNL     1       0.004   9.195  22.653  0.00  0.00    +0.000 N 
ATOM      5  H   UNL     1      -0.714   8.615  22.226  0.00  0.00    +0.000 HD
BRANCH   4   6
ATOM      6  O   UNL     1      -0.199   9.482  24.026  0.00  0.00    +0.000 OA
ATOM      7  H   UNL     1      -0.869   8.817  24.300  0.00  0.00    +0.000 HD
ENDBRANCH   4   6
ENDBRANCH   1   3
BRANCH   1   8
ATOM      8  N   UNL     1       0.371   9.477  20.005  0.00  0.00    +0.000 NA
ATOM      9  H   UNL     1      -0.410   9.821  20.568  0.00  0.00    +0.000 HD
BRANCH   8  10
ATOM     10  S   UNL     1       0.473  10.205  18.500  0.00  0.00    +0.000 S 
ATOM     11  O   UNL     1       1.144  11.470  18.629  0.00  0.00    +0.000 OA
ATOM     12  O   UNL     1       0.909   9.178  17.575  0.00  0.00    +0.000 OA
BRANCH  10  13
ATOM     13  C   UNL     1      -1.229  10.550  18.137  0.00  0.00    +0.000 A 
ATOM     14  C   UNL     1      -1.872   9.911  17.072  0.00  0.00    +0.000 A 
ATOM     15  C   UNL     1      -3.197  10.242  16.781  0.00  0.00    +0.000 A 
ATOM     16  C   UNL     1      -3.868  11.180  17.568  0.00  0.00    +0.000 A 
ATOM     17 CL   UNL     1      -5.494  11.594  17.200  0.00  0.00    +0.000 Cl
ATOM     18  C   UNL     1      -3.233  11.790  18.653  0.00  0.00    +0.000 A 
ATOM     19  C   UNL     1      -1.910  11.472  18.942  0.00  0.00    +0.000 A 
ENDBRANCH  10  13
ENDBRANCH   8  10
ENDBRANCH   1   8
BRANCH   1  20
ATOM     20  C   UNL     1       1.646   7.370  20.634  0.00  0.00    +0.000 C 
BRANCH  20  21
ATOM     21  N   UNL     1       2.291   6.936  19.402  0.00  0.00    +0.000 NA
ATOM     22  H   UNL     1       2.269   7.490  18.550  0.00  0.00    +0.000 HD
BRANCH  21  23
ATOM     23  S   UNL     1       2.702   5.340  19.142  0.00  0.00    +0.000 S 
ATOM     24  O   UNL     1       3.513   4.952  20.274  0.00  0.00    +0.000 OA
ATOM     25  O   UNL     1       1.466   4.654  18.830  0.00  0.00    +0.000 OA
BRANCH  23  26
ATOM     26  C   UNL     1       3.738   5.297  17.690  0.00  0.00    +0.000 A 
ATOM     27  C   UNL     1       4.382   6.456  17.236  0.00  0.00    +0.000 A 
ATOM     28  C   UNL     1       5.303   6.377  16.181  0.00  0.00    +0.000 A 
ATOM     29  C   UNL     1       5.596   5.142  15.606  0.00  0.00    +0.000 A 
ATOM     30 CL   UNL     1       6.759   5.032  14.342  0.00  0.00    +0.000 Cl
ATOM     31  C   UNL     1       4.971   3.984  16.067  0.00  0.00    +0.000 A 
ATOM     32  C   UNL     1       4.041   4.059  17.109  0.00  0.00    +0.000 A 
ENDBRANCH  23  26
ENDBRANCH  21  23
ENDBRANCH  20  21
ENDBRANCH   1  20
TORSDOF 9
ENDMDL
MODEL 8
REMARK VINA RESULT:      -7.1      3.902      8.184
REMARK  Name = 
REMARK  9 active torsions:
REMARK  status: ('A' for Active; 'I' for Inactive)
REMARK    1  A    between atoms: C_2  and  C_5
REMARK    2  A    between atoms: N_3  and  O_4
REMARK    3  A    between atoms: C_5  and  C_6
REMARK    4  A    between atoms: C_5  and  N_18
REMARK    5  A    between atoms: C_6  and  N_7
REMARK    6  A    between atoms: N_7  and  S_8
REMARK    7  A    between atoms: S_8  and  C_11
REMARK    8  A    between atoms: N_18  and  S_19
REMARK    9  A    between atoms: S_19  and  C_22
REMARK                            x       y       z     vdW  Elec       q    Type
REMARK                         _______ _______ _______ _____ _____    ______ ____
ROOT
ATOM      1  C   UNL     1       1.505   8.327  20.719  0.00  0.00    +0.000 C 
ENDROOT
BRANCH   1   3
ATOM      2  O   UNL     1      -0.731   8.075  21.667  0.00  0.00    +0.000 OA
ATOM      3  C   UNL     1       0.387   8.586  21.741  0.00  0.00    +0.000 C 
ATOM      4  N   UNL     1       0.742   9.383  22.808  0.00  0.00    +0.000 N 
ATOM      5  H   UNL     1       1.427  10.131  22.730  0.00  0.00    +0.000 HD
BRANCH   4   6
ATOM      6  O   UNL     1      -0.272   9.600  23.774  0.00  0.00    +0.000 OA
ATOM      7  H   UNL     1      -1.081   9.726  23.229  0.00  0.00    +0.000 HD
ENDBRANCH   4   6
ENDBRANCH   1   3
BRANCH   1   8
ATOM      8  N   UNL     1       1.114   8.972  19.442  0.00  0.00    +0.000 NA
ATOM      9  H   UNL     1       0.500   8.438  18.823  0.00  0.00    +0.000 HD
BRANCH   8  10
ATOM     10  S   UNL     1       1.008  10.628  19.210  0.00  0.00    +0.000 S 
ATOM     11  O   UNL     1       1.113  11.293  20.481  0.00  0.00    +0.000 OA
ATOM     12  O   UNL     1       1.871  10.942  18.088  0.00  0.00    +0.000 OA
BRANCH  10  13
ATOM     13  C   UNL     1      -0.667  10.820  18.656  0.00  0.00    +0.000 A 
ATOM     14  C   UNL     1      -1.508  11.764  19.253  0.00  0.00    +0.000 A 
ATOM     15  C   UNL     1      -2.835  11.856  18.829  0.00  0.00    +0.000 A 
ATOM     16  C   UNL     1      -3.295  11.029  17.803  0.00  0.00    +0.000 A 
ATOM     17 CL   UNL     1      -4.931  11.136  17.291  0.00  0.00    +0.000 Cl
ATOM     18  C   UNL     1      -2.441  10.111  17.185  0.00  0.00    +0.000 A 
ATOM     19  C   UNL     1      -1.121  10.008  17.609  0.00  0.00    +0.000 A 
ENDBRANCH  10  13
ENDBRANCH   8  10
ENDBRANCH   1   8
BRANCH   1  20
ATOM     20  C   UNL     1       1.624   6.792  20.645  0.00  0.00    +0.000 C 
BRANCH  20  21
ATOM     21  N   UNL     1       2.769   6.350  19.858  0.00  0.00    +0.000 NA
ATOM     22  H   UNL     1       3.441   7.001  19.460  0.00  0.00    +0.000 HD
BRANCH  21  23
ATOM     23  S   UNL     1       2.822   4.836  19.161  0.00  0.00    +0.000 S 
ATOM     24  O   UNL     1       3.328   3.948  20.185  0.00  0.00    +0.000 OA
ATOM     25  O   UNL     1       1.523   4.626  18.558  0.00  0.00    +0.000 OA
BRANCH  23  26
ATOM     26  C   UNL     1       4.033   4.904  17.853  0.00  0.00    +0.000 A 
ATOM     27  C   UNL     1       4.563   3.727  17.307  0.00  0.00    +0.000 A 
ATOM     28  C   UNL     1       5.405   3.792  16.188  0.00  0.00    +0.000 A 
ATOM     29  C   UNL     1       5.689   5.026  15.604  0.00  0.00    +0.000 A 
ATOM     30 CL   UNL     1       6.685   5.109  14.202  0.00  0.00    +0.000 Cl
ATOM     31  C   UNL     1       5.149   6.197  16.134  0.00  0.00    +0.000 A 
ATOM     32  C   UNL     1       4.321   6.139  17.259  0.00  0.00    +0.000 A 
ENDBRANCH  23  26
ENDBRANCH  21  23
ENDBRANCH  20  21
ENDBRANCH   1  20
TORSDOF 9
ENDMDL
MODEL 9
REMARK VINA RESULT:      -7.0      2.902      6.546
REMARK  Name = 
REMARK  9 active torsions:
REMARK  status: ('A' for Active; 'I' for Inactive)
REMARK    1  A    between atoms: C_2  and  C_5
REMARK    2  A    between atoms: N_3  and  O_4
REMARK    3  A    between atoms: C_5  and  C_6
REMARK    4  A    between atoms: C_5  and  N_18
REMARK    5  A    between atoms: C_6  and  N_7
REMARK    6  A    between atoms: N_7  and  S_8
REMARK    7  A    between atoms: S_8  and  C_11
REMARK    8  A    between atoms: N_18  and  S_19
REMARK    9  A    between atoms: S_19  and  C_22
REMARK                            x       y       z     vdW  Elec       q    Type
REMARK                         _______ _______ _______ _____ _____    ______ ____
ROOT
ATOM      1  C   UNL     1       4.095   4.461  19.961  0.00  0.00    +0.000 C 
ENDROOT
BRANCH   1   3
ATOM      2  O   UNL     1       2.049   3.195  20.375  0.00  0.00    +0.000 OA
ATOM      3  C   UNL     1       3.029   3.396  19.658  0.00  0.00    +0.000 C 
ATOM      4  N   UNL     1       3.202   2.716  18.472  0.00  0.00    +0.000 N 
ATOM      5  H   UNL     1       4.120   2.521  18.079  0.00  0.00    +0.000 HD
BRANCH   4   6
ATOM      6  O   UNL     1       2.206   1.755  18.167  0.00  0.00    +0.000 OA
ATOM      7  H   UNL     1       2.376   1.038  18.818  0.00  0.00    +0.000 HD
ENDBRANCH   4   6
ENDBRANCH   1   3
BRANCH   1   8
ATOM      8  N   UNL     1       3.466   5.794  19.806  0.00  0.00    +0.000 NA
ATOM      9  H   UNL     1       3.740   6.516  20.478  0.00  0.00    +0.000 HD
BRANCH   8  10
ATOM     10  S   UNL     1       2.913   6.419  18.354  0.00  0.00    +0.000 S 
ATOM     11  O   UNL     1       4.034   6.870  17.574  0.00  0.00    +0.000 OA
ATOM     12  O   UNL     1       1.934   5.477  17.847  0.00  0.00    +0.000 OA
BRANCH  10  13
ATOM     13  C   UNL     1       2.028   7.864  18.882  0.00  0.00    +0.000 A 
ATOM     14  C   UNL     1       1.720   8.880  17.971  0.00  0.00    +0.000 A 
ATOM     15  C   UNL     1       1.068  10.026  18.428  0.00  0.00    +0.000 A 
ATOM     16  C   UNL     1       0.710  10.133  19.773  0.00  0.00    +0.000 A 
ATOM     17 CL   UNL     1      -0.082  11.550  20.335  0.00  0.00    +0.000 Cl
ATOM     18  C   UNL     1       0.989   9.100  20.672  0.00  0.00    +0.000 A 
ATOM     19  C   UNL     1       1.646   7.959  20.226  0.00  0.00    +0.000 A 
ENDBRANCH  10  13
ENDBRANCH   8  10
ENDBRANCH   1   8
BRANCH   1  20
ATOM     20  C   UNL     1       5.233   4.176  18.961  0.00  0.00    +0.000 C 
BRANCH  20  21
ATOM     21  N   UNL     1       6.074   5.339  18.713  0.00  0.00    +0.000 NA
ATOM     22  H   UNL     1       5.761   6.289  18.899  0.00  0.00    +0.000 HD
BRANCH  21  23
ATOM     23  S   UNL     1       7.396   5.266  17.698  0.00  0.00    +0.000 S 
ATOM     24  O   UNL     1       7.814   6.636  17.495  0.00  0.00    +0.000 OA
ATOM     25  O   UNL     1       8.289   4.284  18.273  0.00  0.00    +0.000 OA
BRANCH  23  26
ATOM     26  C   UNL     1       6.818   4.637  16.132  0.00  0.00    +0.000 A 
ATOM     27  C   UNL     1       5.603   3.944  16.044  0.00  0.00    +0.000 A 
ATOM     28  C   UNL     1       5.095   3.579  14.789  0.00  0.00    +0.000 A 
ATOM     29  C   UNL     1       5.785   3.934  13.631  0.00  0.00    +0.000 A 
ATOM     30 CL   UNL     1       5.143   3.530  12.085  0.00  0.00    +0.000 Cl
ATOM     31  C   UNL     1       6.985   4.639  13.714  0.00  0.00    +0.000 A 
ATOM     32  C   UNL     1       7.504   4.992  14.963  0.00  0.00    +0.000 A 
ENDBRANCH  23  26
ENDBRANCH  21  23
ENDBRANCH  20  21
ENDBRANCH   1  20
TORSDOF 9
ENDMDL
