MODEL 1
REMARK VINA RESULT:      -6.6      0.000      0.000
REMARK  Name = 
REMARK  22 active torsions:
REMARK  status: ('A' for Active; 'I' for Inactive)
REMARK    1  A    between atoms: C_1  and  C_2
REMARK    2  A    between atoms: C_2  and  N_3
REMARK    3  A    between atoms: N_3  and  C_4
REMARK    4  A    between atoms: N_3  and  C_6
REMARK    5  A    between atoms: C_4  and  C_5
REMARK    6  A    between atoms: C_6  and  C_7
REMARK    7  A    between atoms: C_7  and  C_8
REMARK    8  A    between atoms: C_8  and  C_9
REMARK    9  A    between atoms: C_9  and  C_10
REMARK   10  A    between atoms: C_10  and  O_11
REMARK   11  A    between atoms: O_11  and  C_12
REMARK   12  A    between atoms: C_12  and  C_14
REMARK   13  A    between atoms: C_14  and  C_15
REMARK   14  A    between atoms: C_15  and  C_16
REMARK   15  A    between atoms: C_15  and  C_17
REMARK   16  A    between atoms: C_17  and  C_18
REMARK   17  A    between atoms: C_18  and  C_19
REMARK   18  A    between atoms: C_20  and  C_21
REMARK   19  A    between atoms: C_21  and  O_22
REMARK   20  A    between atoms: C_26  and  C_27
REMARK   21  A    between atoms: C_26  and  C_28
REMARK   22  A    between atoms: C_32  and  C_33
REMARK                            x       y       z     vdW  Elec       q    Type
REMARK                         _______ _______ _______ _____ _____    ______ ____
ROOT
ATOM      1  C   UNL     1       1.763   7.695  20.782  0.00  0.00    +0.000 C 
ENDROOT
BRANCH   1   2
ATOM      2  C   UNL     1       0.820   8.954  20.380  0.00  0.00    +0.000 C 
ATOM      3  C   UNL     1       1.136   9.499  18.992  0.00  0.00    +0.000 C 
BRANCH   2   4
ATOM      4  C   UNL     1       0.881  10.101  21.425  0.00  0.00    +0.000 C 
BRANCH   4   5
ATOM      5  C   UNL     1      -0.123  10.036  22.561  0.00  0.00    +0.000 C 
ATOM      6  O   UNL     1      -0.781   9.089  22.876  0.00  0.00    +0.000 OA
BRANCH   5   7
ATOM      7  O   UNL     1      -0.306  11.330  23.016  0.00  0.00    +0.000 OA
BRANCH   7   8
ATOM      8  C   UNL     1      -1.663  11.667  23.231  0.00  0.00    +0.000 C 
BRANCH   8   9
ATOM      9  C   UNL     1      -1.834  13.172  23.314  0.00  0.00    +0.000 C 
BRANCH   9  10
ATOM     10  C   UNL     1      -2.647  13.657  22.134  0.00  0.00    +0.000 C 
BRANCH  10  11
ATOM     11  C   UNL     1      -2.946  12.504  21.180  0.00  0.00    +0.000 C 
BRANCH  11  12
ATOM     12  C   UNL     1      -4.063  12.846  20.189  0.00  0.00    +0.000 C 
BRANCH  12  13
ATOM     13  N   UNL     1      -3.923  12.194  18.874  0.00  0.00    +0.000 NA
BRANCH  13  14
ATOM     14  C   UNL     1      -5.150  11.472  18.504  0.00  0.00    +0.000 C 
ATOM     15  C   UNL     1      -5.961  12.089  17.368  0.00  0.00    +0.000 C 
ENDBRANCH  13  14
BRANCH  13  17
ATOM     16  C   UNL     1      -1.839  11.656  17.547  0.00  0.00    +0.000 C 
ATOM     17  C   UNL     1      -2.691  11.393  18.783  0.00  0.00    +0.000 C 
ENDBRANCH  13  17
ENDBRANCH  12  13
ENDBRANCH  11  12
ENDBRANCH  10  11
ENDBRANCH   9  10
ENDBRANCH   8   9
ENDBRANCH   7   8
ENDBRANCH   5   7
ENDBRANCH   4   5
ENDBRANCH   2   4
ENDBRANCH   1   2
BRANCH   1  18
ATOM     18  C   UNL     1       1.863   6.775  19.544  0.00  0.00    +0.000 C 
BRANCH  18  19
ATOM     19  C   UNL     1       2.993   6.618  18.234  0.00  0.00    +0.000 C 
ATOM     20  C   UNL     1       2.818   5.189  18.702  0.00  0.00    +0.000 C 
ATOM     21  C   UNL     1       3.689   4.684  19.655  0.00  0.00    +0.000 C 
ATOM     22  C   UNL     1       5.246   5.043  19.584  0.00  0.00    +0.000 C 
ATOM     23  C   UNL     1       5.618   5.940  18.376  0.00  0.00    +0.000 C 
ATOM     24  C   UNL     1       7.112   5.874  17.785  0.00  0.00    +0.000 C 
ATOM     25  C   UNL     1       7.749   4.464  17.852  0.00  0.00    +0.000 C 
ATOM     26  C   UNL     1       8.103   6.822  18.537  0.00  0.00    +0.000 C 
ATOM     27  C   UNL     1       7.152   6.435  16.333  0.00  0.00    +0.000 C 
ATOM     28  C   UNL     1       6.038   5.917  15.461  0.00  0.00    +0.000 C 
ATOM     29  C   UNL     1       4.700   6.437  16.024  0.00  0.00    +0.000 C 
ATOM     30  C   UNL     1       4.392   5.783  17.387  0.00  0.00    +0.000 C 
ATOM     31  C   UNL     1       4.272   4.174  16.913  0.00  0.00    +0.000 C 
BRANCH  20  32
ATOM     32  C   UNL     1       1.690   4.708  17.711  0.00  0.00    +0.000 C 
BRANCH  32  33
ATOM     33  O   UNL     1       1.217   3.397  17.915  0.00  0.00    +0.000 OA
ATOM     34  H   UNL     1       0.482   3.289  17.330  0.00  0.00    +0.000 HD
ENDBRANCH  32  33
ENDBRANCH  20  32
ENDBRANCH  18  19
ENDBRANCH   1  18
TORSDOF 16
ENDMDL
MODEL 2
REMARK VINA RESULT:      -6.5      1.519      2.269
REMARK  Name = 
REMARK  22 active torsions:
REMARK  status: ('A' for Active; 'I' for Inactive)
REMARK    1  A    between atoms: C_1  and  C_2
REMARK    2  A    between atoms: C_2  and  N_3
REMARK    3  A    between atoms: N_3  and  C_4
REMARK    4  A    between atoms: N_3  and  C_6
REMARK    5  A    between atoms: C_4  and  C_5
REMARK    6  A    between atoms: C_6  and  C_7
REMARK    7  A    between atoms: C_7  and  C_8
REMARK    8  A    between atoms: C_8  and  C_9
REMARK    9  A    between atoms: C_9  and  C_10
REMARK   10  A    between atoms: C_10  and  O_11
REMARK   11  A    between atoms: O_11  and  C_12
REMARK   12  A    between atoms: C_12  and  C_14
REMARK   13  A    between atoms: C_14  and  C_15
REMARK   14  A    between atoms: C_15  and  C_16
REMARK   15  A    between atoms: C_15  and  C_17
REMARK   16  A    between atoms: C_17  and  C_18
REMARK   17  A    between atoms: C_18  and  C_19
REMARK   18  A    between atoms: C_20  and  C_21
REMARK   19  A    between atoms: C_21  and  O_22
REMARK   20  A    between atoms: C_26  and  C_27
REMARK   21  A    between atoms: C_26  and  C_28
REMARK   22  A    between atoms: C_32  and  C_33
REMARK                            x       y       z     vdW  Elec       q    Type
REMARK                         _______ _______ _______ _____ _____    ______ ____
ROOT
ATOM      1  C   UNL     1       1.621   7.811  20.962  0.00  0.00    +0.000 C 
ENDROOT
BRANCH   1   2
ATOM      2  C   UNL     1       0.467   8.835  20.457  0.00  0.00    +0.000 C 
ATOM      3  C   UNL     1       1.042  10.076  19.784  0.00  0.00    +0.000 C 
BRANCH   2   4
ATOM      4  C   UNL     1      -0.499   9.253  21.598  0.00  0.00    +0.000 C 
BRANCH   4   5
ATOM      5  C   UNL     1       0.121   9.971  22.782  0.00  0.00    +0.000 C 
ATOM      6  O   UNL     1       0.494   9.470  23.802  0.00  0.00    +0.000 OA
BRANCH   5   7
ATOM      7  O   UNL     1      -0.032  11.328  22.561  0.00  0.00    +0.000 OA
BRANCH   7   8
ATOM      8  C   UNL     1      -1.349  11.792  22.790  0.00  0.00    +0.000 C 
BRANCH   8   9
ATOM      9  C   UNL     1      -1.334  13.236  23.258  0.00  0.00    +0.000 C 
BRANCH   9  10
ATOM     10  C   UNL     1      -2.222  14.069  22.362  0.00  0.00    +0.000 C 
BRANCH  10  11
ATOM     11  C   UNL     1      -1.391  15.073  21.568  0.00  0.00    +0.000 C 
BRANCH  11  12
ATOM     12  C   UNL     1      -1.313  14.715  20.081  0.00  0.00    +0.000 C 
BRANCH  12  13
ATOM     13  N   UNL     1      -0.417  13.583  19.780  0.00  0.00    +0.000 NA
BRANCH  13  14
ATOM     14  C   UNL     1       0.928  13.805  20.332  0.00  0.00    +0.000 C 
ATOM     15  C   UNL     1       2.076  13.707  19.332  0.00  0.00    +0.000 C 
ENDBRANCH  13  14
BRANCH  13  17
ATOM     16  C   UNL     1      -1.432  12.130  17.977  0.00  0.00    +0.000 C 
ATOM     17  C   UNL     1      -0.441  13.225  18.352  0.00  0.00    +0.000 C 
ENDBRANCH  13  17
ENDBRANCH  12  13
ENDBRANCH  11  12
ENDBRANCH  10  11
ENDBRANCH   9  10
ENDBRANCH   8   9
ENDBRANCH   7   8
ENDBRANCH   5   7
ENDBRANCH   4   5
ENDBRANCH   2   4
ENDBRANCH   1   2
BRANCH   1  18
ATOM     18  C   UNL     1       1.870   6.794  19.824  0.00  0.00    +0.000 C 
BRANCH  18  19
ATOM     19  C   UNL     1       2.967   6.722  18.478  0.00  0.00    +0.000 C 
ATOM     20  C   UNL     1       2.760   5.263  18.825  0.00  0.00    +0.000 C 
ATOM     21  C   UNL     1       3.636   4.652  19.710  0.00  0.00    +0.000 C 
ATOM     22  C   UNL     1       5.200   4.973  19.633  0.00  0.00    +0.000 C 
ATOM     23  C   UNL     1       5.574   5.961  18.498  0.00  0.00    +0.000 C 
ATOM     24  C   UNL     1       7.052   5.906  17.868  0.00  0.00    +0.000 C 
ATOM     25  C   UNL     1       7.648   4.478  17.797  0.00  0.00    +0.000 C 
ATOM     26  C   UNL     1       8.086   6.756  18.675  0.00  0.00    +0.000 C 
ATOM     27  C   UNL     1       7.078   6.591  16.470  0.00  0.00    +0.000 C 
ATOM     28  C   UNL     1       5.930   6.182  15.583  0.00  0.00    +0.000 C 
ATOM     29  C   UNL     1       4.620   6.687  16.221  0.00  0.00    +0.000 C 
ATOM     30  C   UNL     1       4.322   5.926  17.529  0.00  0.00    +0.000 C 
ATOM     31  C   UNL     1       4.145   4.368  16.920  0.00  0.00    +0.000 C 
BRANCH  20  32
ATOM     32  C   UNL     1       1.597   4.901  17.823  0.00  0.00    +0.000 C 
BRANCH  32  33
ATOM     33  O   UNL     1       1.043   3.615  17.969  0.00  0.00    +0.000 OA
ATOM     34  H   UNL     1       0.129   3.695  17.746  0.00  0.00    +0.000 HD
ENDBRANCH  32  33
ENDBRANCH  20  32
ENDBRANCH  18  19
ENDBRANCH   1  18
TORSDOF 16
ENDMDL
MODEL 3
REMARK VINA RESULT:      -6.5      3.400      9.810
REMARK  Name = 
REMARK  22 active torsions:
REMARK  status: ('A' for Active; 'I' for Inactive)
REMARK    1  A    between atoms: C_1  and  C_2
REMARK    2  A    between atoms: C_2  and  N_3
REMARK    3  A    between atoms: N_3  and  C_4
REMARK    4  A    between atoms: N_3  and  C_6
REMARK    5  A    between atoms: C_4  and  C_5
REMARK    6  A    between atoms: C_6  and  C_7
REMARK    7  A    between atoms: C_7  and  C_8
REMARK    8  A    between atoms: C_8  and  C_9
REMARK    9  A    between atoms: C_9  and  C_10
REMARK   10  A    between atoms: C_10  and  O_11
REMARK   11  A    between atoms: O_11  and  C_12
REMARK   12  A    between atoms: C_12  and  C_14
REMARK   13  A    between atoms: C_14  and  C_15
REMARK   14  A    between atoms: C_15  and  C_16
REMARK   15  A    between atoms: C_15  and  C_17
REMARK   16  A    between atoms: C_17  and  C_18
REMARK   17  A    between atoms: C_18  and  C_19
REMARK   18  A    between atoms: C_20  and  C_21
REMARK   19  A    between atoms: C_21  and  O_22
REMARK   20  A    between atoms: C_26  and  C_27
REMARK   21  A    between atoms: C_26  and  C_28
REMARK   22  A    between atoms: C_32  and  C_33
REMARK                            x       y       z     vdW  Elec       q    Type
REMARK                         _______ _______ _______ _____ _____    ______ ____
ROOT
ATOM      1  C   UNL     1       1.935   7.661  20.057  0.00  0.00    +0.000 C 
ENDROOT
BRANCH   1   2
ATOM      2  C   UNL     1       2.602   6.870  18.807  0.00  0.00    +0.000 C 
ATOM      3  C   UNL     1       3.134   7.815  17.735  0.00  0.00    +0.000 C 
BRANCH   2   4
ATOM      4  C   UNL     1       1.631   5.841  18.167  0.00  0.00    +0.000 C 
BRANCH   4   5
ATOM      5  C   UNL     1       1.950   4.375  18.398  0.00  0.00    +0.000 C 
ATOM      6  O   UNL     1       1.685   3.734  19.373  0.00  0.00    +0.000 OA
BRANCH   5   7
ATOM      7  O   UNL     1       2.800   3.979  17.381  0.00  0.00    +0.000 OA
BRANCH   7   8
ATOM      8  C   UNL     1       4.072   3.563  17.837  0.00  0.00    +0.000 C 
BRANCH   8   9
ATOM      9  C   UNL     1       5.054   3.479  16.683  0.00  0.00    +0.000 C 
BRANCH   9  10
ATOM     10  C   UNL     1       4.679   4.490  15.622  0.00  0.00    +0.000 C 
BRANCH  10  11
ATOM     11  C   UNL     1       5.491   5.770  15.793  0.00  0.00    +0.000 C 
BRANCH  11  12
ATOM     12  C   UNL     1       6.991   5.493  15.932  0.00  0.00    +0.000 C 
BRANCH  12  13
ATOM     13  N   UNL     1       7.602   6.074  17.141  0.00  0.00    +0.000 NA
BRANCH  13  14
ATOM     14  C   UNL     1       7.654   5.093  18.236  0.00  0.00    +0.000 C 
ATOM     15  C   UNL     1       7.756   5.677  19.642  0.00  0.00    +0.000 C 
ENDBRANCH  13  14
BRANCH  13  17
ATOM     16  C   UNL     1       7.969   8.526  17.637  0.00  0.00    +0.000 C 
ATOM     17  C   UNL     1       6.993   7.364  17.503  0.00  0.00    +0.000 C 
ENDBRANCH  13  17
ENDBRANCH  12  13
ENDBRANCH  11  12
ENDBRANCH  10  11
ENDBRANCH   9  10
ENDBRANCH   8   9
ENDBRANCH   7   8
ENDBRANCH   5   7
ENDBRANCH   4   5
ENDBRANCH   2   4
ENDBRANCH   1   2
BRANCH   1  18
ATOM     18  C   UNL     1       1.424   9.021  19.527  0.00  0.00    +0.000 C 
BRANCH  18  19
ATOM     19  C   UNL     1       0.733  10.432  20.269  0.00  0.00    +0.000 C 
ATOM     20  C   UNL     1       0.614  10.735  18.791  0.00  0.00    +0.000 C 
ATOM     21  C   UNL     1       1.634  11.433  18.164  0.00  0.00    +0.000 C 
ATOM     22  C   UNL     1       2.339  12.658  18.912  0.00  0.00    +0.000 C 
ATOM     23  C   UNL     1       1.745  12.952  20.314  0.00  0.00    +0.000 C 
ATOM     24  C   UNL     1       1.848  14.441  20.910  0.00  0.00    +0.000 C 
ATOM     25  C   UNL     1       1.733  15.553  19.838  0.00  0.00    +0.000 C 
ATOM     26  C   UNL     1       3.199  14.705  21.650  0.00  0.00    +0.000 C 
ATOM     27  C   UNL     1       0.802  14.650  22.044  0.00  0.00    +0.000 C 
ATOM     28  C   UNL     1      -0.571  14.137  21.693  0.00  0.00    +0.000 C 
ATOM     29  C   UNL     1      -0.491  12.605  21.539  0.00  0.00    +0.000 C 
ATOM     30  C   UNL     1       0.338  12.225  20.295  0.00  0.00    +0.000 C 
ATOM     31  C   UNL     1      -0.618  12.912  19.093  0.00  0.00    +0.000 C 
BRANCH  20  32
ATOM     32  C   UNL     1      -0.855  10.227  18.521  0.00  0.00    +0.000 C 
BRANCH  32  33
ATOM     33  O   UNL     1      -1.237  10.158  17.168  0.00  0.00    +0.000 OA
ATOM     34  H   UNL     1      -0.438  10.063  16.673  0.00  0.00    +0.000 HD
ENDBRANCH  32  33
ENDBRANCH  20  32
ENDBRANCH  18  19
ENDBRANCH   1  18
TORSDOF 16
ENDMDL
MODEL 4
REMARK VINA RESULT:      -6.5      1.765      2.370
REMARK  Name = 
REMARK  22 active torsions:
REMARK  status: ('A' for Active; 'I' for Inactive)
REMARK    1  A    between atoms: C_1  and  C_2
REMARK    2  A    between atoms: C_2  and  N_3
REMARK    3  A    between atoms: N_3  and  C_4
REMARK    4  A    between atoms: N_3  and  C_6
REMARK    5  A    between atoms: C_4  and  C_5
REMARK    6  A    between atoms: C_6  and  C_7
REMARK    7  A    between atoms: C_7  and  C_8
REMARK    8  A    between atoms: C_8  and  C_9
REMARK    9  A    between atoms: C_9  and  C_10
REMARK   10  A    between atoms: C_10  and  O_11
REMARK   11  A    between atoms: O_11  and  C_12
REMARK   12  A    between atoms: C_12  and  C_14
REMARK   13  A    between atoms: C_14  and  C_15
REMARK   14  A    between atoms: C_15  and  C_16
REMARK   15  A    between atoms: C_15  and  C_17
REMARK   16  A    between atoms: C_17  and  C_18
REMARK   17  A    between atoms: C_18  and  C_19
REMARK   18  A    between atoms: C_20  and  C_21
REMARK   19  A    between atoms: C_21  and  O_22
REMARK   20  A    between atoms: C_26  and  C_27
REMARK   21  A    between atoms: C_26  and  C_28
REMARK   22  A    between atoms: C_32  and  C_33
REMARK                            x       y       z     vdW  Elec       q    Type
REMARK                         _______ _______ _______ _____ _____    ______ ____
ROOT
ATOM      1  C   UNL     1       1.730   7.451  20.750  0.00  0.00    +0.000 C 
ENDROOT
BRANCH   1   2
ATOM      2  C   UNL     1       0.875   8.767  20.337  0.00  0.00    +0.000 C 
ATOM      3  C   UNL     1       1.332   9.367  19.012  0.00  0.00    +0.000 C 
BRANCH   2   4
ATOM      4  C   UNL     1       0.889   9.857  21.442  0.00  0.00    +0.000 C 
BRANCH   4   5
ATOM      5  C   UNL     1      -0.355  10.719  21.559  0.00  0.00    +0.000 C 
ATOM      6  O   UNL     1      -1.074  11.055  20.664  0.00  0.00    +0.000 OA
BRANCH   5   7
ATOM      7  O   UNL     1      -0.376  11.231  22.844  0.00  0.00    +0.000 OA
BRANCH   7   8
ATOM      8  C   UNL     1      -1.654  11.676  23.254  0.00  0.00    +0.000 C 
BRANCH   8   9
ATOM      9  C   UNL     1      -1.701  13.192  23.311  0.00  0.00    +0.000 C 
BRANCH   9  10
ATOM     10  C   UNL     1      -2.800  13.701  22.406  0.00  0.00    +0.000 C 
BRANCH  10  11
ATOM     11  C   UNL     1      -4.141  13.087  22.794  0.00  0.00    +0.000 C 
BRANCH  11  12
ATOM     12  C   UNL     1      -5.274  14.118  22.792  0.00  0.00    +0.000 C 
BRANCH  12  13
ATOM     13  N   UNL     1      -6.449  13.722  21.993  0.00  0.00    +0.000 NA
BRANCH  13  14
ATOM     14  C   UNL     1      -7.694  13.884  22.759  0.00  0.00    +0.000 C 
ATOM     15  C   UNL     1      -7.623  13.475  24.227  0.00  0.00    +0.000 C 
ENDBRANCH  13  14
BRANCH  13  17
ATOM     16  C   UNL     1      -7.370  11.992  20.397  0.00  0.00    +0.000 C 
ATOM     17  C   UNL     1      -6.277  12.396  21.377  0.00  0.00    +0.000 C 
ENDBRANCH  13  17
ENDBRANCH  12  13
ENDBRANCH  11  12
ENDBRANCH  10  11
ENDBRANCH   9  10
ENDBRANCH   8   9
ENDBRANCH   7   8
ENDBRANCH   5   7
ENDBRANCH   4   5
ENDBRANCH   2   4
ENDBRANCH   1   2
BRANCH   1  18
ATOM     18  C   UNL     1       1.857   6.564  19.490  0.00  0.00    +0.000 C 
BRANCH  18  19
ATOM     19  C   UNL     1       3.012   6.449  18.197  0.00  0.00    +0.000 C 
ATOM     20  C   UNL     1       2.868   5.012  18.651  0.00  0.00    +0.000 C 
ATOM     21  C   UNL     1       3.737   4.522  19.614  0.00  0.00    +0.000 C 
ATOM     22  C   UNL     1       5.284   4.923  19.571  0.00  0.00    +0.000 C 
ATOM     23  C   UNL     1       5.652   5.839  18.375  0.00  0.00    +0.000 C 
ATOM     24  C   UNL     1       7.156   5.818  17.809  0.00  0.00    +0.000 C 
ATOM     25  C   UNL     1       7.829   4.425  17.875  0.00  0.00    +0.000 C 
ATOM     26  C   UNL     1       8.109   6.785  18.583  0.00  0.00    +0.000 C 
ATOM     27  C   UNL     1       7.204   6.392  16.362  0.00  0.00    +0.000 C 
ATOM     28  C   UNL     1       6.118   5.852  15.468  0.00  0.00    +0.000 C 
ATOM     29  C   UNL     1       4.758   6.331  16.014  0.00  0.00    +0.000 C 
ATOM     30  C   UNL     1       4.446   5.658  17.366  0.00  0.00    +0.000 C 
ATOM     31  C   UNL     1       4.377   4.050  16.877  0.00  0.00    +0.000 C 
BRANCH  20  32
ATOM     32  C   UNL     1       1.769   4.509  17.638  0.00  0.00    +0.000 C 
BRANCH  32  33
ATOM     33  O   UNL     1       1.068   3.350  18.023  0.00  0.00    +0.000 OA
ATOM     34  H   UNL     1       1.072   2.778  17.271  0.00  0.00    +0.000 HD
ENDBRANCH  32  33
ENDBRANCH  20  32
ENDBRANCH  18  19
ENDBRANCH   1  18
TORSDOF 16
ENDMDL
MODEL 5
REMARK VINA RESULT:      -6.4      1.762      2.925
REMARK  Name = 
REMARK  22 active torsions:
REMARK  status: ('A' for Active; 'I' for Inactive)
REMARK    1  A    between atoms: C_1  and  C_2
REMARK    2  A    between atoms: C_2  and  N_3
REMARK    3  A    between atoms: N_3  and  C_4
REMARK    4  A    between atoms: N_3  and  C_6
REMARK    5  A    between atoms: C_4  and  C_5
REMARK    6  A    between atoms: C_6  and  C_7
REMARK    7  A    between atoms: C_7  and  C_8
REMARK    8  A    between atoms: C_8  and  C_9
REMARK    9  A    between atoms: C_9  and  C_10
REMARK   10  A    between atoms: C_10  and  O_11
REMARK   11  A    between atoms: O_11  and  C_12
REMARK   12  A    between atoms: C_12  and  C_14
REMARK   13  A    between atoms: C_14  and  C_15
REMARK   14  A    between atoms: C_15  and  C_16
REMARK   15  A    between atoms: C_15  and  C_17
REMARK   16  A    between atoms: C_17  and  C_18
REMARK   17  A    between atoms: C_18  and  C_19
REMARK   18  A    between atoms: C_20  and  C_21
REMARK   19  A    between atoms: C_21  and  O_22
REMARK   20  A    between atoms: C_26  and  C_27
REMARK   21  A    between atoms: C_26  and  C_28
REMARK   22  A    between atoms: C_32  and  C_33
REMARK                            x       y       z     vdW  Elec       q    Type
REMARK                         _______ _______ _______ _____ _____    ______ ____
ROOT
ATOM      1  C   UNL     1       1.834   7.389  20.814  0.00  0.00    +0.000 C 
ENDROOT
BRANCH   1   2
ATOM      2  C   UNL     1       0.966   8.756  20.704  0.00  0.00    +0.000 C 
ATOM      3  C   UNL     1      -0.362   8.666  21.448  0.00  0.00    +0.000 C 
BRANCH   2   4
ATOM      4  C   UNL     1       0.718   9.188  19.233  0.00  0.00    +0.000 C 
BRANCH   4   5
ATOM      5  C   UNL     1       1.283  10.533  18.818  0.00  0.00    +0.000 C 
ATOM      6  O   UNL     1       2.229  10.720  18.111  0.00  0.00    +0.000 OA
BRANCH   5   7
ATOM      7  O   UNL     1       0.649  11.495  19.585  0.00  0.00    +0.000 OA
BRANCH   7   8
ATOM      8  C   UNL     1      -0.552  11.973  19.013  0.00  0.00    +0.000 C 
BRANCH   8   9
ATOM      9  C   UNL     1      -0.339  13.336  18.381  0.00  0.00    +0.000 C 
BRANCH   9  10
ATOM     10  C   UNL     1       0.146  14.312  19.430  0.00  0.00    +0.000 C 
BRANCH  10  11
ATOM     11  C   UNL     1      -1.034  14.931  20.172  0.00  0.00    +0.000 C 
BRANCH  11  12
ATOM     12  C   UNL     1      -1.139  14.430  21.616  0.00  0.00    +0.000 C 
BRANCH  12  13
ATOM     13  N   UNL     1      -2.478  13.933  21.986  0.00  0.00    +0.000 NA
BRANCH  13  14
ATOM     14  C   UNL     1      -2.397  12.610  22.625  0.00  0.00    +0.000 C 
ATOM     15  C   UNL     1      -0.995  12.020  22.746  0.00  0.00    +0.000 C 
ENDBRANCH  13  14
BRANCH  13  17
ATOM     16  C   UNL     1      -3.914  12.671  20.331  0.00  0.00    +0.000 C 
ATOM     17  C   UNL     1      -3.426  14.013  20.863  0.00  0.00    +0.000 C 
ENDBRANCH  13  17
ENDBRANCH  12  13
ENDBRANCH  11  12
ENDBRANCH  10  11
ENDBRANCH   9  10
ENDBRANCH   8   9
ENDBRANCH   7   8
ENDBRANCH   5   7
ENDBRANCH   4   5
ENDBRANCH   2   4
ENDBRANCH   1   2
BRANCH   1  18
ATOM     18  C   UNL     1       1.824   6.719  19.420  0.00  0.00    +0.000 C 
BRANCH  18  19
ATOM     19  C   UNL     1       2.989   6.561  18.140  0.00  0.00    +0.000 C 
ATOM     20  C   UNL     1       2.820   5.136  18.622  0.00  0.00    +0.000 C 
ATOM     21  C   UNL     1       3.674   4.654  19.603  0.00  0.00    +0.000 C 
ATOM     22  C   UNL     1       5.227   5.032  19.565  0.00  0.00    +0.000 C 
ATOM     23  C   UNL     1       5.618   5.919  18.355  0.00  0.00    +0.000 C 
ATOM     24  C   UNL     1       7.127   5.865  17.802  0.00  0.00    +0.000 C 
ATOM     25  C   UNL     1       7.779   4.464  17.903  0.00  0.00    +0.000 C 
ATOM     26  C   UNL     1       8.087   6.835  18.565  0.00  0.00    +0.000 C 
ATOM     27  C   UNL     1       7.196   6.408  16.344  0.00  0.00    +0.000 C 
ATOM     28  C   UNL     1       6.110   5.864  15.452  0.00  0.00    +0.000 C 
ATOM     29  C   UNL     1       4.752   6.374  15.975  0.00  0.00    +0.000 C 
ATOM     30  C   UNL     1       4.418   5.734  17.338  0.00  0.00    +0.000 C 
ATOM     31  C   UNL     1       4.331   4.117  16.882  0.00  0.00    +0.000 C 
BRANCH  20  32
ATOM     32  C   UNL     1       1.723   4.627  17.610  0.00  0.00    +0.000 C 
BRANCH  32  33
ATOM     33  O   UNL     1       1.150   3.377  17.909  0.00  0.00    +0.000 OA
ATOM     34  H   UNL     1       1.042   2.932  17.082  0.00  0.00    +0.000 HD
ENDBRANCH  32  33
ENDBRANCH  20  32
ENDBRANCH  18  19
ENDBRANCH   1  18
TORSDOF 16
ENDMDL
MODEL 6
REMARK VINA RESULT:      -6.3      3.123      9.917
REMARK  Name = 
REMARK  22 active torsions:
REMARK  status: ('A' for Active; 'I' for Inactive)
REMARK    1  A    between atoms: C_1  and  C_2
REMARK    2  A    between atoms: C_2  and  N_3
REMARK    3  A    between atoms: N_3  and  C_4
REMARK    4  A    between atoms: N_3  and  C_6
REMARK    5  A    between atoms: C_4  and  C_5
REMARK    6  A    between atoms: C_6  and  C_7
REMARK    7  A    between atoms: C_7  and  C_8
REMARK    8  A    between atoms: C_8  and  C_9
REMARK    9  A    between atoms: C_9  and  C_10
REMARK   10  A    between atoms: C_10  and  O_11
REMARK   11  A    between atoms: O_11  and  C_12
REMARK   12  A    between atoms: C_12  and  C_14
REMARK   13  A    between atoms: C_14  and  C_15
REMARK   14  A    between atoms: C_15  and  C_16
REMARK   15  A    between atoms: C_15  and  C_17
REMARK   16  A    between atoms: C_17  and  C_18
REMARK   17  A    between atoms: C_18  and  C_19
REMARK   18  A    between atoms: C_20  and  C_21
REMARK   19  A    between atoms: C_21  and  O_22
REMARK   20  A    between atoms: C_26  and  C_27
REMARK   21  A    between atoms: C_26  and  C_28
REMARK   22  A    between atoms: C_32  and  C_33
REMARK                            x       y       z     vdW  Elec       q    Type
REMARK                         _______ _______ _______ _____ _____    ______ ____
ROOT
ATOM      1  C   UNL     1       1.343   8.021  20.402  0.00  0.00    +0.000 C 
ENDROOT
BRANCH   1   2
ATOM      2  C   UNL     1       2.409   7.516  19.288  0.00  0.00    +0.000 C 
ATOM      3  C   UNL     1       2.381   8.370  18.024  0.00  0.00    +0.000 C 
BRANCH   2   4
ATOM      4  C   UNL     1       2.222   6.020  18.917  0.00  0.00    +0.000 C 
BRANCH   4   5
ATOM      5  C   UNL     1       1.908   5.074  20.062  0.00  0.00    +0.000 C 
ATOM      6  O   UNL     1       2.508   4.980  21.092  0.00  0.00    +0.000 OA
BRANCH   5   7
ATOM      7  O   UNL     1       0.950   4.187  19.604  0.00  0.00    +0.000 OA
BRANCH   7   8
ATOM      8  C   UNL     1       1.369   3.429  18.487  0.00  0.00    +0.000 C 
BRANCH   8   9
ATOM      9  C   UNL     1       2.260   2.280  18.923  0.00  0.00    +0.000 C 
BRANCH   9  10
ATOM     10  C   UNL     1       3.365   2.081  17.909  0.00  0.00    +0.000 C 
BRANCH  10  11
ATOM     11  C   UNL     1       3.739   3.408  17.257  0.00  0.00    +0.000 C 
BRANCH  11  12
ATOM     12  C   UNL     1       5.186   3.419  16.755  0.00  0.00    +0.000 C 
BRANCH  12  13
ATOM     13  N   UNL     1       5.865   4.721  16.898  0.00  0.00    +0.000 NA
BRANCH  13  14
ATOM     14  C   UNL     1       5.692   5.548  15.694  0.00  0.00    +0.000 C 
ATOM     15  C   UNL     1       4.984   6.883  15.906  0.00  0.00    +0.000 C 
ENDBRANCH  13  14
BRANCH  13  17
ATOM     16  C   UNL     1       7.656   5.436  18.533  0.00  0.00    +0.000 C 
ATOM     17  C   UNL     1       7.260   4.571  17.343  0.00  0.00    +0.000 C 
ENDBRANCH  13  17
ENDBRANCH  12  13
ENDBRANCH  11  12
ENDBRANCH  10  11
ENDBRANCH   9  10
ENDBRANCH   8   9
ENDBRANCH   7   8
ENDBRANCH   5   7
ENDBRANCH   4   5
ENDBRANCH   2   4
ENDBRANCH   1   2
BRANCH   1  18
ATOM     18  C   UNL     1       1.125   9.536  20.185  0.00  0.00    +0.000 C 
BRANCH  18  19
ATOM     19  C   UNL     1      -0.091  10.673  20.684  0.00  0.00    +0.000 C 
ATOM     20  C   UNL     1       0.086  10.989  19.214  0.00  0.00    +0.000 C 
ATOM     21  C   UNL     1       0.998  11.965  18.843  0.00  0.00    +0.000 C 
ATOM     22  C   UNL     1       1.127  13.306  19.704  0.00  0.00    +0.000 C 
ATOM     23  C   UNL     1       0.143  13.369  20.901  0.00  0.00    +0.000 C 
ATOM     24  C   UNL     1      -0.321  14.804  21.456  0.00  0.00    +0.000 C 
ATOM     25  C   UNL     1      -0.465  15.884  20.355  0.00  0.00    +0.000 C 
ATOM     26  C   UNL     1       0.675  15.399  22.504  0.00  0.00    +0.000 C 
ATOM     27  C   UNL     1      -1.634  14.673  22.283  0.00  0.00    +0.000 C 
ATOM     28  C   UNL     1      -2.679  13.817  21.615  0.00  0.00    +0.000 C 
ATOM     29  C   UNL     1      -2.143  12.373  21.534  0.00  0.00    +0.000 C 
ATOM     30  C   UNL     1      -0.958  12.286  20.552  0.00  0.00    +0.000 C 
ATOM     31  C   UNL     1      -1.733  12.731  19.127  0.00  0.00    +0.000 C 
BRANCH  20  32
ATOM     32  C   UNL     1      -1.070  10.110  18.599  0.00  0.00    +0.000 C 
BRANCH  32  33
ATOM     33  O   UNL     1      -1.025   9.933  17.203  0.00  0.00    +0.000 OA
ATOM     34  H   UNL     1      -1.085  10.798  16.826  0.00  0.00    +0.000 HD
ENDBRANCH  32  33
ENDBRANCH  20  32
ENDBRANCH  18  19
ENDBRANCH   1  18
TORSDOF 16
ENDMDL
MODEL 7
REMARK VINA RESULT:      -6.3      6.025      8.470
REMARK  Name = 
REMARK  22 active torsions:
REMARK  status: ('A' for Active; 'I' for Inactive)
REMARK    1  A    between atoms: C_1  and  C_2
REMARK    2  A    between atoms: C_2  and  N_3
REMARK    3  A    between atoms: N_3  and  C_4
REMARK    4  A    between atoms: N_3  and  C_6
REMARK    5  A    between atoms: C_4  and  C_5
REMARK    6  A    between atoms: C_6  and  C_7
REMARK    7  A    between atoms: C_7  and  C_8
REMARK    8  A    between atoms: C_8  and  C_9
REMARK    9  A    between atoms: C_9  and  C_10
REMARK   10  A    between atoms: C_10  and  O_11
REMARK   11  A    between atoms: O_11  and  C_12
REMARK   12  A    between atoms: C_12  and  C_14
REMARK   13  A    between atoms: C_14  and  C_15
REMARK   14  A    between atoms: C_15  and  C_16
REMARK   15  A    between atoms: C_15  and  C_17
REMARK   16  A    between atoms: C_17  and  C_18
REMARK   17  A    between atoms: C_18  and  C_19
REMARK   18  A    between atoms: C_20  and  C_21
REMARK   19  A    between atoms: C_21  and  O_22
REMARK   20  A    between atoms: C_26  and  C_27
REMARK   21  A    between atoms: C_26  and  C_28
REMARK   22  A    between atoms: C_32  and  C_33
REMARK                            x       y       z     vdW  Elec       q    Type
REMARK                         _______ _______ _______ _____ _____    ______ ____
ROOT
ATOM      1  C   UNL     1       8.477   7.384  19.021  0.00  0.00    +0.000 C 
ENDROOT
BRANCH   1   2
ATOM      2  C   UNL     1       8.264   8.965  18.726  0.00  0.00    +0.000 C 
ATOM      3  C   UNL     1       7.698   9.229  17.335  0.00  0.00    +0.000 C 
BRANCH   2   4
ATOM      4  C   UNL     1       9.564   9.790  18.931  0.00  0.00    +0.000 C 
BRANCH   4   5
ATOM      5  C   UNL     1       9.388  11.236  19.358  0.00  0.00    +0.000 C 
ATOM      6  O   UNL     1       9.395  12.195  18.643  0.00  0.00    +0.000 OA
BRANCH   5   7
ATOM      7  O   UNL     1       9.450  11.262  20.741  0.00  0.00    +0.000 OA
BRANCH   7   8
ATOM      8  C   UNL     1       8.652  12.274  21.322  0.00  0.00    +0.000 C 
BRANCH   8   9
ATOM      9  C   UNL     1       8.720  12.205  22.837  0.00  0.00    +0.000 C 
BRANCH   9  10
ATOM     10  C   UNL     1       7.320  12.145  23.406  0.00  0.00    +0.000 C 
BRANCH  10  11
ATOM     11  C   UNL     1       7.365  11.994  24.923  0.00  0.00    +0.000 C 
BRANCH  11  12
ATOM     12  C   UNL     1       6.189  11.171  25.459  0.00  0.00    +0.000 C 
BRANCH  12  13
ATOM     13  N   UNL     1       5.179  11.964  26.185  0.00  0.00    +0.000 NA
BRANCH  13  14
ATOM     14  C   UNL     1       5.766  13.190  26.746  0.00  0.00    +0.000 C 
ATOM     15  C   UNL     1       4.869  13.974  27.699  0.00  0.00    +0.000 C 
ENDBRANCH  13  14
BRANCH  13  17
ATOM     16  C   UNL     1       5.269  10.182  27.976  0.00  0.00    +0.000 C 
ATOM     17  C   UNL     1       4.427  11.147  27.151  0.00  0.00    +0.000 C 
ENDBRANCH  13  17
ENDBRANCH  12  13
ENDBRANCH  11  12
ENDBRANCH  10  11
ENDBRANCH   9  10
ENDBRANCH   8   9
ENDBRANCH   7   8
ENDBRANCH   5   7
ENDBRANCH   4   5
ENDBRANCH   2   4
ENDBRANCH   1   2
BRANCH   1  18
ATOM     18  C   UNL     1       7.535   6.604  18.075  0.00  0.00    +0.000 C 
BRANCH  18  19
ATOM     19  C   UNL     1       6.484   5.233  18.266  0.00  0.00    +0.000 C 
ATOM     20  C   UNL     1       6.141   5.732  16.879  0.00  0.00    +0.000 C 
ATOM     21  C   UNL     1       5.104   6.641  16.731  0.00  0.00    +0.000 C 
ATOM     22  C   UNL     1       3.767   6.475  17.592  0.00  0.00    +0.000 C 
ATOM     23  C   UNL     1       3.781   5.234  18.521  0.00  0.00    +0.000 C 
ATOM     24  C   UNL     1       2.385   4.559  18.944  0.00  0.00    +0.000 C 
ATOM     25  C   UNL     1       1.305   4.611  17.836  0.00  0.00    +0.000 C 
ATOM     26  C   UNL     1       1.739   5.238  20.196  0.00  0.00    +0.000 C 
ATOM     27  C   UNL     1       2.609   3.099  19.437  0.00  0.00    +0.000 C 
ATOM     28  C   UNL     1       3.522   2.300  18.543  0.00  0.00    +0.000 C 
ATOM     29  C   UNL     1       4.928   2.932  18.598  0.00  0.00    +0.000 C 
ATOM     30  C   UNL     1       4.929   4.320  17.926  0.00  0.00    +0.000 C 
ATOM     31  C   UNL     1       4.518   3.878  16.356  0.00  0.00    +0.000 C 
BRANCH  20  32
ATOM     32  C   UNL     1       7.085   4.815  16.011  0.00  0.00    +0.000 C 
BRANCH  32  33
ATOM     33  O   UNL     1       7.614   5.409  14.849  0.00  0.00    +0.000 OA
ATOM     34  H   UNL     1       7.418   6.332  14.913  0.00  0.00    +0.000 HD
ENDBRANCH  32  33
ENDBRANCH  20  32
ENDBRANCH  18  19
ENDBRANCH   1  18
TORSDOF 16
ENDMDL
MODEL 8
REMARK VINA RESULT:      -6.2      2.074      2.561
REMARK  Name = 
REMARK  22 active torsions:
REMARK  status: ('A' for Active; 'I' for Inactive)
REMARK    1  A    between atoms: C_1  and  C_2
REMARK    2  A    between atoms: C_2  and  N_3
REMARK    3  A    between atoms: N_3  and  C_4
REMARK    4  A    between atoms: N_3  and  C_6
REMARK    5  A    between atoms: C_4  and  C_5
REMARK    6  A    between atoms: C_6  and  C_7
REMARK    7  A    between atoms: C_7  and  C_8
REMARK    8  A    between atoms: C_8  and  C_9
REMARK    9  A    between atoms: C_9  and  C_10
REMARK   10  A    between atoms: C_10  and  O_11
REMARK   11  A    between atoms: O_11  and  C_12
REMARK   12  A    between atoms: C_12  and  C_14
REMARK   13  A    between atoms: C_14  and  C_15
REMARK   14  A    between atoms: C_15  and  C_16
REMARK   15  A    between atoms: C_15  and  C_17
REMARK   16  A    between atoms: C_17  and  C_18
REMARK   17  A    between atoms: C_18  and  C_19
REMARK   18  A    between atoms: C_20  and  C_21
REMARK   19  A    between atoms: C_21  and  O_22
REMARK   20  A    between atoms: C_26  and  C_27
REMARK   21  A    between atoms: C_26  and  C_28
REMARK   22  A    between atoms: C_32  and  C_33
REMARK                            x       y       z     vdW  Elec       q    Type
REMARK                         _______ _______ _______ _____ _____    ______ ____
ROOT
ATOM      1  C   UNL     1       1.719   7.721  20.800  0.00  0.00    +0.000 C 
ENDROOT
BRANCH   1   2
ATOM      2  C   UNL     1       0.815   8.984  20.329  0.00  0.00    +0.000 C 
ATOM      3  C   UNL     1       1.165   9.460  18.923  0.00  0.00    +0.000 C 
BRANCH   2   4
ATOM      4  C   UNL     1       0.889  10.174  21.323  0.00  0.00    +0.000 C 
BRANCH   4   5
ATOM      5  C   UNL     1      -0.379  10.990  21.498  0.00  0.00    +0.000 C 
ATOM      6  O   UNL     1      -1.203  11.213  20.660  0.00  0.00    +0.000 OA
BRANCH   5   7
ATOM      7  O   UNL     1      -0.292  11.616  22.729  0.00  0.00    +0.000 OA
BRANCH   7   8
ATOM      8  C   UNL     1      -1.498  12.233  23.134  0.00  0.00    +0.000 C 
BRANCH   8   9
ATOM      9  C   UNL     1      -1.383  13.744  23.045  0.00  0.00    +0.000 C 
BRANCH   9  10
ATOM     10  C   UNL     1      -2.384  14.272  22.042  0.00  0.00    +0.000 C 
BRANCH  10  11
ATOM     11  C   UNL     1      -1.676  15.047  20.935  0.00  0.00    +0.000 C 
BRANCH  11  12
ATOM     12  C   UNL     1      -0.170  14.774  20.908  0.00  0.00    +0.000 C 
BRANCH  12  13
ATOM     13  N   UNL     1       0.448  14.929  19.578  0.00  0.00    +0.000 NA
BRANCH  13  14
ATOM     14  C   UNL     1      -0.231  15.973  18.794  0.00  0.00    +0.000 C 
ATOM     15  C   UNL     1       0.671  17.072  18.238  0.00  0.00    +0.000 C 
ENDBRANCH  13  14
BRANCH  13  17
ATOM     16  C   UNL     1       2.015  13.092  18.830  0.00  0.00    +0.000 C 
ATOM     17  C   UNL     1       0.594  13.640  18.883  0.00  0.00    +0.000 C 
ENDBRANCH  13  17
ENDBRANCH  12  13
ENDBRANCH  11  12
ENDBRANCH  10  11
ENDBRANCH   9  10
ENDBRANCH   8   9
ENDBRANCH   7   8
ENDBRANCH   5   7
ENDBRANCH   4   5
ENDBRANCH   2   4
ENDBRANCH   1   2
BRANCH   1  18
ATOM     18  C   UNL     1       1.862   6.773  19.587  0.00  0.00    +0.000 C 
BRANCH  18  19
ATOM     19  C   UNL     1       2.994   6.639  18.276  0.00  0.00    +0.000 C 
ATOM     20  C   UNL     1       2.812   5.202  18.714  0.00  0.00    +0.000 C 
ATOM     21  C   UNL     1       3.680   4.674  19.657  0.00  0.00    +0.000 C 
ATOM     22  C   UNL     1       5.238   5.028  19.597  0.00  0.00    +0.000 C 
ATOM     23  C   UNL     1       5.616   5.948  18.407  0.00  0.00    +0.000 C 
ATOM     24  C   UNL     1       7.111   5.889  17.818  0.00  0.00    +0.000 C 
ATOM     25  C   UNL     1       7.742   4.475  17.856  0.00  0.00    +0.000 C 
ATOM     26  C   UNL     1       8.104   6.817  18.591  0.00  0.00    +0.000 C 
ATOM     27  C   UNL     1       7.156   6.480  16.378  0.00  0.00    +0.000 C 
ATOM     28  C   UNL     1       6.041   5.985  15.494  0.00  0.00    +0.000 C 
ATOM     29  C   UNL     1       4.704   6.497  16.066  0.00  0.00    +0.000 C 
ATOM     30  C   UNL     1       4.391   5.817  17.414  0.00  0.00    +0.000 C 
ATOM     31  C   UNL     1       4.266   4.219  16.906  0.00  0.00    +0.000 C 
BRANCH  20  32
ATOM     32  C   UNL     1       1.684   4.746  17.711  0.00  0.00    +0.000 C 
BRANCH  32  33
ATOM     33  O   UNL     1       1.114   3.484  17.967  0.00  0.00    +0.000 OA
ATOM     34  H   UNL     1       0.303   3.458  17.482  0.00  0.00    +0.000 HD
ENDBRANCH  32  33
ENDBRANCH  20  32
ENDBRANCH  18  19
ENDBRANCH   1  18
TORSDOF 16
ENDMDL
MODEL 9
REMARK VINA RESULT:      -6.2      1.122      1.444
REMARK  Name = 
REMARK  22 active torsions:
REMARK  status: ('A' for Active; 'I' for Inactive)
REMARK    1  A    between atoms: C_1  and  C_2
REMARK    2  A    between atoms: C_2  and  N_3
REMARK    3  A    between atoms: N_3  and  C_4
REMARK    4  A    between atoms: N_3  and  C_6
REMARK    5  A    between atoms: C_4  and  C_5
REMARK    6  A    between atoms: C_6  and  C_7
REMARK    7  A    between atoms: C_7  and  C_8
REMARK    8  A    between atoms: C_8  and  C_9
REMARK    9  A    between atoms: C_9  and  C_10
REMARK   10  A    between atoms: C_10  and  O_11
REMARK   11  A    between atoms: O_11  and  C_12
REMARK   12  A    between atoms: C_12  and  C_14
REMARK   13  A    between atoms: C_14  and  C_15
REMARK   14  A    between atoms: C_15  and  C_16
REMARK   15  A    between atoms: C_15  and  C_17
REMARK   16  A    between atoms: C_17  and  C_18
REMARK   17  A    between atoms: C_18  and  C_19
REMARK   18  A    between atoms: C_20  and  C_21
REMARK   19  A    between atoms: C_21  and  O_22
REMARK   20  A    between atoms: C_26  and  C_27
REMARK   21  A    between atoms: C_26  and  C_28
REMARK   22  A    between atoms: C_32  and  C_33
REMARK                            x       y       z     vdW  Elec       q    Type
REMARK                         _______ _______ _______ _____ _____    ______ ____
ROOT
ATOM      1  C   UNL     1       0.655   6.702  20.968  0.00  0.00    +0.000 C 
ENDROOT
BRANCH   1   2
ATOM      2  C   UNL     1       0.956   8.296  21.000  0.00  0.00    +0.000 C 
ATOM      3  C   UNL     1       2.110   8.653  21.931  0.00  0.00    +0.000 C 
BRANCH   2   4
ATOM      4  C   UNL     1      -0.298   9.133  21.371  0.00  0.00    +0.000 C 
BRANCH   4   5
ATOM      5  C   UNL     1      -0.140  10.122  22.511  0.00  0.00    +0.000 C 
ATOM      6  O   UNL     1      -0.013   9.857  23.670  0.00  0.00    +0.000 OA
BRANCH   5   7
ATOM      7  O   UNL     1      -0.398  11.380  21.996  0.00  0.00    +0.000 OA
BRANCH   7   8
ATOM      8  C   UNL     1      -1.710  11.839  22.259  0.00  0.00    +0.000 C 
BRANCH   8   9
ATOM      9  C   UNL     1      -2.221  12.687  21.109  0.00  0.00    +0.000 C 
BRANCH   9  10
ATOM     10  C   UNL     1      -3.720  12.532  20.990  0.00  0.00    +0.000 C 
BRANCH  10  11
ATOM     11  C   UNL     1      -4.175  12.796  19.559  0.00  0.00    +0.000 C 
BRANCH  11  12
ATOM     12  C   UNL     1      -4.417  11.501  18.778  0.00  0.00    +0.000 C 
BRANCH  12  13
ATOM     13  N   UNL     1      -3.470  11.278  17.670  0.00  0.00    +0.000 NA
BRANCH  13  14
ATOM     14  C   UNL     1      -4.153  11.324  16.368  0.00  0.00    +0.000 C 
ATOM     15  C   UNL     1      -3.505  10.506  15.254  0.00  0.00    +0.000 C 
ENDBRANCH  13  14
BRANCH  13  17
ATOM     16  C   UNL     1      -1.156  10.351  18.091  0.00  0.00    +0.000 C 
ATOM     17  C   UNL     1      -2.641  10.081  17.884  0.00  0.00    +0.000 C 
ENDBRANCH  13  17
ENDBRANCH  12  13
ENDBRANCH  11  12
ENDBRANCH  10  11
ENDBRANCH   9  10
ENDBRANCH   8   9
ENDBRANCH   7   8
ENDBRANCH   5   7
ENDBRANCH   4   5
ENDBRANCH   2   4
ENDBRANCH   1   2
BRANCH   1  18
ATOM     18  C   UNL     1       1.905   6.004  20.385  0.00  0.00    +0.000 C 
BRANCH  18  19
ATOM     19  C   UNL     1       2.918   6.281  19.001  0.00  0.00    +0.000 C 
ATOM     20  C   UNL     1       2.776   4.774  19.020  0.00  0.00    +0.000 C 
ATOM     21  C   UNL     1       3.723   4.020  19.694  0.00  0.00    +0.000 C 
ATOM     22  C   UNL     1       5.270   4.417  19.608  0.00  0.00    +0.000 C 
ATOM     23  C   UNL     1       5.542   5.650  18.707  0.00  0.00    +0.000 C 
ATOM     24  C   UNL     1       6.978   5.801  18.002  0.00  0.00    +0.000 C 
ATOM     25  C   UNL     1       7.611   4.452  17.578  0.00  0.00    +0.000 C 
ATOM     26  C   UNL     1       8.035   6.493  18.923  0.00  0.00    +0.000 C 
ATOM     27  C   UNL     1       6.896   6.781  16.795  0.00  0.00    +0.000 C 
ATOM     28  C   UNL     1       5.708   6.532  15.902  0.00  0.00    +0.000 C 
ATOM     29  C   UNL     1       4.426   6.824  16.708  0.00  0.00    +0.000 C 
ATOM     30  C   UNL     1       4.233   5.778  17.824  0.00  0.00    +0.000 C 
ATOM     31  C   UNL     1       4.065   4.389  16.889  0.00  0.00    +0.000 C 
BRANCH  20  32
ATOM     32  C   UNL     1       1.564   4.596  18.026  0.00  0.00    +0.000 C 
BRANCH  32  33
ATOM     33  O   UNL     1       0.984   3.314  17.995  0.00  0.00    +0.000 OA
ATOM     34  H   UNL     1       0.879   3.094  17.082  0.00  0.00    +0.000 HD
ENDBRANCH  32  33
ENDBRANCH  20  32
ENDBRANCH  18  19
ENDBRANCH   1  18
TORSDOF 16
ENDMDL
