MODEL 1
REMARK VINA RESULT:      -8.5      0.000      0.000
REMARK  Name = 
REMARK  2 active torsions:
REMARK  status: ('A' for Active; 'I' for Inactive)
REMARK    1  A    between atoms: C_7  and  C_8
REMARK    2  A    between atoms: C_22  and  O_23
REMARK                            x       y       z     vdW  Elec       q    Type
REMARK                         _______ _______ _______ _____ _____    ______ ____
ROOT
ATOM      1  O   UNL     1       1.959   6.729  20.931  0.00  0.00    +0.000 OA
ATOM      2  C   UNL     1       2.441   6.064  20.015  0.00  0.00    +0.000 C 
ATOM      3  N   UNL     1       3.301   6.659  19.126  0.00  0.00    +0.000 N 
ATOM      4  C   UNL     1       3.920   6.071  18.007  0.00  0.00    +0.000 A 
ATOM      5  C   UNL     1       4.139   6.927  16.924  0.00  0.00    +0.000 A 
ATOM      6  C   UNL     1       4.726   6.460  15.742  0.00  0.00    +0.000 A 
ATOM      7  C   UNL     1       5.191   5.143  15.620  0.00  0.00    +0.000 A 
ATOM      8  C   UNL     1       5.000   4.305  16.732  0.00  0.00    +0.000 A 
ATOM      9  C   UNL     1       4.344   4.737  17.906  0.00  0.00    +0.000 A 
ATOM     10  C   UNL     1       4.256   3.729  19.000  0.00  0.00    +0.000 C 
ATOM     11  O   UNL     1       5.127   2.867  19.097  0.00  0.00    +0.000 OA
ATOM     12  N   UNL     1       3.181   3.778  19.851  0.00  0.00    +0.000 N 
ATOM     13  C   UNL     1       3.020   2.845  20.950  0.00  0.00    +0.000 C 
ATOM     14  C   UNL     1       1.813   3.369  21.729  0.00  0.00    +0.000 C 
ATOM     15  C   UNL     1       0.980   4.060  20.654  0.00  0.00    +0.000 C 
ATOM     16  C   UNL     1       2.021   4.633  19.698  0.00  0.00    +0.000 C 
ATOM     17  H   UNL     1       3.348   7.665  19.234  0.00  0.00    +0.000 HD
ENDROOT
BRANCH   7  18
ATOM     18  C   UNL     1       5.858   4.655  14.386  0.00  0.00    +0.000 A 
ATOM     19  C   UNL     1       5.194   3.792  13.488  0.00  0.00    +0.000 A 
ATOM     20  C   UNL     1       5.821   3.317  12.330  0.00  0.00    +0.000 A 
ATOM     21  C   UNL     1       7.119   3.711  12.041  0.00  0.00    +0.000 A 
ATOM     22  F   UNL     1       7.714   3.263  10.928  0.00  0.00    +0.000 F 
ATOM     23  C   UNL     1       7.805   4.562  12.889  0.00  0.00    +0.000 A 
ATOM     24  C   UNL     1       7.179   5.017  14.048  0.00  0.00    +0.000 A 
ATOM     25  F   UNL     1       7.897   5.816  14.853  0.00  0.00    +0.000 F 
ENDBRANCH   7  18
BRANCH  14  26
ATOM     26  O   UNL     1       1.069   2.339  22.361  0.00  0.00    +0.000 OA
ATOM     27  H   UNL     1       0.486   2.740  23.027  0.00  0.00    +0.000 HD
ENDBRANCH  14  26
TORSDOF 2
ENDMDL
MODEL 2
REMARK VINA RESULT:      -8.4      5.197      7.703
REMARK  Name = 
REMARK  2 active torsions:
REMARK  status: ('A' for Active; 'I' for Inactive)
REMARK    1  A    between atoms: C_7  and  C_8
REMARK    2  A    between atoms: C_22  and  O_23
REMARK                            x       y       z     vdW  Elec       q    Type
REMARK                         _______ _______ _______ _____ _____    ______ ____
ROOT
ATOM      1  O   UNL     1      -0.380  13.267  18.387  0.00  0.00    +0.000 OA
ATOM      2  C   UNL     1      -0.182  12.152  18.868  0.00  0.00    +0.000 C 
ATOM      3  N   UNL     1       0.867  11.393  18.410  0.00  0.00    +0.000 N 
ATOM      4  C   UNL     1       1.227  10.094  18.814  0.00  0.00    +0.000 A 
ATOM      5  C   UNL     1       1.798   9.293  17.820  0.00  0.00    +0.000 A 
ATOM      6  C   UNL     1       2.178   7.974  18.087  0.00  0.00    +0.000 A 
ATOM      7  C   UNL     1       2.080   7.423  19.373  0.00  0.00    +0.000 A 
ATOM      8  C   UNL     1       1.541   8.254  20.371  0.00  0.00    +0.000 A 
ATOM      9  C   UNL     1       1.084   9.563  20.105  0.00  0.00    +0.000 A 
ATOM     10  C   UNL     1       0.572  10.316  21.285  0.00  0.00    +0.000 C 
ATOM     11  O   UNL     1       1.022  10.067  22.400  0.00  0.00    +0.000 OA
ATOM     12  N   UNL     1      -0.415  11.249  21.089  0.00  0.00    +0.000 N 
ATOM     13  C   UNL     1      -0.964  12.036  22.177  0.00  0.00    +0.000 C 
ATOM     14  C   UNL     1      -1.880  13.054  21.495  0.00  0.00    +0.000 C 
ATOM     15  C   UNL     1      -2.339  12.319  20.239  0.00  0.00    +0.000 C 
ATOM     16  C   UNL     1      -1.132  11.473  19.849  0.00  0.00    +0.000 C 
ATOM     17  H   UNL     1       1.309  11.787  17.588  0.00  0.00    +0.000 HD
ENDROOT
BRANCH   7  18
ATOM     18  C   UNL     1       2.527   6.039  19.674  0.00  0.00    +0.000 A 
ATOM     19  C   UNL     1       1.769   5.190  20.508  0.00  0.00    +0.000 A 
ATOM     20  C   UNL     1       2.190   3.889  20.806  0.00  0.00    +0.000 A 
ATOM     21  C   UNL     1       3.371   3.408  20.261  0.00  0.00    +0.000 A 
ATOM     22  F   UNL     1       3.769   2.160  20.540  0.00  0.00    +0.000 F 
ATOM     23  C   UNL     1       4.143   4.203  19.432  0.00  0.00    +0.000 A 
ATOM     24  C   UNL     1       3.724   5.502  19.153  0.00  0.00    +0.000 A 
ATOM     25  F   UNL     1       4.522   6.243  18.369  0.00  0.00    +0.000 F 
ENDBRANCH   7  18
BRANCH  14  26
ATOM     26  O   UNL     1      -2.989  13.427  22.296  0.00  0.00    +0.000 OA
ATOM     27  H   UNL     1      -3.382  12.624  22.679  0.00  0.00    +0.000 HD
ENDBRANCH  14  26
TORSDOF 2
ENDMDL
MODEL 3
REMARK VINA RESULT:      -8.4      5.275      7.652
REMARK  Name = 
REMARK  2 active torsions:
REMARK  status: ('A' for Active; 'I' for Inactive)
REMARK    1  A    between atoms: C_7  and  C_8
REMARK    2  A    between atoms: C_22  and  O_23
REMARK                            x       y       z     vdW  Elec       q    Type
REMARK                         _______ _______ _______ _____ _____    ______ ____
ROOT
ATOM      1  O   UNL     1      -0.444  13.096  18.528  0.00  0.00    +0.000 OA
ATOM      2  C   UNL     1      -0.193  11.976  18.970  0.00  0.00    +0.000 C 
ATOM      3  N   UNL     1       0.869  11.270  18.464  0.00  0.00    +0.000 N 
ATOM      4  C   UNL     1       1.285   9.974  18.821  0.00  0.00    +0.000 A 
ATOM      5  C   UNL     1       1.857   9.222  17.790  0.00  0.00    +0.000 A 
ATOM      6  C   UNL     1       2.291   7.910  18.009  0.00  0.00    +0.000 A 
ATOM      7  C   UNL     1       2.248   7.320  19.281  0.00  0.00    +0.000 A 
ATOM      8  C   UNL     1       1.706   8.103  20.316  0.00  0.00    +0.000 A 
ATOM      9  C   UNL     1       1.196   9.402  20.100  0.00  0.00    +0.000 A 
ATOM     10  C   UNL     1       0.689  10.103  21.313  0.00  0.00    +0.000 C 
ATOM     11  O   UNL     1       1.178   9.839  22.409  0.00  0.00    +0.000 OA
ATOM     12  N   UNL     1      -0.335  11.004  21.170  0.00  0.00    +0.000 N 
ATOM     13  C   UNL     1      -0.882  11.740  22.294  0.00  0.00    +0.000 C 
ATOM     14  C   UNL     1      -1.851  12.743  21.666  0.00  0.00    +0.000 C 
ATOM     15  C   UNL     1      -2.317  12.027  20.401  0.00  0.00    +0.000 C 
ATOM     16  C   UNL     1      -1.092  11.237  19.956  0.00  0.00    +0.000 C 
ATOM     17  H   UNL     1       1.275  11.702  17.642  0.00  0.00    +0.000 HD
ENDROOT
BRANCH   7  18
ATOM     18  C   UNL     1       2.751   5.945  19.530  0.00  0.00    +0.000 A 
ATOM     19  C   UNL     1       4.007   5.527  19.042  0.00  0.00    +0.000 A 
ATOM     20  C   UNL     1       4.483   4.229  19.261  0.00  0.00    +0.000 A 
ATOM     21  C   UNL     1       3.715   3.330  19.987  0.00  0.00    +0.000 A 
ATOM     22  F   UNL     1       4.175   2.091  20.204  0.00  0.00    +0.000 F 
ATOM     23  C   UNL     1       2.480   3.700  20.491  0.00  0.00    +0.000 A 
ATOM     24  C   UNL     1       2.009   4.989  20.255  0.00  0.00    +0.000 A 
ATOM     25  F   UNL     1       0.793   5.289  20.738  0.00  0.00    +0.000 F 
ENDBRANCH   7  18
BRANCH  14  26
ATOM     26  O   UNL     1      -2.951  13.054  22.506  0.00  0.00    +0.000 OA
ATOM     27  H   UNL     1      -3.242  13.962  22.315  0.00  0.00    +0.000 HD
ENDBRANCH  14  26
TORSDOF 2
ENDMDL
MODEL 4
REMARK VINA RESULT:      -8.3      4.893      8.363
REMARK  Name = 
REMARK  2 active torsions:
REMARK  status: ('A' for Active; 'I' for Inactive)
REMARK    1  A    between atoms: C_7  and  C_8
REMARK    2  A    between atoms: C_22  and  O_23
REMARK                            x       y       z     vdW  Elec       q    Type
REMARK                         _______ _______ _______ _____ _____    ______ ____
ROOT
ATOM      1  O   UNL     1       4.515   4.757  16.723  0.00  0.00    +0.000 OA
ATOM      2  C   UNL     1       3.990   5.325  17.680  0.00  0.00    +0.000 C 
ATOM      3  N   UNL     1       3.139   6.379  17.457  0.00  0.00    +0.000 N 
ATOM      4  C   UNL     1       2.476   7.164  18.419  0.00  0.00    +0.000 A 
ATOM      5  C   UNL     1       2.272   8.502  18.065  0.00  0.00    +0.000 A 
ATOM      6  C   UNL     1       1.646   9.393  18.943  0.00  0.00    +0.000 A 
ATOM      7  C   UNL     1       1.124   8.971  20.175  0.00  0.00    +0.000 A 
ATOM      8  C   UNL     1       1.302   7.615  20.499  0.00  0.00    +0.000 A 
ATOM      9  C   UNL     1       1.996   6.717  19.660  0.00  0.00    +0.000 A 
ATOM     10  C   UNL     1       2.062   5.308  20.142  0.00  0.00    +0.000 C 
ATOM     11  O   UNL     1       1.159   4.871  20.850  0.00  0.00    +0.000 OA
ATOM     12  N   UNL     1       3.154   4.550  19.801  0.00  0.00    +0.000 N 
ATOM     13  C   UNL     1       3.296   3.167  20.217  0.00  0.00    +0.000 C 
ATOM     14  C   UNL     1       4.538   2.666  19.477  0.00  0.00    +0.000 C 
ATOM     15  C   UNL     1       5.379   3.930  19.318  0.00  0.00    +0.000 C 
ATOM     16  C   UNL     1       4.345   5.036  19.134  0.00  0.00    +0.000 C 
ATOM     17  H   UNL     1       3.136   6.687  16.492  0.00  0.00    +0.000 HD
ENDROOT
BRANCH   7  18
ATOM     18  C   UNL     1       0.415   9.902  21.090  0.00  0.00    +0.000 A 
ATOM     19  C   UNL     1      -0.253   9.430  22.240  0.00  0.00    +0.000 A 
ATOM     20  C   UNL     1      -0.934  10.299  23.100  0.00  0.00    +0.000 A 
ATOM     21  C   UNL     1      -0.945  11.660  22.833  0.00  0.00    +0.000 A 
ATOM     22  F   UNL     1      -1.589  12.492  23.660  0.00  0.00    +0.000 F 
ATOM     23  C   UNL     1      -0.297  12.168  21.720  0.00  0.00    +0.000 A 
ATOM     24  C   UNL     1       0.366  11.293  20.862  0.00  0.00    +0.000 A 
ATOM     25  F   UNL     1       0.953  11.831  19.781  0.00  0.00    +0.000 F 
ENDBRANCH   7  18
BRANCH  14  26
ATOM     26  O   UNL     1       5.249   1.672  20.196  0.00  0.00    +0.000 OA
ATOM     27  H   UNL     1       4.614   1.145  20.709  0.00  0.00    +0.000 HD
ENDBRANCH  14  26
TORSDOF 2
ENDMDL
MODEL 5
REMARK VINA RESULT:      -8.3      5.088      8.509
REMARK  Name = 
REMARK  2 active torsions:
REMARK  status: ('A' for Active; 'I' for Inactive)
REMARK    1  A    between atoms: C_7  and  C_8
REMARK    2  A    between atoms: C_22  and  O_23
REMARK                            x       y       z     vdW  Elec       q    Type
REMARK                         _______ _______ _______ _____ _____    ______ ____
ROOT
ATOM      1  O   UNL     1       4.465   4.952  16.704  0.00  0.00    +0.000 OA
ATOM      2  C   UNL     1       3.958   5.544  17.656  0.00  0.00    +0.000 C 
ATOM      3  N   UNL     1       3.110   6.598  17.424  0.00  0.00    +0.000 N 
ATOM      4  C   UNL     1       2.467   7.408  18.378  0.00  0.00    +0.000 A 
ATOM      5  C   UNL     1       2.266   8.739  17.999  0.00  0.00    +0.000 A 
ATOM      6  C   UNL     1       1.658   9.652  18.867  0.00  0.00    +0.000 A 
ATOM      7  C   UNL     1       1.153   9.261  20.116  0.00  0.00    +0.000 A 
ATOM      8  C   UNL     1       1.327   7.910  20.466  0.00  0.00    +0.000 A 
ATOM      9  C   UNL     1       2.003   6.990  19.636  0.00  0.00    +0.000 A 
ATOM     10  C   UNL     1       2.068   5.592  20.147  0.00  0.00    +0.000 C 
ATOM     11  O   UNL     1       1.173   5.175  20.878  0.00  0.00    +0.000 OA
ATOM     12  N   UNL     1       3.150   4.820  19.806  0.00  0.00    +0.000 N 
ATOM     13  C   UNL     1       3.290   3.445  20.249  0.00  0.00    +0.000 C 
ATOM     14  C   UNL     1       4.517   2.921  19.502  0.00  0.00    +0.000 C 
ATOM     15  C   UNL     1       5.363   4.175  19.303  0.00  0.00    +0.000 C 
ATOM     16  C   UNL     1       4.334   5.284  19.111  0.00  0.00    +0.000 C 
ATOM     17  H   UNL     1       3.094   6.886  16.452  0.00  0.00    +0.000 HD
ENDROOT
BRANCH   7  18
ATOM     18  C   UNL     1       0.464  10.216  21.021  0.00  0.00    +0.000 A 
ATOM     19  C   UNL     1       0.610  11.610  20.862  0.00  0.00    +0.000 A 
ATOM     20  C   UNL     1      -0.026  12.516  21.719  0.00  0.00    +0.000 A 
ATOM     21  C   UNL     1      -0.832  12.041  22.743  0.00  0.00    +0.000 A 
ATOM     22  F   UNL     1      -1.447  12.908  23.557  0.00  0.00    +0.000 F 
ATOM     23  C   UNL     1      -1.011  10.682  22.931  0.00  0.00    +0.000 A 
ATOM     24  C   UNL     1      -0.362   9.788  22.082  0.00  0.00    +0.000 A 
ATOM     25  F   UNL     1      -0.542   8.480  22.325  0.00  0.00    +0.000 F 
ENDBRANCH   7  18
BRANCH  14  26
ATOM     26  O   UNL     1       5.233   1.938  20.231  0.00  0.00    +0.000 OA
ATOM     27  H   UNL     1       4.697   1.664  20.994  0.00  0.00    +0.000 HD
ENDBRANCH  14  26
TORSDOF 2
ENDMDL
MODEL 6
REMARK VINA RESULT:      -8.2      4.907      6.680
REMARK  Name = 
REMARK  2 active torsions:
REMARK  status: ('A' for Active; 'I' for Inactive)
REMARK    1  A    between atoms: C_7  and  C_8
REMARK    2  A    between atoms: C_22  and  O_23
REMARK                            x       y       z     vdW  Elec       q    Type
REMARK                         _______ _______ _______ _____ _____    ______ ____
ROOT
ATOM      1  O   UNL     1       0.265  12.889  19.380  0.00  0.00    +0.000 OA
ATOM      2  C   UNL     1       0.380  11.674  19.531  0.00  0.00    +0.000 C 
ATOM      3  N   UNL     1       1.381  11.002  18.876  0.00  0.00    +0.000 N 
ATOM      4  C   UNL     1       1.645   9.620  18.902  0.00  0.00    +0.000 A 
ATOM      5  C   UNL     1       2.175   9.088  17.722  0.00  0.00    +0.000 A 
ATOM      6  C   UNL     1       2.461   7.723  17.610  0.00  0.00    +0.000 A 
ATOM      7  C   UNL     1       2.306   6.845  18.694  0.00  0.00    +0.000 A 
ATOM      8  C   UNL     1       1.810   7.402  19.885  0.00  0.00    +0.000 A 
ATOM      9  C   UNL     1       1.447   8.762  19.995  0.00  0.00    +0.000 A 
ATOM     10  C   UNL     1       0.970   9.192  21.340  0.00  0.00    +0.000 C 
ATOM     11  O   UNL     1       1.386   8.613  22.340  0.00  0.00    +0.000 OA
ATOM     12  N   UNL     1       0.052  10.209  21.415  0.00  0.00    +0.000 N 
ATOM     13  C   UNL     1      -0.458  10.700  22.681  0.00  0.00    +0.000 C 
ATOM     14  C   UNL     1      -1.292  11.928  22.314  0.00  0.00    +0.000 C 
ATOM     15  C   UNL     1      -1.781  11.605  20.905  0.00  0.00    +0.000 C 
ATOM     16  C   UNL     1      -0.628  10.818  20.290  0.00  0.00    +0.000 C 
ATOM     17  H   UNL     1       1.861  11.576  18.193  0.00  0.00    +0.000 HD
ENDROOT
BRANCH   7  18
ATOM     18  C   UNL     1       2.653   5.404  18.596  0.00  0.00    +0.000 A 
ATOM     19  C   UNL     1       1.791   4.486  17.959  0.00  0.00    +0.000 A 
ATOM     20  C   UNL     1       2.105   3.124  17.874  0.00  0.00    +0.000 A 
ATOM     21  C   UNL     1       3.296   2.660  18.412  0.00  0.00    +0.000 A 
ATOM     22  F   UNL     1       3.600   1.359  18.323  0.00  0.00    +0.000 F 
ATOM     23  C   UNL     1       4.175   3.526  19.039  0.00  0.00    +0.000 A 
ATOM     24  C   UNL     1       3.847   4.877  19.132  0.00  0.00    +0.000 A 
ATOM     25  F   UNL     1       4.718   5.671  19.775  0.00  0.00    +0.000 F 
ENDBRANCH   7  18
BRANCH  14  26
ATOM     26  O   UNL     1      -2.384  12.141  23.192  0.00  0.00    +0.000 OA
ATOM     27  H   UNL     1      -2.965  11.362  23.161  0.00  0.00    +0.000 HD
ENDBRANCH  14  26
TORSDOF 2
ENDMDL
MODEL 7
REMARK VINA RESULT:      -8.2      4.981      6.736
REMARK  Name = 
REMARK  2 active torsions:
REMARK  status: ('A' for Active; 'I' for Inactive)
REMARK    1  A    between atoms: C_7  and  C_8
REMARK    2  A    between atoms: C_22  and  O_23
REMARK                            x       y       z     vdW  Elec       q    Type
REMARK                         _______ _______ _______ _____ _____    ______ ____
ROOT
ATOM      1  O   UNL     1       0.588  12.696  18.650  0.00  0.00    +0.000 OA
ATOM      2  C   UNL     1       0.656  11.492  18.892  0.00  0.00    +0.000 C 
ATOM      3  N   UNL     1       1.708  10.761  18.400  0.00  0.00    +0.000 N 
ATOM      4  C   UNL     1       1.936   9.380  18.546  0.00  0.00    +0.000 A 
ATOM      5  C   UNL     1       2.582   8.761  17.471  0.00  0.00    +0.000 A 
ATOM      6  C   UNL     1       2.846   7.387  17.482  0.00  0.00    +0.000 A 
ATOM      7  C   UNL     1       2.551   6.588  18.596  0.00  0.00    +0.000 A 
ATOM      8  C   UNL     1       1.938   7.232  19.685  0.00  0.00    +0.000 A 
ATOM      9  C   UNL     1       1.596   8.602  19.664  0.00  0.00    +0.000 A 
ATOM     10  C   UNL     1       0.982   9.129  20.915  0.00  0.00    +0.000 C 
ATOM     11  O   UNL     1       1.269   8.612  21.992  0.00  0.00    +0.000 OA
ATOM     12  N   UNL     1       0.085  10.164  20.819  0.00  0.00    +0.000 N 
ATOM     13  C   UNL     1      -0.552  10.747  21.984  0.00  0.00    +0.000 C 
ATOM     14  C   UNL     1      -1.311  11.960  21.445  0.00  0.00    +0.000 C 
ATOM     15  C   UNL     1      -1.646  11.550  20.014  0.00  0.00    +0.000 C 
ATOM     16  C   UNL     1      -0.451  10.705  19.586  0.00  0.00    +0.000 C 
ATOM     17  H   UNL     1       2.276  11.280  17.741  0.00  0.00    +0.000 HD
ENDROOT
BRANCH   7  18
ATOM     18  C   UNL     1       2.873   5.138  18.633  0.00  0.00    +0.000 A 
ATOM     19  C   UNL     1       3.990   4.655  19.347  0.00  0.00    +0.000 A 
ATOM     20  C   UNL     1       4.307   3.291  19.376  0.00  0.00    +0.000 A 
ATOM     21  C   UNL     1       3.502   2.385  18.701  0.00  0.00    +0.000 A 
ATOM     22  F   UNL     1       3.801   1.080  18.736  0.00  0.00    +0.000 F 
ATOM     23  C   UNL     1       2.392   2.814  17.995  0.00  0.00    +0.000 A 
ATOM     24  C   UNL     1       2.093   4.174  17.960  0.00  0.00    +0.000 A 
ATOM     25  F   UNL     1       1.024   4.543  17.236  0.00  0.00    +0.000 F 
ENDBRANCH   7  18
BRANCH  14  26
ATOM     26  O   UNL     1      -2.490  12.250  22.178  0.00  0.00    +0.000 OA
ATOM     27  H   UNL     1      -2.556  11.625  22.920  0.00  0.00    +0.000 HD
ENDBRANCH  14  26
TORSDOF 2
ENDMDL
MODEL 8
REMARK VINA RESULT:      -8.1      0.933      1.339
REMARK  Name = 
REMARK  2 active torsions:
REMARK  status: ('A' for Active; 'I' for Inactive)
REMARK    1  A    between atoms: C_7  and  C_8
REMARK    2  A    between atoms: C_22  and  O_23
REMARK                            x       y       z     vdW  Elec       q    Type
REMARK                         _______ _______ _______ _____ _____    ______ ____
ROOT
ATOM      1  O   UNL     1       1.844   6.622  20.969  0.00  0.00    +0.000 OA
ATOM      2  C   UNL     1       2.378   5.997  20.054  0.00  0.00    +0.000 C 
ATOM      3  N   UNL     1       3.228   6.648  19.195  0.00  0.00    +0.000 N 
ATOM      4  C   UNL     1       3.901   6.110  18.082  0.00  0.00    +0.000 A 
ATOM      5  C   UNL     1       4.103   6.994  17.018  0.00  0.00    +0.000 A 
ATOM      6  C   UNL     1       4.738   6.577  15.843  0.00  0.00    +0.000 A 
ATOM      7  C   UNL     1       5.271   5.286  15.711  0.00  0.00    +0.000 A 
ATOM      8  C   UNL     1       5.095   4.421  16.806  0.00  0.00    +0.000 A 
ATOM      9  C   UNL     1       4.393   4.800  17.970  0.00  0.00    +0.000 A 
ATOM     10  C   UNL     1       4.329   3.771  19.045  0.00  0.00    +0.000 C 
ATOM     11  O   UNL     1       5.239   2.951  19.150  0.00  0.00    +0.000 OA
ATOM     12  N   UNL     1       3.233   3.753  19.871  0.00  0.00    +0.000 N 
ATOM     13  C   UNL     1       3.093   2.794  20.951  0.00  0.00    +0.000 C 
ATOM     14  C   UNL     1       1.844   3.245  21.710  0.00  0.00    +0.000 C 
ATOM     15  C   UNL     1       1.004   3.913  20.626  0.00  0.00    +0.000 C 
ATOM     16  C   UNL     1       2.037   4.553  19.704  0.00  0.00    +0.000 C 
ATOM     17  H   UNL     1       3.223   7.654  19.320  0.00  0.00    +0.000 HD
ENDROOT
BRANCH   7  18
ATOM     18  C   UNL     1       5.989   4.852  14.486  0.00  0.00    +0.000 A 
ATOM     19  C   UNL     1       7.261   5.370  14.162  0.00  0.00    +0.000 A 
ATOM     20  C   UNL     1       7.939   4.976  13.002  0.00  0.00    +0.000 A 
ATOM     21  C   UNL     1       7.361   4.043  12.153  0.00  0.00    +0.000 A 
ATOM     22  F   UNL     1       8.014   3.659  11.049  0.00  0.00    +0.000 F 
ATOM     23  C   UNL     1       6.119   3.502  12.436  0.00  0.00    +0.000 A 
ATOM     24  C   UNL     1       5.445   3.912  13.585  0.00  0.00    +0.000 A 
ATOM     25  F   UNL     1       4.231   3.382  13.799  0.00  0.00    +0.000 F 
ENDBRANCH   7  18
BRANCH  14  26
ATOM     26  O   UNL     1       1.139   2.170  22.307  0.00  0.00    +0.000 OA
ATOM     27  H   UNL     1       0.799   1.591  21.604  0.00  0.00    +0.000 HD
ENDBRANCH  14  26
TORSDOF 2
ENDMDL
MODEL 9
REMARK VINA RESULT:      -7.8      3.589      5.644
REMARK  Name = 
REMARK  2 active torsions:
REMARK  status: ('A' for Active; 'I' for Inactive)
REMARK    1  A    between atoms: C_7  and  C_8
REMARK    2  A    between atoms: C_22  and  O_23
REMARK                            x       y       z     vdW  Elec       q    Type
REMARK                         _______ _______ _______ _____ _____    ______ ____
ROOT
ATOM      1  O   UNL     1      -0.557   9.016  22.362  0.00  0.00    +0.000 OA
ATOM      2  C   UNL     1       0.304   8.873  21.495  0.00  0.00    +0.000 C 
ATOM      3  N   UNL     1       0.685   7.608  21.121  0.00  0.00    +0.000 N 
ATOM      4  C   UNL     1       1.667   7.252  20.177  0.00  0.00    +0.000 A 
ATOM      5  C   UNL     1       2.357   6.066  20.448  0.00  0.00    +0.000 A 
ATOM      6  C   UNL     1       3.374   5.614  19.600  0.00  0.00    +0.000 A 
ATOM      7  C   UNL     1       3.690   6.279  18.406  0.00  0.00    +0.000 A 
ATOM      8  C   UNL     1       2.960   7.448  18.128  0.00  0.00    +0.000 A 
ATOM      9  C   UNL     1       1.982   7.961  19.007  0.00  0.00    +0.000 A 
ATOM     10  C   UNL     1       1.281   9.191  18.541  0.00  0.00    +0.000 C 
ATOM     11  O   UNL     1       1.148   9.388  17.336  0.00  0.00    +0.000 OA
ATOM     12  N   UNL     1       0.830  10.084  19.480  0.00  0.00    +0.000 N 
ATOM     13  C   UNL     1       0.128  11.300  19.118  0.00  0.00    +0.000 C 
ATOM     14  C   UNL     1      -0.343  11.888  20.449  0.00  0.00    +0.000 C 
ATOM     15  C   UNL     1       0.715  11.400  21.435  0.00  0.00    +0.000 C 
ATOM     16  C   UNL     1       1.106  10.026  20.902  0.00  0.00    +0.000 C 
ATOM     17  H   UNL     1       0.304   6.887  21.721  0.00  0.00    +0.000 HD
ENDROOT
BRANCH   7  18
ATOM     18  C   UNL     1       4.735   5.777  17.477  0.00  0.00    +0.000 A 
ATOM     19  C   UNL     1       5.960   6.459  17.319  0.00  0.00    +0.000 A 
ATOM     20  C   UNL     1       6.945   5.999  16.436  0.00  0.00    +0.000 A 
ATOM     21  C   UNL     1       6.726   4.839  15.707  0.00  0.00    +0.000 A 
ATOM     22  F   UNL     1       7.672   4.395  14.870  0.00  0.00    +0.000 F 
ATOM     23  C   UNL     1       5.542   4.134  15.838  0.00  0.00    +0.000 A 
ATOM     24  C   UNL     1       4.562   4.608  16.708  0.00  0.00    +0.000 A 
ATOM     25  F   UNL     1       3.420   3.906  16.775  0.00  0.00    +0.000 F 
ENDBRANCH   7  18
BRANCH  14  26
ATOM     26  O   UNL     1      -0.410  13.304  20.439  0.00  0.00    +0.000 OA
ATOM     27  H   UNL     1      -1.272  13.572  20.078  0.00  0.00    +0.000 HD
ENDBRANCH  14  26
TORSDOF 2
ENDMDL
