MODEL 1
REMARK VINA RESULT:      -7.8      0.000      0.000
REMARK  Name = 
REMARK  5 active torsions:
REMARK  status: ('A' for Active; 'I' for Inactive)
REMARK    1  A    between atoms: C_2  and  C_3
REMARK    2  A    between atoms: C_3  and  N_4
REMARK    3  A    between atoms: C_11  and  C_13
REMARK    4  A    between atoms: N_22  and  C_23
REMARK    5  A    between atoms: C_23  and  C_24
REMARK                            x       y       z     vdW  Elec       q    Type
REMARK                         _______ _______ _______ _____ _____    ______ ____
ROOT
ATOM      1  N   UNL     1       5.020   4.463  16.798  0.00  0.00    +0.000 NA
ATOM      2  C   UNL     1       5.399   5.167  15.554  0.00  0.00    +0.000 C 
ATOM      3  C   UNL     1       5.717   6.651  15.803  0.00  0.00    +0.000 C 
ATOM      4  C   UNL     1       6.627   6.772  16.965  0.00  0.00    +0.000 A 
ATOM      5  N   UNL     1       7.334   7.918  17.193  0.00  0.00    +0.000 NA
ATOM      6  C   UNL     1       8.052   7.777  18.275  0.00  0.00    +0.000 A 
ATOM      7  N   UNL     1       8.863   8.724  18.844  0.00  0.00    +0.000 N 
ATOM      8  C   UNL     1       8.823  10.025  18.377  0.00  0.00    +0.000 C 
ATOM      9  O   UNL     1       8.089  10.476  17.502  0.00  0.00    +0.000 OA
ATOM     10  S   UNL     1       7.961   6.246  19.047  0.00  0.00    +0.000 S 
ATOM     11  C   UNL     1       6.810   5.756  17.879  0.00  0.00    +0.000 A 
ATOM     12  C   UNL     1       6.132   4.417  17.790  0.00  0.00    +0.000 C 
ATOM     13  H   UNL     1       9.451   8.482  19.628  0.00  0.00    +0.000 HD
ENDROOT
BRANCH   8  14
ATOM     14  C   UNL     1       9.753  10.974  19.037  0.00  0.00    +0.000 A 
ATOM     15  C   UNL     1       9.577  11.251  20.390  0.00  0.00    +0.000 A 
ATOM     16  N   UNL     1      10.376  12.111  21.070  0.00  0.00    +0.000 NA
ATOM     17  C   UNL     1      11.353  12.685  20.336  0.00  0.00    +0.000 A 
ATOM     18  C   UNL     1      11.531  12.410  18.985  0.00  0.00    +0.000 A 
ATOM     19  N   UNL     1      10.743  11.546  18.293  0.00  0.00    +0.000 NA
ENDBRANCH   8  14
BRANCH   1  20
ATOM     20  C   UNL     1       4.436   3.132  16.534  0.00  0.00    +0.000 C 
BRANCH  20  22
ATOM     21  O   UNL     1       2.693   1.752  17.497  0.00  0.00    +0.000 OA
ATOM     22  C   UNL     1       3.117   2.883  17.275  0.00  0.00    +0.000 C 
ATOM     23  N   UNL     1       2.430   4.022  17.627  0.00  0.00    +0.000 N 
ATOM     24  H   UNL     1       2.858   4.932  17.515  0.00  0.00    +0.000 HD
BRANCH  23  25
ATOM     25  C   UNL     1       1.158   3.971  18.306  0.00  0.00    +0.000 C 
BRANCH  25  26
ATOM     26  C   UNL     1       1.387   3.641  19.736  0.00  0.00    +0.000 A 
ATOM     27  C   UNL     1       0.962   2.607  20.547  0.00  0.00    +0.000 A 
ATOM     28  C   UNL     1       1.541   2.830  21.818  0.00  0.00    +0.000 A 
ATOM     29  C   UNL     1       2.274   3.988  21.709  0.00  0.00    +0.000 A 
ATOM     30  O   UNL     1       2.183   4.492  20.450  0.00  0.00    +0.000 OA
ENDBRANCH  25  26
ENDBRANCH  23  25
ENDBRANCH  20  22
ENDBRANCH   1  20
TORSDOF 5
ENDMDL
MODEL 2
REMARK VINA RESULT:      -7.7      5.534      7.920
REMARK  Name = 
REMARK  5 active torsions:
REMARK  status: ('A' for Active; 'I' for Inactive)
REMARK    1  A    between atoms: C_2  and  C_3
REMARK    2  A    between atoms: C_3  and  N_4
REMARK    3  A    between atoms: C_11  and  C_13
REMARK    4  A    between atoms: N_22  and  C_23
REMARK    5  A    between atoms: C_23  and  C_24
REMARK                            x       y       z     vdW  Elec       q    Type
REMARK                         _______ _______ _______ _____ _____    ______ ____
ROOT
ATOM      1  N   UNL     1       3.279   4.653  19.009  0.00  0.00    +0.000 NA
ATOM      2  C   UNL     1       2.120   4.229  19.824  0.00  0.00    +0.000 C 
ATOM      3  C   UNL     1       1.768   5.260  20.909  0.00  0.00    +0.000 C 
ATOM      4  C   UNL     1       1.730   6.614  20.309  0.00  0.00    +0.000 A 
ATOM      5  N   UNL     1       1.117   7.653  20.951  0.00  0.00    +0.000 NA
ATOM      6  C   UNL     1       1.224   8.734  20.224  0.00  0.00    +0.000 A 
ATOM      7  N   UNL     1       0.769   9.984  20.552  0.00  0.00    +0.000 N 
ATOM      8  C   UNL     1       0.301  10.225  21.831  0.00  0.00    +0.000 C 
ATOM      9  O   UNL     1       0.277   9.437  22.773  0.00  0.00    +0.000 OA
ATOM     10  S   UNL     1       2.017   8.553  18.712  0.00  0.00    +0.000 S 
ATOM     11  C   UNL     1       2.303   6.908  19.091  0.00  0.00    +0.000 A 
ATOM     12  C   UNL     1       3.008   5.896  18.232  0.00  0.00    +0.000 C 
ATOM     13  H   UNL     1       0.818  10.734  19.878  0.00  0.00    +0.000 HD
ENDROOT
BRANCH   8  14
ATOM     14  C   UNL     1      -0.195  11.601  22.086  0.00  0.00    +0.000 A 
ATOM     15  C   UNL     1       0.261  12.636  21.275  0.00  0.00    +0.000 A 
ATOM     16  N   UNL     1      -0.134  13.923  21.441  0.00  0.00    +0.000 NA
ATOM     17  C   UNL     1      -0.999  14.128  22.459  0.00  0.00    +0.000 A 
ATOM     18  C   UNL     1      -1.455  13.096  23.271  0.00  0.00    +0.000 A 
ATOM     19  N   UNL     1      -1.072  11.802  23.110  0.00  0.00    +0.000 NA
ENDBRANCH   8  14
BRANCH   1  20
ATOM     20  C   UNL     1       3.805   3.557  18.169  0.00  0.00    +0.000 C 
BRANCH  20  22
ATOM     21  O   UNL     1       5.086   3.984  16.157  0.00  0.00    +0.000 OA
ATOM     22  C   UNL     1       5.066   3.937  17.384  0.00  0.00    +0.000 C 
ATOM     23  N   UNL     1       6.178   4.173  18.160  0.00  0.00    +0.000 N 
ATOM     24  H   UNL     1       6.097   4.220  19.168  0.00  0.00    +0.000 HD
BRANCH  23  25
ATOM     25  C   UNL     1       7.456   4.515  17.584  0.00  0.00    +0.000 C 
BRANCH  25  26
ATOM     26  C   UNL     1       7.717   5.959  17.812  0.00  0.00    +0.000 A 
ATOM     27  C   UNL     1       8.186   6.675  18.895  0.00  0.00    +0.000 A 
ATOM     28  C   UNL     1       8.245   8.029  18.487  0.00  0.00    +0.000 A 
ATOM     29  C   UNL     1       7.800   8.057  17.187  0.00  0.00    +0.000 A 
ATOM     30  O   UNL     1       7.471   6.807  16.768  0.00  0.00    +0.000 OA
ENDBRANCH  25  26
ENDBRANCH  23  25
ENDBRANCH  20  22
ENDBRANCH   1  20
TORSDOF 5
ENDMDL
MODEL 3
REMARK VINA RESULT:      -7.7      6.920      8.582
REMARK  Name = 
REMARK  5 active torsions:
REMARK  status: ('A' for Active; 'I' for Inactive)
REMARK    1  A    between atoms: C_2  and  C_3
REMARK    2  A    between atoms: C_3  and  N_4
REMARK    3  A    between atoms: C_11  and  C_13
REMARK    4  A    between atoms: N_22  and  C_23
REMARK    5  A    between atoms: C_23  and  C_24
REMARK                            x       y       z     vdW  Elec       q    Type
REMARK                         _______ _______ _______ _____ _____    ______ ____
ROOT
ATOM      1  N   UNL     1       2.902   7.709  18.510  0.00  0.00    +0.000 NA
ATOM      2  C   UNL     1       2.341   6.844  19.571  0.00  0.00    +0.000 C 
ATOM      3  C   UNL     1       1.924   7.649  20.813  0.00  0.00    +0.000 C 
ATOM      4  C   UNL     1       1.130   8.827  20.394  0.00  0.00    +0.000 A 
ATOM      5  N   UNL     1       0.354   9.509  21.288  0.00  0.00    +0.000 NA
ATOM      6  C   UNL     1      -0.237  10.503  20.679  0.00  0.00    +0.000 A 
ATOM      7  N   UNL     1      -1.063  11.434  21.251  0.00  0.00    +0.000 N 
ATOM      8  C   UNL     1      -1.181  11.484  22.628  0.00  0.00    +0.000 C 
ATOM      9  O   UNL     1      -0.581  10.798  23.450  0.00  0.00    +0.000 OA
ATOM     10  S   UNL     1       0.062  10.641  18.994  0.00  0.00    +0.000 S 
ATOM     11  C   UNL     1       1.127   9.304  19.101  0.00  0.00    +0.000 A 
ATOM     12  C   UNL     1       1.904   8.680  17.977  0.00  0.00    +0.000 C 
ATOM     13  H   UNL     1      -1.546  12.106  20.673  0.00  0.00    +0.000 HD
ENDROOT
BRANCH   8  14
ATOM     14  C   UNL     1      -2.118  12.508  23.156  0.00  0.00    +0.000 A 
ATOM     15  C   UNL     1      -1.619  13.767  23.479  0.00  0.00    +0.000 A 
ATOM     16  N   UNL     1      -2.402  14.758  23.974  0.00  0.00    +0.000 NA
ATOM     17  C   UNL     1      -3.703  14.432  24.135  0.00  0.00    +0.000 A 
ATOM     18  C   UNL     1      -4.204  13.176  23.813  0.00  0.00    +0.000 A 
ATOM     19  N   UNL     1      -3.432  12.176  23.311  0.00  0.00    +0.000 NA
ENDBRANCH   8  14
BRANCH   1  20
ATOM     20  C   UNL     1       3.568   6.931  17.446  0.00  0.00    +0.000 C 
BRANCH  20  22
ATOM     21  O   UNL     1       4.816   4.963  18.105  0.00  0.00    +0.000 OA
ATOM     22  C   UNL     1       3.734   5.445  17.783  0.00  0.00    +0.000 C 
ATOM     23  N   UNL     1       2.589   4.693  17.653  0.00  0.00    +0.000 N 
ATOM     24  H   UNL     1       1.699   5.144  17.482  0.00  0.00    +0.000 HD
BRANCH  23  25
ATOM     25  C   UNL     1       2.571   3.273  17.905  0.00  0.00    +0.000 C 
BRANCH  25  26
ATOM     26  C   UNL     1       2.218   3.039  19.328  0.00  0.00    +0.000 A 
ATOM     27  C   UNL     1       1.023   3.048  20.019  0.00  0.00    +0.000 A 
ATOM     28  C   UNL     1       1.332   2.721  21.361  0.00  0.00    +0.000 A 
ATOM     29  C   UNL     1       2.694   2.544  21.409  0.00  0.00    +0.000 A 
ATOM     30  O   UNL     1       3.244   2.741  20.182  0.00  0.00    +0.000 OA
ENDBRANCH  25  26
ENDBRANCH  23  25
ENDBRANCH  20  22
ENDBRANCH   1  20
TORSDOF 5
ENDMDL
MODEL 4
REMARK VINA RESULT:      -7.7      5.746      8.396
REMARK  Name = 
REMARK  5 active torsions:
REMARK  status: ('A' for Active; 'I' for Inactive)
REMARK    1  A    between atoms: C_2  and  C_3
REMARK    2  A    between atoms: C_3  and  N_4
REMARK    3  A    between atoms: C_11  and  C_13
REMARK    4  A    between atoms: N_22  and  C_23
REMARK    5  A    between atoms: C_23  and  C_24
REMARK                            x       y       z     vdW  Elec       q    Type
REMARK                         _______ _______ _______ _____ _____    ______ ____
ROOT
ATOM      1  N   UNL     1       3.630   4.900  18.952  0.00  0.00    +0.000 NA
ATOM      2  C   UNL     1       2.514   4.333  19.740  0.00  0.00    +0.000 C 
ATOM      3  C   UNL     1       2.066   5.275  20.869  0.00  0.00    +0.000 C 
ATOM      4  C   UNL     1       1.901   6.645  20.333  0.00  0.00    +0.000 A 
ATOM      5  N   UNL     1       1.193   7.591  21.018  0.00  0.00    +0.000 NA
ATOM      6  C   UNL     1       1.200   8.711  20.344  0.00  0.00    +0.000 A 
ATOM      7  N   UNL     1       0.629   9.896  20.727  0.00  0.00    +0.000 N 
ATOM      8  C   UNL     1       0.139  10.032  22.013  0.00  0.00    +0.000 C 
ATOM      9  O   UNL     1       0.187   9.202  22.917  0.00  0.00    +0.000 OA
ATOM     10  S   UNL     1       2.007   8.675  18.830  0.00  0.00    +0.000 S 
ATOM     11  C   UNL     1       2.447   7.048  19.133  0.00  0.00    +0.000 A 
ATOM     12  C   UNL     1       3.244   6.148  18.232  0.00  0.00    +0.000 C 
ATOM     13  H   UNL     1       0.608  10.678  20.088  0.00  0.00    +0.000 HD
ENDROOT
BRANCH   8  14
ATOM     14  C   UNL     1      -0.484  11.342  22.328  0.00  0.00    +0.000 A 
ATOM     15  C   UNL     1      -1.683  11.359  23.036  0.00  0.00    +0.000 A 
ATOM     16  N   UNL     1      -2.324  12.510  23.360  0.00  0.00    +0.000 NA
ATOM     17  C   UNL     1      -1.715  13.640  22.940  0.00  0.00    +0.000 A 
ATOM     18  C   UNL     1      -0.519  13.626  22.233  0.00  0.00    +0.000 A 
ATOM     19  N   UNL     1       0.137  12.481  21.908  0.00  0.00    +0.000 NA
ENDBRANCH   8  14
BRANCH   1  20
ATOM     20  C   UNL     1       4.256   3.899  18.065  0.00  0.00    +0.000 C 
BRANCH  20  22
ATOM     21  O   UNL     1       6.574   4.550  18.337  0.00  0.00    +0.000 OA
ATOM     22  C   UNL     1       5.648   4.307  17.567  0.00  0.00    +0.000 C 
ATOM     23  N   UNL     1       5.761   4.421  16.201  0.00  0.00    +0.000 N 
ATOM     24  H   UNL     1       5.007   4.117  15.599  0.00  0.00    +0.000 HD
BRANCH  23  25
ATOM     25  C   UNL     1       6.993   4.820  15.564  0.00  0.00    +0.000 C 
BRANCH  25  26
ATOM     26  C   UNL     1       6.898   4.540  14.109  0.00  0.00    +0.000 A 
ATOM     27  C   UNL     1       7.661   4.918  13.022  0.00  0.00    +0.000 A 
ATOM     28  C   UNL     1       7.077   4.304  11.889  0.00  0.00    +0.000 A 
ATOM     29  C   UNL     1       5.990   3.599  12.350  0.00  0.00    +0.000 A 
ATOM     30  O   UNL     1       5.868   3.740  13.696  0.00  0.00    +0.000 OA
ENDBRANCH  25  26
ENDBRANCH  23  25
ENDBRANCH  20  22
ENDBRANCH   1  20
TORSDOF 5
ENDMDL
MODEL 5
REMARK VINA RESULT:      -7.6      6.430      8.849
REMARK  Name = 
REMARK  5 active torsions:
REMARK  status: ('A' for Active; 'I' for Inactive)
REMARK    1  A    between atoms: C_2  and  C_3
REMARK    2  A    between atoms: C_3  and  N_4
REMARK    3  A    between atoms: C_11  and  C_13
REMARK    4  A    between atoms: N_22  and  C_23
REMARK    5  A    between atoms: C_23  and  C_24
REMARK                            x       y       z     vdW  Elec       q    Type
REMARK                         _______ _______ _______ _____ _____    ______ ____
ROOT
ATOM      1  N   UNL     1       3.023   6.133  18.797  0.00  0.00    +0.000 NA
ATOM      2  C   UNL     1       2.128   5.456  19.760  0.00  0.00    +0.000 C 
ATOM      3  C   UNL     1       1.792   6.351  20.965  0.00  0.00    +0.000 C 
ATOM      4  C   UNL     1       1.394   7.694  20.486  0.00  0.00    +0.000 A 
ATOM      5  N   UNL     1       0.725   8.564  21.298  0.00  0.00    +0.000 NA
ATOM      6  C   UNL     1       0.496   9.675  20.649  0.00  0.00    +0.000 A 
ATOM      7  N   UNL     1      -0.118  10.796  21.143  0.00  0.00    +0.000 N 
ATOM      8  C   UNL     1      -0.384  10.885  22.497  0.00  0.00    +0.000 C 
ATOM      9  O   UNL     1      -0.091  10.069  23.367  0.00  0.00    +0.000 OA
ATOM     10  S   UNL     1       1.023   9.717  19.016  0.00  0.00    +0.000 S 
ATOM     11  C   UNL     1       1.675   8.146  19.214  0.00  0.00    +0.000 A 
ATOM     12  C   UNL     1       2.390   7.331  18.174  0.00  0.00    +0.000 C 
ATOM     13  H   UNL     1      -0.331  11.569  20.530  0.00  0.00    +0.000 HD
ENDROOT
BRANCH   8  14
ATOM     14  C   UNL     1      -1.073  12.124  22.936  0.00  0.00    +0.000 A 
ATOM     15  C   UNL     1      -2.431  12.063  23.238  0.00  0.00    +0.000 A 
ATOM     16  N   UNL     1      -3.141  13.148  23.639  0.00  0.00    +0.000 NA
ATOM     17  C   UNL     1      -2.433  14.296  23.718  0.00  0.00    +0.000 A 
ATOM     18  C   UNL     1      -1.077  14.360  23.417  0.00  0.00    +0.000 A 
ATOM     19  N   UNL     1      -0.353  13.279  23.021  0.00  0.00    +0.000 NA
ENDBRANCH   8  14
BRANCH   1  20
ATOM     20  C   UNL     1       3.583   5.199  17.799  0.00  0.00    +0.000 C 
BRANCH  20  22
ATOM     21  O   UNL     1       5.123   6.840  16.902  0.00  0.00    +0.000 OA
ATOM     22  C   UNL     1       4.915   5.667  17.201  0.00  0.00    +0.000 C 
ATOM     23  N   UNL     1       5.834   4.666  16.985  0.00  0.00    +0.000 N 
ATOM     24  H   UNL     1       5.662   3.732  17.334  0.00  0.00    +0.000 HD
BRANCH  23  25
ATOM     25  C   UNL     1       7.129   4.925  16.404  0.00  0.00    +0.000 C 
BRANCH  25  26
ATOM     26  C   UNL     1       7.052   4.709  14.937  0.00  0.00    +0.000 A 
ATOM     27  C   UNL     1       6.265   3.901  14.141  0.00  0.00    +0.000 A 
ATOM     28  C   UNL     1       6.646   4.161  12.803  0.00  0.00    +0.000 A 
ATOM     29  C   UNL     1       7.647   5.102  12.865  0.00  0.00    +0.000 A 
ATOM     30  O   UNL     1       7.906   5.438  14.156  0.00  0.00    +0.000 OA
ENDBRANCH  25  26
ENDBRANCH  23  25
ENDBRANCH  20  22
ENDBRANCH   1  20
TORSDOF 5
ENDMDL
MODEL 6
REMARK VINA RESULT:      -7.6      6.076      8.266
REMARK  Name = 
REMARK  5 active torsions:
REMARK  status: ('A' for Active; 'I' for Inactive)
REMARK    1  A    between atoms: C_2  and  C_3
REMARK    2  A    between atoms: C_3  and  N_4
REMARK    3  A    between atoms: C_11  and  C_13
REMARK    4  A    between atoms: N_22  and  C_23
REMARK    5  A    between atoms: C_23  and  C_24
REMARK                            x       y       z     vdW  Elec       q    Type
REMARK                         _______ _______ _______ _____ _____    ______ ____
ROOT
ATOM      1  N   UNL     1       3.404   5.286  19.007  0.00  0.00    +0.000 NA
ATOM      2  C   UNL     1       2.306   4.882  19.911  0.00  0.00    +0.000 C 
ATOM      3  C   UNL     1       1.939   5.994  20.908  0.00  0.00    +0.000 C 
ATOM      4  C   UNL     1       1.797   7.278  20.185  0.00  0.00    +0.000 A 
ATOM      5  N   UNL     1       1.151   8.340  20.751  0.00  0.00    +0.000 NA
ATOM      6  C   UNL     1       1.165   9.349  19.921  0.00  0.00    +0.000 A 
ATOM      7  N   UNL     1       0.650  10.598  20.149  0.00  0.00    +0.000 N 
ATOM      8  C   UNL     1       0.222  10.937  21.419  0.00  0.00    +0.000 C 
ATOM      9  O   UNL     1       0.283  10.246  22.432  0.00  0.00    +0.000 OA
ATOM     10  S   UNL     1       1.904   9.063  18.398  0.00  0.00    +0.000 S 
ATOM     11  C   UNL     1       2.302   7.482  18.919  0.00  0.00    +0.000 A 
ATOM     12  C   UNL     1       3.029   6.431  18.128  0.00  0.00    +0.000 C 
ATOM     13  H   UNL     1       0.627  11.280  19.404  0.00  0.00    +0.000 HD
ENDROOT
BRANCH   8  14
ATOM     14  C   UNL     1      -0.343  12.302  21.564  0.00  0.00    +0.000 A 
ATOM     15  C   UNL     1      -1.716  12.476  21.419  0.00  0.00    +0.000 A 
ATOM     16  N   UNL     1      -2.316  13.689  21.527  0.00  0.00    +0.000 NA
ATOM     17  C   UNL     1      -1.479  14.718  21.782  0.00  0.00    +0.000 A 
ATOM     18  C   UNL     1      -0.107  14.547  21.927  0.00  0.00    +0.000 A 
ATOM     19  N   UNL     1       0.505  13.337  21.828  0.00  0.00    +0.000 NA
ENDBRANCH   8  14
BRANCH   1  20
ATOM     20  C   UNL     1       3.959   4.144  18.252  0.00  0.00    +0.000 C 
BRANCH  20  22
ATOM     21  O   UNL     1       6.327   4.288  18.740  0.00  0.00    +0.000 OA
ATOM     22  C   UNL     1       5.440   4.307  17.891  0.00  0.00    +0.000 C 
ATOM     23  N   UNL     1       5.687   4.522  16.555  0.00  0.00    +0.000 N 
ATOM     24  H   UNL     1       4.942   4.433  15.877  0.00  0.00    +0.000 HD
BRANCH  23  25
ATOM     25  C   UNL     1       7.022   4.723  16.045  0.00  0.00    +0.000 C 
BRANCH  25  26
ATOM     26  C   UNL     1       6.999   4.595  14.566  0.00  0.00    +0.000 A 
ATOM     27  C   UNL     1       6.232   3.847  13.695  0.00  0.00    +0.000 A 
ATOM     28  C   UNL     1       6.667   4.180  12.390  0.00  0.00    +0.000 A 
ATOM     29  C   UNL     1       7.676   5.101  12.545  0.00  0.00    +0.000 A 
ATOM     30  O   UNL     1       7.890   5.356  13.862  0.00  0.00    +0.000 OA
ENDBRANCH  25  26
ENDBRANCH  23  25
ENDBRANCH  20  22
ENDBRANCH   1  20
TORSDOF 5
ENDMDL
MODEL 7
REMARK VINA RESULT:      -7.5      7.271      8.952
REMARK  Name = 
REMARK  5 active torsions:
REMARK  status: ('A' for Active; 'I' for Inactive)
REMARK    1  A    between atoms: C_2  and  C_3
REMARK    2  A    between atoms: C_3  and  N_4
REMARK    3  A    between atoms: C_11  and  C_13
REMARK    4  A    between atoms: N_22  and  C_23
REMARK    5  A    between atoms: C_23  and  C_24
REMARK                            x       y       z     vdW  Elec       q    Type
REMARK                         _______ _______ _______ _____ _____    ______ ____
ROOT
ATOM      1  N   UNL     1       2.634   8.053  18.677  0.00  0.00    +0.000 NA
ATOM      2  C   UNL     1       2.039   7.212  19.738  0.00  0.00    +0.000 C 
ATOM      3  C   UNL     1       1.576   8.044  20.944  0.00  0.00    +0.000 C 
ATOM      4  C   UNL     1       0.792   9.207  20.470  0.00  0.00    +0.000 A 
ATOM      5  N   UNL     1      -0.017   9.907  21.319  0.00  0.00    +0.000 NA
ATOM      6  C   UNL     1      -0.591  10.883  20.665  0.00  0.00    +0.000 A 
ATOM      7  N   UNL     1      -1.441  11.823  21.186  0.00  0.00    +0.000 N 
ATOM      8  C   UNL     1      -1.607  11.907  22.556  0.00  0.00    +0.000 C 
ATOM      9  O   UNL     1      -1.033  11.243  23.415  0.00  0.00    +0.000 OA
ATOM     10  S   UNL     1      -0.233  10.982  18.989  0.00  0.00    +0.000 S 
ATOM     11  C   UNL     1       0.832   9.653  19.166  0.00  0.00    +0.000 A 
ATOM     12  C   UNL     1       1.651   9.006  18.085  0.00  0.00    +0.000 C 
ATOM     13  H   UNL     1      -1.906  12.479  20.575  0.00  0.00    +0.000 HD
ENDROOT
BRANCH   8  14
ATOM     14  C   UNL     1      -2.566  12.938  23.025  0.00  0.00    +0.000 A 
ATOM     15  C   UNL     1      -3.905  12.819  22.664  0.00  0.00    +0.000 A 
ATOM     16  N   UNL     1      -4.847  13.720  23.042  0.00  0.00    +0.000 NA
ATOM     17  C   UNL     1      -4.388  14.745  23.792  0.00  0.00    +0.000 A 
ATOM     18  C   UNL     1      -3.051  14.867  24.154  0.00  0.00    +0.000 A 
ATOM     19  N   UNL     1      -2.099  13.968  23.787  0.00  0.00    +0.000 NA
ENDBRANCH   8  14
BRANCH   1  20
ATOM     20  C   UNL     1       3.340   7.253  17.655  0.00  0.00    +0.000 C 
BRANCH  20  22
ATOM     21  O   UNL     1       4.727   5.614  18.777  0.00  0.00    +0.000 OA
ATOM     22  C   UNL     1       3.710   5.842  18.128  0.00  0.00    +0.000 C 
ATOM     23  N   UNL     1       2.839   4.854  17.730  0.00  0.00    +0.000 N 
ATOM     24  H   UNL     1       1.963   5.095  17.283  0.00  0.00    +0.000 HD
BRANCH  23  25
ATOM     25  C   UNL     1       3.049   3.467  18.065  0.00  0.00    +0.000 C 
BRANCH  25  26
ATOM     26  C   UNL     1       2.479   3.203  19.411  0.00  0.00    +0.000 A 
ATOM     27  C   UNL     1       1.194   3.228  19.914  0.00  0.00    +0.000 A 
ATOM     28  C   UNL     1       1.288   2.853  21.276  0.00  0.00    +0.000 A 
ATOM     29  C   UNL     1       2.623   2.633  21.522  0.00  0.00    +0.000 A 
ATOM     30  O   UNL     1       3.356   2.848  20.398  0.00  0.00    +0.000 OA
ENDBRANCH  25  26
ENDBRANCH  23  25
ENDBRANCH  20  22
ENDBRANCH   1  20
TORSDOF 5
ENDMDL
MODEL 8
REMARK VINA RESULT:      -7.4      7.844     10.154
REMARK  Name = 
REMARK  5 active torsions:
REMARK  status: ('A' for Active; 'I' for Inactive)
REMARK    1  A    between atoms: C_2  and  C_3
REMARK    2  A    between atoms: C_3  and  N_4
REMARK    3  A    between atoms: C_11  and  C_13
REMARK    4  A    between atoms: N_22  and  C_23
REMARK    5  A    between atoms: C_23  and  C_24
REMARK                            x       y       z     vdW  Elec       q    Type
REMARK                         _______ _______ _______ _____ _____    ______ ____
ROOT
ATOM      1  N   UNL     1      -1.733  11.802  21.148  0.00  0.00    +0.000 NA
ATOM      2  C   UNL     1      -0.958  11.365  22.329  0.00  0.00    +0.000 C 
ATOM      3  C   UNL     1      -0.421   9.933  22.171  0.00  0.00    +0.000 C 
ATOM      4  C   UNL     1       0.213   9.788  20.841  0.00  0.00    +0.000 A 
ATOM      5  N   UNL     1       1.062   8.752  20.572  0.00  0.00    +0.000 NA
ATOM      6  C   UNL     1       1.480   8.843  19.337  0.00  0.00    +0.000 A 
ATOM      7  N   UNL     1       2.313   7.967  18.692  0.00  0.00    +0.000 N 
ATOM      8  C   UNL     1       2.631   6.762  19.293  0.00  0.00    +0.000 C 
ATOM      9  O   UNL     1       2.212   6.334  20.365  0.00  0.00    +0.000 OA
ATOM     10  S   UNL     1       0.924  10.204  18.450  0.00  0.00    +0.000 S 
ATOM     11  C   UNL     1      -0.012  10.670  19.806  0.00  0.00    +0.000 A 
ATOM     12  C   UNL     1      -0.900  11.878  19.914  0.00  0.00    +0.000 C 
ATOM     13  H   UNL     1       2.653   8.180  17.766  0.00  0.00    +0.000 HD
ENDROOT
BRANCH   8  14
ATOM     14  C   UNL     1       3.558   5.889  18.531  0.00  0.00    +0.000 A 
ATOM     15  C   UNL     1       3.922   4.662  19.077  0.00  0.00    +0.000 A 
ATOM     16  N   UNL     1       4.769   3.805  18.453  0.00  0.00    +0.000 NA
ATOM     17  C   UNL     1       5.240   4.235  17.262  0.00  0.00    +0.000 A 
ATOM     18  C   UNL     1       4.879   5.460  16.714  0.00  0.00    +0.000 A 
ATOM     19  N   UNL     1       4.026   6.324  17.326  0.00  0.00    +0.000 NA
ENDBRANCH   8  14
BRANCH   1  20
ATOM     20  C   UNL     1      -2.492  13.043  21.402  0.00  0.00    +0.000 C 
BRANCH  20  22
ATOM     21  O   UNL     1      -4.284  12.379  22.892  0.00  0.00    +0.000 OA
ATOM     22  C   UNL     1      -3.957  12.800  21.785  0.00  0.00    +0.000 C 
ATOM     23  N   UNL     1      -4.864  13.045  20.780  0.00  0.00    +0.000 N 
ATOM     24  H   UNL     1      -4.564  13.484  19.918  0.00  0.00    +0.000 HD
BRANCH  23  25
ATOM     25  C   UNL     1      -6.281  12.843  20.959  0.00  0.00    +0.000 C 
BRANCH  25  26
ATOM     26  C   UNL     1      -6.653  11.516  20.407  0.00  0.00    +0.000 A 
ATOM     27  C   UNL     1      -6.422  10.899  19.194  0.00  0.00    +0.000 A 
ATOM     28  C   UNL     1      -7.009   9.614  19.279  0.00  0.00    +0.000 A 
ATOM     29  C   UNL     1      -7.571   9.530  20.531  0.00  0.00    +0.000 A 
ATOM     30  O   UNL     1      -7.366  10.682  21.223  0.00  0.00    +0.000 OA
ENDBRANCH  25  26
ENDBRANCH  23  25
ENDBRANCH  20  22
ENDBRANCH   1  20
TORSDOF 5
ENDMDL
MODEL 9
REMARK VINA RESULT:      -7.3      7.969     10.573
REMARK  Name = 
REMARK  5 active torsions:
REMARK  status: ('A' for Active; 'I' for Inactive)
REMARK    1  A    between atoms: C_2  and  C_3
REMARK    2  A    between atoms: C_3  and  N_4
REMARK    3  A    between atoms: C_11  and  C_13
REMARK    4  A    between atoms: N_22  and  C_23
REMARK    5  A    between atoms: C_23  and  C_24
REMARK                            x       y       z     vdW  Elec       q    Type
REMARK                         _______ _______ _______ _____ _____    ______ ____
ROOT
ATOM      1  N   UNL     1      -1.583  11.498  21.950  0.00  0.00    +0.000 NA
ATOM      2  C   UNL     1      -0.935  10.857  23.115  0.00  0.00    +0.000 C 
ATOM      3  C   UNL     1      -0.526   9.404  22.822  0.00  0.00    +0.000 C 
ATOM      4  C   UNL     1       0.180   9.342  21.522  0.00  0.00    +0.000 A 
ATOM      5  N   UNL     1       0.942   8.261  21.183  0.00  0.00    +0.000 NA
ATOM      6  C   UNL     1       1.451   8.444  19.993  0.00  0.00    +0.000 A 
ATOM      7  N   UNL     1       2.238   7.563  19.299  0.00  0.00    +0.000 N 
ATOM      8  C   UNL     1       2.399   6.274  19.773  0.00  0.00    +0.000 C 
ATOM      9  O   UNL     1       1.870   5.776  20.763  0.00  0.00    +0.000 OA
ATOM     10  S   UNL     1       1.087   9.943  19.240  0.00  0.00    +0.000 S 
ATOM     11  C   UNL     1       0.110  10.351  20.586  0.00  0.00    +0.000 A 
ATOM     12  C   UNL     1      -0.665  11.624  20.782  0.00  0.00    +0.000 C 
ATOM     13  H   UNL     1       2.659   7.841  18.425  0.00  0.00    +0.000 HD
ENDROOT
BRANCH   8  14
ATOM     14  C   UNL     1       3.289   5.400  18.969  0.00  0.00    +0.000 A 
ATOM     15  C   UNL     1       2.738   4.673  17.917  0.00  0.00    +0.000 A 
ATOM     16  N   UNL     1       3.476   3.845  17.136  0.00  0.00    +0.000 NA
ATOM     17  C   UNL     1       4.786   3.773  17.457  0.00  0.00    +0.000 A 
ATOM     18  C   UNL     1       5.338   4.498  18.506  0.00  0.00    +0.000 A 
ATOM     19  N   UNL     1       4.612   5.336  19.293  0.00  0.00    +0.000 NA
ENDBRANCH   8  14
BRANCH   1  20
ATOM     20  C   UNL     1      -2.236  12.775  22.303  0.00  0.00    +0.000 C 
BRANCH  20  22
ATOM     21  O   UNL     1      -4.261  12.190  23.498  0.00  0.00    +0.000 OA
ATOM     22  C   UNL     1      -3.754  12.659  22.482  0.00  0.00    +0.000 C 
ATOM     23  N   UNL     1      -4.496  13.078  21.401  0.00  0.00    +0.000 N 
ATOM     24  H   UNL     1      -4.047  13.547  20.625  0.00  0.00    +0.000 HD
BRANCH  23  25
ATOM     25  C   UNL     1      -5.937  13.013  21.388  0.00  0.00    +0.000 C 
BRANCH  25  26
ATOM     26  C   UNL     1      -6.385  12.468  20.082  0.00  0.00    +0.000 A 
ATOM     27  C   UNL     1      -6.333  11.209  19.516  0.00  0.00    +0.000 A 
ATOM     28  C   UNL     1      -6.954  11.313  18.248  0.00  0.00    +0.000 A 
ATOM     29  C   UNL     1      -7.336  12.627  18.115  0.00  0.00    +0.000 A 
ATOM     30  O   UNL     1      -6.991  13.339  19.219  0.00  0.00    +0.000 OA
ENDBRANCH  25  26
ENDBRANCH  23  25
ENDBRANCH  20  22
ENDBRANCH   1  20
TORSDOF 5
ENDMDL
