MODEL 1
REMARK VINA RESULT:      -9.2      0.000      0.000
REMARK  Name = 
REMARK  5 active torsions:
REMARK  status: ('A' for Active; 'I' for Inactive)
REMARK    1  A    between atoms: C_1  and  C_2
REMARK    2  A    between atoms: C_4  and  C_5
REMARK    3  A    between atoms: C_11  and  C_12
REMARK    4  A    between atoms: C_12  and  C_13
REMARK    5  A    between atoms: C_22  and  C_23
REMARK                            x       y       z     vdW  Elec       q    Type
REMARK                         _______ _______ _______ _____ _____    ______ ____
ROOT
ATOM      1  C   UNL     1       2.635   6.289  19.260  0.00  0.00    +0.000 C 
ATOM      2  O   UNL     1       2.042   6.050  20.304  0.00  0.00    +0.000 OA
ATOM      3  N   UNL     1       2.582   7.488  18.576  0.00  0.00    +0.000 N 
ATOM      4  C   UNL     1       1.854   8.528  19.101  0.00  0.00    +0.000 A 
ATOM      5  N   UNL     1       1.401   8.694  20.319  0.00  0.00    +0.000 NA
ATOM      6  N   UNL     1       0.611   9.816  20.435  0.00  0.00    +0.000 NA
ATOM      7  C   UNL     1       0.481  10.446  19.285  0.00  0.00    +0.000 A 
ATOM      8  S   UNL     1       1.424   9.769  18.007  0.00  0.00    +0.000 S 
ATOM      9  H   UNL     1       2.948   7.613  17.645  0.00  0.00    +0.000 HD
ENDROOT
BRANCH   1  13
ATOM     10  C   UNL     1       6.409   4.537  16.416  0.00  0.00    +0.000 C 
ATOM     11  C   UNL     1       5.158   4.322  17.221  0.00  0.00    +0.000 A 
ATOM     12  C   UNL     1       4.578   5.377  17.925  0.00  0.00    +0.000 A 
ATOM     13  C   UNL     1       3.381   5.168  18.637  0.00  0.00    +0.000 A 
ATOM     14  C   UNL     1       2.829   3.864  18.624  0.00  0.00    +0.000 A 
ATOM     15  C   UNL     1       1.726   3.124  19.165  0.00  0.00    +0.000 A 
ATOM     16  C   UNL     1       0.675   3.524  20.137  0.00  0.00    +0.000 C 
ATOM     17  N   UNL     1       1.698   1.858  18.711  0.00  0.00    +0.000 NA
ATOM     18  N   UNL     1       2.768   1.782  17.907  0.00  0.00    +0.000 N 
ATOM     19  C   UNL     1       3.500   2.926  17.848  0.00  0.00    +0.000 A 
ATOM     20  N   UNL     1       4.635   3.080  17.153  0.00  0.00    +0.000 NA
ATOM     21  H   UNL     1       2.955   0.915  17.415  0.00  0.00    +0.000 HD
ENDBRANCH   1  13
BRANCH   7  22
ATOM     22  C   UNL     1      -0.395  11.643  19.084  0.00  0.00    +0.000 C 
BRANCH  22  23
ATOM     23  C   UNL     1      -1.744  11.274  18.520  0.00  0.00    +0.000 A 
ATOM     24  C   UNL     1      -2.910  11.883  19.016  0.00  0.00    +0.000 A 
ATOM     25  C   UNL     1      -4.148  11.633  18.423  0.00  0.00    +0.000 A 
ATOM     26  C   UNL     1      -4.235  10.764  17.337  0.00  0.00    +0.000 A 
ATOM     27  C   UNL     1      -3.087  10.135  16.870  0.00  0.00    +0.000 A 
ATOM     28  F   UNL     1      -3.171   9.299  15.827  0.00  0.00    +0.000 F 
ATOM     29  C   UNL     1      -1.848  10.375  17.452  0.00  0.00    +0.000 A 
ENDBRANCH  22  23
ENDBRANCH   7  22
TORSDOF 3
ENDMDL
MODEL 2
REMARK VINA RESULT:      -9.1      0.941      1.314
REMARK  Name = 
REMARK  5 active torsions:
REMARK  status: ('A' for Active; 'I' for Inactive)
REMARK    1  A    between atoms: C_1  and  C_2
REMARK    2  A    between atoms: C_4  and  C_5
REMARK    3  A    between atoms: C_11  and  C_12
REMARK    4  A    between atoms: C_12  and  C_13
REMARK    5  A    between atoms: C_22  and  C_23
REMARK                            x       y       z     vdW  Elec       q    Type
REMARK                         _______ _______ _______ _____ _____    ______ ____
ROOT
ATOM      1  C   UNL     1       2.621   6.259  19.280  0.00  0.00    +0.000 C 
ATOM      2  O   UNL     1       2.035   6.017  20.327  0.00  0.00    +0.000 OA
ATOM      3  N   UNL     1       2.575   7.464  18.605  0.00  0.00    +0.000 N 
ATOM      4  C   UNL     1       1.863   8.507  19.146  0.00  0.00    +0.000 A 
ATOM      5  N   UNL     1       1.422   8.667  20.369  0.00  0.00    +0.000 NA
ATOM      6  N   UNL     1       0.646   9.797  20.500  0.00  0.00    +0.000 NA
ATOM      7  C   UNL     1       0.512  10.437  19.357  0.00  0.00    +0.000 A 
ATOM      8  S   UNL     1       1.438   9.760  18.065  0.00  0.00    +0.000 S 
ATOM      9  H   UNL     1       2.936   7.592  17.673  0.00  0.00    +0.000 HD
ENDROOT
BRANCH   1  13
ATOM     10  C   UNL     1       6.360   4.488  16.400  0.00  0.00    +0.000 C 
ATOM     11  C   UNL     1       5.110   4.281  17.208  0.00  0.00    +0.000 A 
ATOM     12  C   UNL     1       4.546   5.336  17.926  0.00  0.00    +0.000 A 
ATOM     13  C   UNL     1       3.351   5.135  18.641  0.00  0.00    +0.000 A 
ATOM     14  C   UNL     1       2.782   3.837  18.617  0.00  0.00    +0.000 A 
ATOM     15  C   UNL     1       1.673   3.106  19.156  0.00  0.00    +0.000 A 
ATOM     16  C   UNL     1       0.631   3.509  20.138  0.00  0.00    +0.000 C 
ATOM     17  N   UNL     1       1.626   1.846  18.689  0.00  0.00    +0.000 NA
ATOM     18  N   UNL     1       2.691   1.764  17.879  0.00  0.00    +0.000 N 
ATOM     19  C   UNL     1       3.437   2.899  17.829  0.00  0.00    +0.000 A 
ATOM     20  N   UNL     1       4.571   3.047  17.129  0.00  0.00    +0.000 NA
ATOM     21  H   UNL     1       2.865   0.901  17.378  0.00  0.00    +0.000 HD
ENDBRANCH   1  13
BRANCH   7  22
ATOM     22  C   UNL     1      -0.352  11.645  19.173  0.00  0.00    +0.000 C 
BRANCH  22  23
ATOM     23  C   UNL     1      -1.712  11.294  18.623  0.00  0.00    +0.000 A 
ATOM     24  C   UNL     1      -1.874  10.171  17.794  0.00  0.00    +0.000 A 
ATOM     25  C   UNL     1      -3.145   9.775  17.376  0.00  0.00    +0.000 A 
ATOM     26  C   UNL     1      -4.265  10.503  17.773  0.00  0.00    +0.000 A 
ATOM     27  C   UNL     1      -4.101  11.634  18.564  0.00  0.00    +0.000 A 
ATOM     28  F   UNL     1      -5.177  12.335  18.945  0.00  0.00    +0.000 F 
ATOM     29  C   UNL     1      -2.841  12.040  18.987  0.00  0.00    +0.000 A 
ENDBRANCH  22  23
ENDBRANCH   7  22
TORSDOF 3
ENDMDL
MODEL 3
REMARK VINA RESULT:      -9.0      6.879     10.015
REMARK  Name = 
REMARK  5 active torsions:
REMARK  status: ('A' for Active; 'I' for Inactive)
REMARK    1  A    between atoms: C_1  and  C_2
REMARK    2  A    between atoms: C_4  and  C_5
REMARK    3  A    between atoms: C_11  and  C_12
REMARK    4  A    between atoms: C_12  and  C_13
REMARK    5  A    between atoms: C_22  and  C_23
REMARK                            x       y       z     vdW  Elec       q    Type
REMARK                         _______ _______ _______ _____ _____    ______ ____
ROOT
ATOM      1  C   UNL     1       8.805  10.025  18.895  0.00  0.00    +0.000 C 
ATOM      2  O   UNL     1       8.305  10.498  17.883  0.00  0.00    +0.000 OA
ATOM      3  N   UNL     1       8.828   8.681  19.215  0.00  0.00    +0.000 N 
ATOM      4  C   UNL     1       8.296   7.773  18.331  0.00  0.00    +0.000 A 
ATOM      5  N   UNL     1       8.002   7.921  17.063  0.00  0.00    +0.000 NA
ATOM      6  N   UNL     1       7.376   6.812  16.539  0.00  0.00    +0.000 NA
ATOM      7  C   UNL     1       7.201   5.873  17.445  0.00  0.00    +0.000 A 
ATOM      8  S   UNL     1       7.908   6.239  18.978  0.00  0.00    +0.000 S 
ATOM      9  H   UNL     1       9.104   8.330  20.118  0.00  0.00    +0.000 HD
ENDROOT
BRANCH   1  13
ATOM     10  C   UNL     1       8.573  12.298  23.388  0.00  0.00    +0.000 C 
ATOM     11  C   UNL     1       9.195  12.126  22.031  0.00  0.00    +0.000 A 
ATOM     12  C   UNL     1       8.773  11.103  21.181  0.00  0.00    +0.000 A 
ATOM     13  C   UNL     1       9.334  10.984  19.896  0.00  0.00    +0.000 A 
ATOM     14  C   UNL     1      10.340  11.913  19.531  0.00  0.00    +0.000 A 
ATOM     15  C   UNL     1      11.221  12.219  18.442  0.00  0.00    +0.000 A 
ATOM     16  C   UNL     1      11.465  11.501  17.163  0.00  0.00    +0.000 C 
ATOM     17  N   UNL     1      11.943  13.328  18.675  0.00  0.00    +0.000 NA
ATOM     18  N   UNL     1      11.547  13.720  19.895  0.00  0.00    +0.000 N 
ATOM     19  C   UNL     1      10.629  12.897  20.468  0.00  0.00    +0.000 A 
ATOM     20  N   UNL     1      10.118  13.051  21.698  0.00  0.00    +0.000 NA
ATOM     21  H   UNL     1      11.937  14.566  20.293  0.00  0.00    +0.000 HD
ENDBRANCH   1  13
BRANCH   7  22
ATOM     22  C   UNL     1       6.464   4.595  17.191  0.00  0.00    +0.000 C 
BRANCH  22  23
ATOM     23  C   UNL     1       4.976   4.747  17.381  0.00  0.00    +0.000 A 
ATOM     24  C   UNL     1       4.104   3.704  17.021  0.00  0.00    +0.000 A 
ATOM     25  C   UNL     1       2.740   3.791  17.300  0.00  0.00    +0.000 A 
ATOM     26  C   UNL     1       2.231   4.924  17.931  0.00  0.00    +0.000 A 
ATOM     27  C   UNL     1       3.087   5.970  18.254  0.00  0.00    +0.000 A 
ATOM     28  F   UNL     1       2.598   7.060  18.860  0.00  0.00    +0.000 F 
ATOM     29  C   UNL     1       4.449   5.897  17.983  0.00  0.00    +0.000 A 
ENDBRANCH  22  23
ENDBRANCH   7  22
TORSDOF 3
ENDMDL
MODEL 4
REMARK VINA RESULT:      -8.9      7.037     10.186
REMARK  Name = 
REMARK  5 active torsions:
REMARK  status: ('A' for Active; 'I' for Inactive)
REMARK    1  A    between atoms: C_1  and  C_2
REMARK    2  A    between atoms: C_4  and  C_5
REMARK    3  A    between atoms: C_11  and  C_12
REMARK    4  A    between atoms: C_12  and  C_13
REMARK    5  A    between atoms: C_22  and  C_23
REMARK                            x       y       z     vdW  Elec       q    Type
REMARK                         _______ _______ _______ _____ _____    ______ ____
ROOT
ATOM      1  C   UNL     1       8.811  10.027  18.895  0.00  0.00    +0.000 C 
ATOM      2  O   UNL     1       8.318  10.500  17.879  0.00  0.00    +0.000 OA
ATOM      3  N   UNL     1       8.828   8.684  19.217  0.00  0.00    +0.000 N 
ATOM      4  C   UNL     1       8.300   7.776  18.331  0.00  0.00    +0.000 A 
ATOM      5  N   UNL     1       8.014   7.923  17.061  0.00  0.00    +0.000 NA
ATOM      6  N   UNL     1       7.388   6.816  16.535  0.00  0.00    +0.000 NA
ATOM      7  C   UNL     1       7.205   5.878  17.441  0.00  0.00    +0.000 A 
ATOM      8  S   UNL     1       7.904   6.244  18.977  0.00  0.00    +0.000 S 
ATOM      9  H   UNL     1       9.098   8.333  20.122  0.00  0.00    +0.000 HD
ENDROOT
BRANCH   1  13
ATOM     10  C   UNL     1       8.572  12.287  23.394  0.00  0.00    +0.000 C 
ATOM     11  C   UNL     1       9.194  12.122  22.036  0.00  0.00    +0.000 A 
ATOM     12  C   UNL     1       8.776  11.099  21.184  0.00  0.00    +0.000 A 
ATOM     13  C   UNL     1       9.337  10.987  19.898  0.00  0.00    +0.000 A 
ATOM     14  C   UNL     1      10.338  11.921  19.535  0.00  0.00    +0.000 A 
ATOM     15  C   UNL     1      11.216  12.234  18.446  0.00  0.00    +0.000 A 
ATOM     16  C   UNL     1      11.462  11.521  17.164  0.00  0.00    +0.000 C 
ATOM     17  N   UNL     1      11.933  13.347  18.681  0.00  0.00    +0.000 NA
ATOM     18  N   UNL     1      11.535  13.733  19.902  0.00  0.00    +0.000 N 
ATOM     19  C   UNL     1      10.623  12.905  20.474  0.00  0.00    +0.000 A 
ATOM     20  N   UNL     1      10.112  13.053  21.705  0.00  0.00    +0.000 NA
ATOM     21  H   UNL     1      11.922  14.580  20.302  0.00  0.00    +0.000 HD
ENDBRANCH   1  13
BRANCH   7  22
ATOM     22  C   UNL     1       6.467   4.601  17.184  0.00  0.00    +0.000 C 
BRANCH  22  23
ATOM     23  C   UNL     1       5.108   4.586  17.839  0.00  0.00    +0.000 A 
ATOM     24  C   UNL     1       4.079   5.412  17.356  0.00  0.00    +0.000 A 
ATOM     25  C   UNL     1       2.789   5.321  17.882  0.00  0.00    +0.000 A 
ATOM     26  C   UNL     1       2.519   4.411  18.902  0.00  0.00    +0.000 A 
ATOM     27  C   UNL     1       3.546   3.619  19.403  0.00  0.00    +0.000 A 
ATOM     28  F   UNL     1       3.286   2.745  20.385  0.00  0.00    +0.000 F 
ATOM     29  C   UNL     1       4.834   3.701  18.889  0.00  0.00    +0.000 A 
ENDBRANCH  22  23
ENDBRANCH   7  22
TORSDOF 3
ENDMDL
MODEL 5
REMARK VINA RESULT:      -8.8      3.018      4.080
REMARK  Name = 
REMARK  5 active torsions:
REMARK  status: ('A' for Active; 'I' for Inactive)
REMARK    1  A    between atoms: C_1  and  C_2
REMARK    2  A    between atoms: C_4  and  C_5
REMARK    3  A    between atoms: C_11  and  C_12
REMARK    4  A    between atoms: C_12  and  C_13
REMARK    5  A    between atoms: C_22  and  C_23
REMARK                            x       y       z     vdW  Elec       q    Type
REMARK                         _______ _______ _______ _____ _____    ______ ____
ROOT
ATOM      1  C   UNL     1       2.374   6.893  19.392  0.00  0.00    +0.000 C 
ATOM      2  O   UNL     1       2.690   7.461  18.354  0.00  0.00    +0.000 OA
ATOM      3  N   UNL     1       1.680   7.474  20.435  0.00  0.00    +0.000 N 
ATOM      4  C   UNL     1       1.257   8.776  20.314  0.00  0.00    +0.000 A 
ATOM      5  N   UNL     1       1.145   9.518  19.240  0.00  0.00    +0.000 NA
ATOM      6  N   UNL     1       0.793  10.816  19.537  0.00  0.00    +0.000 NA
ATOM      7  C   UNL     1       0.674  11.009  20.834  0.00  0.00    +0.000 A 
ATOM      8  S   UNL     1       0.865   9.573  21.774  0.00  0.00    +0.000 S 
ATOM      9  H   UNL     1       1.567   7.040  21.337  0.00  0.00    +0.000 HD
ENDROOT
BRANCH   1  13
ATOM     10  C   UNL     1       2.133   2.379  21.621  0.00  0.00    +0.000 C 
ATOM     11  C   UNL     1       2.797   3.351  20.688  0.00  0.00    +0.000 A 
ATOM     12  C   UNL     1       2.210   4.588  20.418  0.00  0.00    +0.000 A 
ATOM     13  C   UNL     1       2.868   5.505  19.577  0.00  0.00    +0.000 A 
ATOM     14  C   UNL     1       4.106   5.108  19.014  0.00  0.00    +0.000 A 
ATOM     15  C   UNL     1       5.121   5.589  18.123  0.00  0.00    +0.000 A 
ATOM     16  C   UNL     1       5.182   6.828  17.302  0.00  0.00    +0.000 C 
ATOM     17  N   UNL     1       6.153   4.732  18.025  0.00  0.00    +0.000 NA
ATOM     18  N   UNL     1       5.801   3.714  18.824  0.00  0.00    +0.000 N 
ATOM     19  C   UNL     1       4.581   3.862  19.404  0.00  0.00    +0.000 A 
ATOM     20  N   UNL     1       3.993   2.960  20.203  0.00  0.00    +0.000 NA
ATOM     21  H   UNL     1       6.439   2.935  18.941  0.00  0.00    +0.000 HD
ENDBRANCH   1  13
BRANCH   7  22
ATOM     22  C   UNL     1       0.394  12.340  21.457  0.00  0.00    +0.000 C 
BRANCH  22  23
ATOM     23  C   UNL     1      -1.077  12.551  21.715  0.00  0.00    +0.000 A 
ATOM     24  C   UNL     1      -1.909  13.061  20.703  0.00  0.00    +0.000 A 
ATOM     25  C   UNL     1      -3.288  13.150  20.896  0.00  0.00    +0.000 A 
ATOM     26  C   UNL     1      -3.848  12.743  22.105  0.00  0.00    +0.000 A 
ATOM     27  C   UNL     1      -3.021  12.272  23.118  0.00  0.00    +0.000 A 
ATOM     28  F   UNL     1      -3.559  11.881  24.281  0.00  0.00    +0.000 F 
ATOM     29  C   UNL     1      -1.646  12.177  22.939  0.00  0.00    +0.000 A 
ENDBRANCH  22  23
ENDBRANCH   7  22
TORSDOF 3
ENDMDL
MODEL 6
REMARK VINA RESULT:      -8.8      3.463      9.002
REMARK  Name = 
REMARK  5 active torsions:
REMARK  status: ('A' for Active; 'I' for Inactive)
REMARK    1  A    between atoms: C_1  and  C_2
REMARK    2  A    between atoms: C_4  and  C_5
REMARK    3  A    between atoms: C_11  and  C_12
REMARK    4  A    between atoms: C_12  and  C_13
REMARK    5  A    between atoms: C_22  and  C_23
REMARK                            x       y       z     vdW  Elec       q    Type
REMARK                         _______ _______ _______ _____ _____    ______ ____
ROOT
ATOM      1  C   UNL     1      -0.839  10.822  18.824  0.00  0.00    +0.000 C 
ATOM      2  O   UNL     1      -0.678  10.705  17.616  0.00  0.00    +0.000 OA
ATOM      3  N   UNL     1      -0.119  10.145  19.789  0.00  0.00    +0.000 N 
ATOM      4  C   UNL     1       0.894   9.301  19.400  0.00  0.00    +0.000 A 
ATOM      5  N   UNL     1       1.512   9.220  18.249  0.00  0.00    +0.000 NA
ATOM      6  N   UNL     1       2.397   8.166  18.204  0.00  0.00    +0.000 NA
ATOM      7  C   UNL     1       2.395   7.475  19.325  0.00  0.00    +0.000 A 
ATOM      8  S   UNL     1       1.394   8.150  20.560  0.00  0.00    +0.000 S 
ATOM      9  H   UNL     1      -0.369  10.138  20.765  0.00  0.00    +0.000 HD
ENDROOT
BRANCH   1  13
ATOM     10  C   UNL     1      -2.895  14.046  22.108  0.00  0.00    +0.000 C 
ATOM     11  C   UNL     1      -2.982  13.184  20.880  0.00  0.00    +0.000 A 
ATOM     12  C   UNL     1      -1.854  12.519  20.398  0.00  0.00    +0.000 A 
ATOM     13  C   UNL     1      -1.963  11.680  19.273  0.00  0.00    +0.000 A 
ATOM     14  C   UNL     1      -3.234  11.571  18.657  0.00  0.00    +0.000 A 
ATOM     15  C   UNL     1      -3.872  10.936  17.541  0.00  0.00    +0.000 A 
ATOM     16  C   UNL     1      -3.303  10.113  16.441  0.00  0.00    +0.000 C 
ATOM     17  N   UNL     1      -5.194  11.175  17.513  0.00  0.00    +0.000 NA
ATOM     18  N   UNL     1      -5.401  11.962  18.580  0.00  0.00    +0.000 N 
ATOM     19  C   UNL     1      -4.271  12.264  19.272  0.00  0.00    +0.000 A 
ATOM     20  N   UNL     1      -4.214  13.068  20.343  0.00  0.00    +0.000 NA
ATOM     21  H   UNL     1      -6.343  12.266  18.794  0.00  0.00    +0.000 HD
ENDBRANCH   1  13
BRANCH   7  22
ATOM     22  C   UNL     1       3.185   6.221  19.534  0.00  0.00    +0.000 C 
BRANCH  22  23
ATOM     23  C   UNL     1       2.311   4.991  19.539  0.00  0.00    +0.000 A 
ATOM     24  C   UNL     1       1.900   4.408  18.328  0.00  0.00    +0.000 A 
ATOM     25  C   UNL     1       1.189   3.207  18.324  0.00  0.00    +0.000 A 
ATOM     26  C   UNL     1       0.873   2.584  19.529  0.00  0.00    +0.000 A 
ATOM     27  C   UNL     1       1.248   3.179  20.727  0.00  0.00    +0.000 A 
ATOM     28  F   UNL     1       0.943   2.581  21.886  0.00  0.00    +0.000 F 
ATOM     29  C   UNL     1       1.957   4.375  20.746  0.00  0.00    +0.000 A 
ENDBRANCH  22  23
ENDBRANCH   7  22
TORSDOF 3
ENDMDL
MODEL 7
REMARK VINA RESULT:      -8.8      3.999      9.662
REMARK  Name = 
REMARK  5 active torsions:
REMARK  status: ('A' for Active; 'I' for Inactive)
REMARK    1  A    between atoms: C_1  and  C_2
REMARK    2  A    between atoms: C_4  and  C_5
REMARK    3  A    between atoms: C_11  and  C_12
REMARK    4  A    between atoms: C_12  and  C_13
REMARK    5  A    between atoms: C_22  and  C_23
REMARK                            x       y       z     vdW  Elec       q    Type
REMARK                         _______ _______ _______ _____ _____    ______ ____
ROOT
ATOM      1  C   UNL     1      -0.273  10.805  22.180  0.00  0.00    +0.000 C 
ATOM      2  O   UNL     1       0.400  10.210  23.012  0.00  0.00    +0.000 OA
ATOM      3  N   UNL     1      -0.245  10.567  20.820  0.00  0.00    +0.000 N 
ATOM      4  C   UNL     1       0.555   9.562  20.332  0.00  0.00    +0.000 A 
ATOM      5  N   UNL     1       1.114   8.563  20.967  0.00  0.00    +0.000 NA
ATOM      6  N   UNL     1       1.942   7.823  20.152  0.00  0.00    +0.000 NA
ATOM      7  C   UNL     1       1.992   8.311  18.930  0.00  0.00    +0.000 A 
ATOM      8  S   UNL     1       0.924   9.642  18.665  0.00  0.00    +0.000 S 
ATOM      9  H   UNL     1      -0.686  11.168  20.141  0.00  0.00    +0.000 HD
ENDROOT
BRANCH   1  13
ATOM     10  C   UNL     1      -4.423  12.600  24.407  0.00  0.00    +0.000 C 
ATOM     11  C   UNL     1      -3.122  12.810  23.684  0.00  0.00    +0.000 A 
ATOM     12  C   UNL     1      -2.294  11.727  23.386  0.00  0.00    +0.000 A 
ATOM     13  C   UNL     1      -1.101  11.936  22.669  0.00  0.00    +0.000 A 
ATOM     14  C   UNL     1      -0.781  13.266  22.300  0.00  0.00    +0.000 A 
ATOM     15  C   UNL     1       0.250  14.014  21.641  0.00  0.00    +0.000 A 
ATOM     16  C   UNL     1       1.571  13.583  21.111  0.00  0.00    +0.000 C 
ATOM     17  N   UNL     1      -0.064  15.317  21.534  0.00  0.00    +0.000 NA
ATOM     18  N   UNL     1      -1.264  15.408  22.125  0.00  0.00    +0.000 N 
ATOM     19  C   UNL     1      -1.720  14.234  22.635  0.00  0.00    +0.000 A 
ATOM     20  N   UNL     1      -2.868  14.081  23.311  0.00  0.00    +0.000 NA
ATOM     21  H   UNL     1      -1.734  16.305  22.152  0.00  0.00    +0.000 HD
ENDBRANCH   1  13
BRANCH   7  22
ATOM     22  C   UNL     1       2.880   7.773  17.852  0.00  0.00    +0.000 C 
BRANCH  22  23
ATOM     23  C   UNL     1       3.162   6.302  18.027  0.00  0.00    +0.000 A 
ATOM     24  C   UNL     1       2.129   5.359  17.876  0.00  0.00    +0.000 A 
ATOM     25  C   UNL     1       2.404   3.992  17.922  0.00  0.00    +0.000 A 
ATOM     26  C   UNL     1       3.710   3.553  18.130  0.00  0.00    +0.000 A 
ATOM     27  C   UNL     1       4.724   4.485  18.314  0.00  0.00    +0.000 A 
ATOM     28  F   UNL     1       5.980   4.064  18.516  0.00  0.00    +0.000 F 
ATOM     29  C   UNL     1       4.464   5.850  18.271  0.00  0.00    +0.000 A 
ENDBRANCH  22  23
ENDBRANCH   7  22
TORSDOF 3
ENDMDL
MODEL 8
REMARK VINA RESULT:      -8.7      3.728      9.522
REMARK  Name = 
REMARK  5 active torsions:
REMARK  status: ('A' for Active; 'I' for Inactive)
REMARK    1  A    between atoms: C_1  and  C_2
REMARK    2  A    between atoms: C_4  and  C_5
REMARK    3  A    between atoms: C_11  and  C_12
REMARK    4  A    between atoms: C_12  and  C_13
REMARK    5  A    between atoms: C_22  and  C_23
REMARK                            x       y       z     vdW  Elec       q    Type
REMARK                         _______ _______ _______ _____ _____    ______ ____
ROOT
ATOM      1  C   UNL     1      -0.226  10.746  22.181  0.00  0.00    +0.000 C 
ATOM      2  O   UNL     1       0.426  10.147  23.027  0.00  0.00    +0.000 OA
ATOM      3  N   UNL     1      -0.182  10.496  20.823  0.00  0.00    +0.000 N 
ATOM      4  C   UNL     1       0.610   9.475  20.355  0.00  0.00    +0.000 A 
ATOM      5  N   UNL     1       1.146   8.474  21.007  0.00  0.00    +0.000 NA
ATOM      6  N   UNL     1       1.975   7.716  20.209  0.00  0.00    +0.000 NA
ATOM      7  C   UNL     1       2.049   8.193  18.984  0.00  0.00    +0.000 A 
ATOM      8  S   UNL     1       1.004   9.537  18.693  0.00  0.00    +0.000 S 
ATOM      9  H   UNL     1      -0.605  11.098  20.134  0.00  0.00    +0.000 HD
ENDROOT
BRANCH   1  13
ATOM     10  C   UNL     1      -4.346  12.613  24.404  0.00  0.00    +0.000 C 
ATOM     11  C   UNL     1      -3.052  12.799  23.663  0.00  0.00    +0.000 A 
ATOM     12  C   UNL     1      -2.231  11.706  23.384  0.00  0.00    +0.000 A 
ATOM     13  C   UNL     1      -1.045  11.891  22.649  0.00  0.00    +0.000 A 
ATOM     14  C   UNL     1      -0.724  13.210  22.243  0.00  0.00    +0.000 A 
ATOM     15  C   UNL     1       0.302  13.937  21.554  0.00  0.00    +0.000 A 
ATOM     16  C   UNL     1       1.616  13.488  21.022  0.00  0.00    +0.000 C 
ATOM     17  N   UNL     1      -0.008  15.238  21.416  0.00  0.00    +0.000 NA
ATOM     18  N   UNL     1      -1.201  15.349  22.018  0.00  0.00    +0.000 N 
ATOM     19  C   UNL     1      -1.657  14.190  22.562  0.00  0.00    +0.000 A 
ATOM     20  N   UNL     1      -2.798  14.059  23.254  0.00  0.00    +0.000 NA
ATOM     21  H   UNL     1      -1.667  16.249  22.027  0.00  0.00    +0.000 HD
ENDBRANCH   1  13
BRANCH   7  22
ATOM     22  C   UNL     1       2.945   7.635  17.923  0.00  0.00    +0.000 C 
BRANCH  22  23
ATOM     23  C   UNL     1       3.125   6.143  18.057  0.00  0.00    +0.000 A 
ATOM     24  C   UNL     1       4.383   5.606  18.382  0.00  0.00    +0.000 A 
ATOM     25  C   UNL     1       4.532   4.240  18.620  0.00  0.00    +0.000 A 
ATOM     26  C   UNL     1       3.428   3.394  18.524  0.00  0.00    +0.000 A 
ATOM     27  C   UNL     1       2.192   3.920  18.167  0.00  0.00    +0.000 A 
ATOM     28  F   UNL     1       1.132   3.107  18.074  0.00  0.00    +0.000 F 
ATOM     29  C   UNL     1       2.030   5.279  17.928  0.00  0.00    +0.000 A 
ENDBRANCH  22  23
ENDBRANCH   7  22
TORSDOF 3
ENDMDL
MODEL 9
REMARK VINA RESULT:      -8.7      2.595      3.248
REMARK  Name = 
REMARK  5 active torsions:
REMARK  status: ('A' for Active; 'I' for Inactive)
REMARK    1  A    between atoms: C_1  and  C_2
REMARK    2  A    between atoms: C_4  and  C_5
REMARK    3  A    between atoms: C_11  and  C_12
REMARK    4  A    between atoms: C_12  and  C_13
REMARK    5  A    between atoms: C_22  and  C_23
REMARK                            x       y       z     vdW  Elec       q    Type
REMARK                         _______ _______ _______ _____ _____    ______ ____
ROOT
ATOM      1  C   UNL     1       2.488   6.799  19.163  0.00  0.00    +0.000 C 
ATOM      2  O   UNL     1       2.221   6.505  20.321  0.00  0.00    +0.000 OA
ATOM      3  N   UNL     1       2.098   7.963  18.530  0.00  0.00    +0.000 N 
ATOM      4  C   UNL     1       1.392   8.906  19.237  0.00  0.00    +0.000 A 
ATOM      5  N   UNL     1       1.247   9.037  20.532  0.00  0.00    +0.000 NA
ATOM      6  N   UNL     1       0.366  10.043  20.860  0.00  0.00    +0.000 NA
ATOM      7  C   UNL     1      -0.139  10.622  19.790  0.00  0.00    +0.000 A 
ATOM      8  S   UNL     1       0.531  10.050  18.304  0.00  0.00    +0.000 S 
ATOM      9  H   UNL     1       2.194   8.114  17.538  0.00  0.00    +0.000 HD
ENDROOT
BRANCH   1  13
ATOM     10  C   UNL     1       5.884   5.504  15.671  0.00  0.00    +0.000 C 
ATOM     11  C   UNL     1       4.787   5.149  16.634  0.00  0.00    +0.000 A 
ATOM     12  C   UNL     1       4.257   6.114  17.492  0.00  0.00    +0.000 A 
ATOM     13  C   UNL     1       3.199   5.775  18.356  0.00  0.00    +0.000 A 
ATOM     14  C   UNL     1       2.732   4.438  18.330  0.00  0.00    +0.000 A 
ATOM     15  C   UNL     1       1.773   3.588  18.973  0.00  0.00    +0.000 A 
ATOM     16  C   UNL     1       0.860   3.850  20.118  0.00  0.00    +0.000 C 
ATOM     17  N   UNL     1       1.753   2.355  18.438  0.00  0.00    +0.000 NA
ATOM     18  N   UNL     1       2.691   2.406  17.480  0.00  0.00    +0.000 N 
ATOM     19  C   UNL     1       3.333   3.601  17.397  0.00  0.00    +0.000 A 
ATOM     20  N   UNL     1       4.337   3.880  16.554  0.00  0.00    +0.000 NA
ATOM     21  H   UNL     1       2.853   1.588  16.904  0.00  0.00    +0.000 HD
ENDBRANCH   1  13
BRANCH   7  22
ATOM     22  C   UNL     1      -1.193  11.683  19.834  0.00  0.00    +0.000 C 
BRANCH  22  23
ATOM     23  C   UNL     1      -1.216  12.410  21.156  0.00  0.00    +0.000 A 
ATOM     24  C   UNL     1      -0.314  13.459  21.404  0.00  0.00    +0.000 A 
ATOM     25  C   UNL     1      -0.403  14.211  22.576  0.00  0.00    +0.000 A 
ATOM     26  C   UNL     1      -1.387  13.914  23.517  0.00  0.00    +0.000 A 
ATOM     27  C   UNL     1      -2.256  12.854  23.287  0.00  0.00    +0.000 A 
ATOM     28  F   UNL     1      -3.202  12.567  24.192  0.00  0.00    +0.000 F 
ATOM     29  C   UNL     1      -2.178  12.097  22.124  0.00  0.00    +0.000 A 
ENDBRANCH  22  23
ENDBRANCH   7  22
TORSDOF 3
ENDMDL
