MODEL 1
REMARK VINA RESULT:      -8.9      0.000      0.000
REMARK  Name = 
REMARK  6 active torsions:
REMARK  status: ('A' for Active; 'I' for Inactive)
REMARK    1  A    between atoms: C_1  and  C_2
REMARK    2  A    between atoms: C_6  and  N_7
REMARK    3  A    between atoms: N_7  and  C_8
REMARK    4  A    between atoms: N_7  and  C_9
REMARK    5  A    between atoms: C_14  and  C_15
REMARK    6  A    between atoms: C_19  and  C_20
REMARK                            x       y       z     vdW  Elec       q    Type
REMARK                         _______ _______ _______ _____ _____    ______ ____
ROOT
ATOM      1  C   UNL     1       0.765   9.661  20.076  0.00  0.00    +0.000 A 
ATOM      2  C   UNL     1       0.522   9.003  21.226  0.00  0.00    +0.000 A 
ATOM      3  C   UNL     1       1.110   7.654  21.361  0.00  0.00    +0.000 A 
ATOM      4  N   UNL     1       1.830   7.039  20.477  0.00  0.00    +0.000 NA
ATOM      5  C   UNL     1       2.075   7.720  19.312  0.00  0.00    +0.000 A 
ATOM      6  C   UNL     1       2.785   7.372  18.173  0.00  0.00    +0.000 A 
ATOM      7  C   UNL     1       2.663   8.495  17.332  0.00  0.00    +0.000 A 
ATOM      8  N   UNL     1       1.940   9.478  17.860  0.00  0.00    +0.000 NA
ATOM      9  N   UNL     1       1.559   9.011  19.087  0.00  0.00    +0.000 N 
ENDROOT
BRANCH   6  10
ATOM     10  C   UNL     1       3.447   6.094  17.940  0.00  0.00    +0.000 A 
ATOM     11  C   UNL     1       2.710   4.909  17.811  0.00  0.00    +0.000 A 
ATOM     12  C   UNL     1       3.345   3.701  17.528  0.00  0.00    +0.000 A 
ATOM     13  C   UNL     1       4.730   3.661  17.388  0.00  0.00    +0.000 A 
ATOM     14  C   UNL     1       5.495   4.825  17.542  0.00  0.00    +0.000 A 
ATOM     15  C   UNL     1       4.847   6.038  17.821  0.00  0.00    +0.000 A 
BRANCH  14  16
ATOM     16  C   UNL     1       6.973   4.702  17.377  0.00  0.00    +0.000 C 
ATOM     17  N   UNL     1       7.512   4.809  16.126  0.00  0.00    +0.000 N 
ATOM     18  O   UNL     1       7.710   4.512  18.339  0.00  0.00    +0.000 OA
ATOM     19  H   UNL     1       7.001   4.993  15.279  0.00  0.00    +0.000 HD
ATOM     20  H   UNL     1       8.519   4.727  16.063  0.00  0.00    +0.000 HD
ENDBRANCH  14  16
ENDBRANCH   6  10
BRANCH   1  21
ATOM     21  N   UNL     1       0.241  10.950  19.828  0.00  0.00    +0.000 N 
ATOM     22  C   UNL     1       1.032  12.129  20.204  0.00  0.00    +0.000 C 
BRANCH  21  28
ATOM     23  C   UNL     1      -3.062   9.899  16.265  0.00  0.00    +0.000 C 
ATOM     24  C   UNL     1      -2.714  10.641  17.521  0.00  0.00    +0.000 A 
ATOM     25  C   UNL     1      -3.622  11.518  18.113  0.00  0.00    +0.000 A 
ATOM     26  C   UNL     1      -3.265  12.200  19.275  0.00  0.00    +0.000 A 
ATOM     27  C   UNL     1      -1.998  12.016  19.847  0.00  0.00    +0.000 A 
ATOM     28  C   UNL     1      -1.056  11.141  19.286  0.00  0.00    +0.000 A 
ATOM     29  C   UNL     1      -1.453  10.460  18.115  0.00  0.00    +0.000 A 
ENDBRANCH  21  28
ENDBRANCH   1  21
TORSDOF 4
ENDMDL
MODEL 2
REMARK VINA RESULT:      -8.8      1.914      2.286
REMARK  Name = 
REMARK  6 active torsions:
REMARK  status: ('A' for Active; 'I' for Inactive)
REMARK    1  A    between atoms: C_1  and  C_2
REMARK    2  A    between atoms: C_6  and  N_7
REMARK    3  A    between atoms: N_7  and  C_8
REMARK    4  A    between atoms: N_7  and  C_9
REMARK    5  A    between atoms: C_14  and  C_15
REMARK    6  A    between atoms: C_19  and  C_20
REMARK                            x       y       z     vdW  Elec       q    Type
REMARK                         _______ _______ _______ _____ _____    ______ ____
ROOT
ATOM      1  C   UNL     1       0.554   9.896  19.703  0.00  0.00    +0.000 A 
ATOM      2  C   UNL     1       0.262   9.514  20.961  0.00  0.00    +0.000 A 
ATOM      3  C   UNL     1       0.875   8.255  21.435  0.00  0.00    +0.000 A 
ATOM      4  N   UNL     1       1.659   7.480  20.756  0.00  0.00    +0.000 NA
ATOM      5  C   UNL     1       1.953   7.882  19.478  0.00  0.00    +0.000 A 
ATOM      6  C   UNL     1       2.736   7.308  18.488  0.00  0.00    +0.000 A 
ATOM      7  C   UNL     1       2.635   8.201  17.404  0.00  0.00    +0.000 A 
ATOM      8  N   UNL     1       1.858   9.251  17.652  0.00  0.00    +0.000 NA
ATOM      9  N   UNL     1       1.419   9.066  18.933  0.00  0.00    +0.000 N 
ENDROOT
BRANCH   6  10
ATOM     10  C   UNL     1       3.442   6.036  18.592  0.00  0.00    +0.000 A 
ATOM     11  C   UNL     1       4.788   5.983  18.975  0.00  0.00    +0.000 A 
ATOM     12  C   UNL     1       5.439   4.760  19.131  0.00  0.00    +0.000 A 
ATOM     13  C   UNL     1       4.753   3.573  18.887  0.00  0.00    +0.000 A 
ATOM     14  C   UNL     1       3.414   3.597  18.472  0.00  0.00    +0.000 A 
ATOM     15  C   UNL     1       2.766   4.833  18.324  0.00  0.00    +0.000 A 
BRANCH  14  16
ATOM     16  C   UNL     1       2.747   2.285  18.231  0.00  0.00    +0.000 C 
ATOM     17  N   UNL     1       3.470   1.135  18.384  0.00  0.00    +0.000 N 
ATOM     18  O   UNL     1       1.567   2.218  17.903  0.00  0.00    +0.000 OA
ATOM     19  H   UNL     1       4.431   1.079  18.677  0.00  0.00    +0.000 HD
ATOM     20  H   UNL     1       2.975   0.268  18.217  0.00  0.00    +0.000 HD
ENDBRANCH  14  16
ENDBRANCH   6  10
BRANCH   1  21
ATOM     21  N   UNL     1       0.013  11.073  19.136  0.00  0.00    +0.000 N 
ATOM     22  C   UNL     1       0.790  12.318  19.192  0.00  0.00    +0.000 C 
BRANCH  21  28
ATOM     23  C   UNL     1      -3.031   9.778  15.425  0.00  0.00    +0.000 C 
ATOM     24  C   UNL     1      -2.821  10.480  16.734  0.00  0.00    +0.000 A 
ATOM     25  C   UNL     1      -3.860  11.171  17.354  0.00  0.00    +0.000 A 
ATOM     26  C   UNL     1      -3.630  11.821  18.566  0.00  0.00    +0.000 A 
ATOM     27  C   UNL     1      -2.361  11.791  19.160  0.00  0.00    +0.000 A 
ATOM     28  C   UNL     1      -1.288  11.104  18.571  0.00  0.00    +0.000 A 
ATOM     29  C   UNL     1      -1.557  10.450  17.350  0.00  0.00    +0.000 A 
ENDBRANCH  21  28
ENDBRANCH   1  21
TORSDOF 4
ENDMDL
MODEL 3
REMARK VINA RESULT:      -8.7      2.292      2.829
REMARK  Name = 
REMARK  6 active torsions:
REMARK  status: ('A' for Active; 'I' for Inactive)
REMARK    1  A    between atoms: C_1  and  C_2
REMARK    2  A    between atoms: C_6  and  N_7
REMARK    3  A    between atoms: N_7  and  C_8
REMARK    4  A    between atoms: N_7  and  C_9
REMARK    5  A    between atoms: C_14  and  C_15
REMARK    6  A    between atoms: C_19  and  C_20
REMARK                            x       y       z     vdW  Elec       q    Type
REMARK                         _______ _______ _______ _____ _____    ______ ____
ROOT
ATOM      1  C   UNL     1       0.215  10.342  19.811  0.00  0.00    +0.000 A 
ATOM      2  C   UNL     1      -0.053  10.158  21.118  0.00  0.00    +0.000 A 
ATOM      3  C   UNL     1       0.523   8.955  21.755  0.00  0.00    +0.000 A 
ATOM      4  N   UNL     1       1.255   8.056  21.177  0.00  0.00    +0.000 NA
ATOM      5  C   UNL     1       1.525   8.256  19.848  0.00  0.00    +0.000 A 
ATOM      6  C   UNL     1       2.254   7.511  18.932  0.00  0.00    +0.000 A 
ATOM      7  C   UNL     1       2.155   8.242  17.732  0.00  0.00    +0.000 A 
ATOM      8  N   UNL     1       1.429   9.351  17.845  0.00  0.00    +0.000 NA
ATOM      9  N   UNL     1       1.023   9.372  19.149  0.00  0.00    +0.000 N 
ENDROOT
BRANCH   6  10
ATOM     10  C   UNL     1       2.911   6.238  19.202  0.00  0.00    +0.000 A 
ATOM     11  C   UNL     1       4.177   5.950  18.676  0.00  0.00    +0.000 A 
ATOM     12  C   UNL     1       4.825   4.756  18.989  0.00  0.00    +0.000 A 
ATOM     13  C   UNL     1       4.203   3.825  19.818  0.00  0.00    +0.000 A 
ATOM     14  C   UNL     1       2.924   4.074  20.334  0.00  0.00    +0.000 A 
ATOM     15  C   UNL     1       2.282   5.281  20.018  0.00  0.00    +0.000 A 
BRANCH  14  16
ATOM     16  C   UNL     1       2.324   3.030  21.215  0.00  0.00    +0.000 C 
ATOM     17  N   UNL     1       0.969   2.851  21.204  0.00  0.00    +0.000 N 
ATOM     18  O   UNL     1       3.021   2.330  21.942  0.00  0.00    +0.000 OA
ATOM     19  H   UNL     1       0.314   3.350  20.626  0.00  0.00    +0.000 HD
ATOM     20  H   UNL     1       0.608   2.127  21.812  0.00  0.00    +0.000 HD
ENDBRANCH  14  16
ENDBRANCH   6  10
BRANCH   1  21
ATOM     21  N   UNL     1      -0.295  11.447  19.093  0.00  0.00    +0.000 N 
ATOM     22  C   UNL     1       0.498  12.680  19.017  0.00  0.00    +0.000 C 
BRANCH  21  28
ATOM     23  C   UNL     1      -3.134  10.295  15.178  0.00  0.00    +0.000 C 
ATOM     24  C   UNL     1      -3.015  10.868  16.559  0.00  0.00    +0.000 A 
ATOM     25  C   UNL     1      -4.125  11.395  17.217  0.00  0.00    +0.000 A 
ATOM     26  C   UNL     1      -3.979  11.928  18.497  0.00  0.00    +0.000 A 
ATOM     27  C   UNL     1      -2.724  11.946  19.122  0.00  0.00    +0.000 A 
ATOM     28  C   UNL     1      -1.582  11.424  18.496  0.00  0.00    +0.000 A 
ATOM     29  C   UNL     1      -1.767  10.883  17.206  0.00  0.00    +0.000 A 
ENDBRANCH  21  28
ENDBRANCH   1  21
TORSDOF 4
ENDMDL
MODEL 4
REMARK VINA RESULT:      -8.6      0.827      1.475
REMARK  Name = 
REMARK  6 active torsions:
REMARK  status: ('A' for Active; 'I' for Inactive)
REMARK    1  A    between atoms: C_1  and  C_2
REMARK    2  A    between atoms: C_6  and  N_7
REMARK    3  A    between atoms: N_7  and  C_8
REMARK    4  A    between atoms: N_7  and  C_9
REMARK    5  A    between atoms: C_14  and  C_15
REMARK    6  A    between atoms: C_19  and  C_20
REMARK                            x       y       z     vdW  Elec       q    Type
REMARK                         _______ _______ _______ _____ _____    ______ ____
ROOT
ATOM      1  C   UNL     1       0.561   9.752  19.637  0.00  0.00    +0.000 A 
ATOM      2  C   UNL     1       0.309   9.357  20.899  0.00  0.00    +0.000 A 
ATOM      3  C   UNL     1       0.988   8.129  21.363  0.00  0.00    +0.000 A 
ATOM      4  N   UNL     1       1.797   7.391  20.671  0.00  0.00    +0.000 NA
ATOM      5  C   UNL     1       2.050   7.806  19.388  0.00  0.00    +0.000 A 
ATOM      6  C   UNL     1       2.843   7.269  18.385  0.00  0.00    +0.000 A 
ATOM      7  C   UNL     1       2.682   8.155  17.303  0.00  0.00    +0.000 A 
ATOM      8  N   UNL     1       1.861   9.168  17.564  0.00  0.00    +0.000 NA
ATOM      9  N   UNL     1       1.452   8.964  18.852  0.00  0.00    +0.000 N 
ENDROOT
BRANCH   6  10
ATOM     10  C   UNL     1       3.609   6.032  18.477  0.00  0.00    +0.000 A 
ATOM     11  C   UNL     1       2.971   4.792  18.615  0.00  0.00    +0.000 A 
ATOM     12  C   UNL     1       3.707   3.608  18.642  0.00  0.00    +0.000 A 
ATOM     13  C   UNL     1       5.096   3.653  18.548  0.00  0.00    +0.000 A 
ATOM     14  C   UNL     1       5.763   4.882  18.439  0.00  0.00    +0.000 A 
ATOM     15  C   UNL     1       5.013   6.067  18.408  0.00  0.00    +0.000 A 
BRANCH  14  16
ATOM     16  C   UNL     1       7.252   4.848  18.343  0.00  0.00    +0.000 C 
ATOM     17  N   UNL     1       7.832   4.330  17.219  0.00  0.00    +0.000 N 
ATOM     18  O   UNL     1       7.961   5.277  19.247  0.00  0.00    +0.000 OA
ATOM     19  H   UNL     1       7.344   3.981  16.412  0.00  0.00    +0.000 HD
ATOM     20  H   UNL     1       8.844   4.335  17.194  0.00  0.00    +0.000 HD
ENDBRANCH  14  16
ENDBRANCH   6  10
BRANCH   1  21
ATOM     21  N   UNL     1      -0.044  10.902  19.079  0.00  0.00    +0.000 N 
ATOM     22  C   UNL     1       0.659  12.189  19.154  0.00  0.00    +0.000 C 
BRANCH  21  28
ATOM     23  C   UNL     1      -4.785  12.389  19.212  0.00  0.00    +0.000 C 
ATOM     24  C   UNL     1      -3.706  11.581  18.554  0.00  0.00    +0.000 A 
ATOM     25  C   UNL     1      -3.979  10.788  17.441  0.00  0.00    +0.000 A 
ATOM     26  C   UNL     1      -2.956  10.042  16.858  0.00  0.00    +0.000 A 
ATOM     27  C   UNL     1      -1.659  10.076  17.388  0.00  0.00    +0.000 A 
ATOM     28  C   UNL     1      -1.340  10.863  18.506  0.00  0.00    +0.000 A 
ATOM     29  C   UNL     1      -2.397  11.613  19.065  0.00  0.00    +0.000 A 
ENDBRANCH  21  28
ENDBRANCH   1  21
TORSDOF 4
ENDMDL
MODEL 5
REMARK VINA RESULT:      -8.4      1.072      1.102
REMARK  Name = 
REMARK  6 active torsions:
REMARK  status: ('A' for Active; 'I' for Inactive)
REMARK    1  A    between atoms: C_1  and  C_2
REMARK    2  A    between atoms: C_6  and  N_7
REMARK    3  A    between atoms: N_7  and  C_8
REMARK    4  A    between atoms: N_7  and  C_9
REMARK    5  A    between atoms: C_14  and  C_15
REMARK    6  A    between atoms: C_19  and  C_20
REMARK                            x       y       z     vdW  Elec       q    Type
REMARK                         _______ _______ _______ _____ _____    ______ ____
ROOT
ATOM      1  C   UNL     1       0.384  10.010  19.719  0.00  0.00    +0.000 A 
ATOM      2  C   UNL     1       0.091   9.599  20.968  0.00  0.00    +0.000 A 
ATOM      3  C   UNL     1       0.745   8.358  21.435  0.00  0.00    +0.000 A 
ATOM      4  N   UNL     1       1.567   7.623  20.756  0.00  0.00    +0.000 NA
ATOM      5  C   UNL     1       1.862   8.053  19.488  0.00  0.00    +0.000 A 
ATOM      6  C   UNL     1       2.680   7.523  18.501  0.00  0.00    +0.000 A 
ATOM      7  C   UNL     1       2.559   8.426  17.427  0.00  0.00    +0.000 A 
ATOM      8  N   UNL     1       1.740   9.443  17.679  0.00  0.00    +0.000 NA
ATOM      9  N   UNL     1       1.291   9.224  18.951  0.00  0.00    +0.000 N 
ENDROOT
BRANCH   6  10
ATOM     10  C   UNL     1       3.432   6.278  18.598  0.00  0.00    +0.000 A 
ATOM     11  C   UNL     1       3.120   5.315  19.567  0.00  0.00    +0.000 A 
ATOM     12  C   UNL     1       3.803   4.101  19.615  0.00  0.00    +0.000 A 
ATOM     13  C   UNL     1       4.823   3.843  18.703  0.00  0.00    +0.000 A 
ATOM     14  C   UNL     1       5.178   4.801  17.742  0.00  0.00    +0.000 A 
ATOM     15  C   UNL     1       4.481   6.017  17.698  0.00  0.00    +0.000 A 
BRANCH  14  16
ATOM     16  C   UNL     1       6.281   4.451  16.800  0.00  0.00    +0.000 C 
ATOM     17  N   UNL     1       7.535   4.942  17.034  0.00  0.00    +0.000 N 
ATOM     18  O   UNL     1       6.086   3.731  15.826  0.00  0.00    +0.000 OA
ATOM     19  H   UNL     1       7.806   5.514  17.815  0.00  0.00    +0.000 HD
ATOM     20  H   UNL     1       8.253   4.672  16.373  0.00  0.00    +0.000 HD
ENDBRANCH  14  16
ENDBRANCH   6  10
BRANCH   1  21
ATOM     21  N   UNL     1      -0.194  11.173  19.161  0.00  0.00    +0.000 N 
ATOM     22  C   UNL     1       0.520  12.451  19.272  0.00  0.00    +0.000 C 
BRANCH  21  28
ATOM     23  C   UNL     1      -3.054   9.773  15.344  0.00  0.00    +0.000 C 
ATOM     24  C   UNL     1      -2.917  10.478  16.661  0.00  0.00    +0.000 A 
ATOM     25  C   UNL     1      -4.004  11.126  17.246  0.00  0.00    +0.000 A 
ATOM     26  C   UNL     1      -3.842  11.780  18.466  0.00  0.00    +0.000 A 
ATOM     27  C   UNL     1      -2.593  11.798  19.104  0.00  0.00    +0.000 A 
ATOM     28  C   UNL     1      -1.474  11.155  18.551  0.00  0.00    +0.000 A 
ATOM     29  C   UNL     1      -1.676  10.495  17.320  0.00  0.00    +0.000 A 
ENDBRANCH  21  28
ENDBRANCH   1  21
TORSDOF 4
ENDMDL
MODEL 6
REMARK VINA RESULT:      -8.4      3.168      8.323
REMARK  Name = 
REMARK  6 active torsions:
REMARK  status: ('A' for Active; 'I' for Inactive)
REMARK    1  A    between atoms: C_1  and  C_2
REMARK    2  A    between atoms: C_6  and  N_7
REMARK    3  A    between atoms: N_7  and  C_8
REMARK    4  A    between atoms: N_7  and  C_9
REMARK    5  A    between atoms: C_14  and  C_15
REMARK    6  A    between atoms: C_19  and  C_20
REMARK                            x       y       z     vdW  Elec       q    Type
REMARK                         _______ _______ _______ _____ _____    ______ ____
ROOT
ATOM      1  C   UNL     1       3.165   4.294  19.118  0.00  0.00    +0.000 A 
ATOM      2  C   UNL     1       2.694   3.828  20.290  0.00  0.00    +0.000 A 
ATOM      3  C   UNL     1       1.924   4.775  21.125  0.00  0.00    +0.000 A 
ATOM      4  N   UNL     1       1.665   6.012  20.841  0.00  0.00    +0.000 NA
ATOM      5  C   UNL     1       2.146   6.474  19.643  0.00  0.00    +0.000 A 
ATOM      6  C   UNL     1       2.063   7.718  19.034  0.00  0.00    +0.000 A 
ATOM      7  C   UNL     1       2.758   7.556  17.820  0.00  0.00    +0.000 A 
ATOM      8  N   UNL     1       3.254   6.334  17.650  0.00  0.00    +0.000 NA
ATOM      9  N   UNL     1       2.890   5.650  18.776  0.00  0.00    +0.000 N 
ENDROOT
BRANCH   6  10
ATOM     10  C   UNL     1       1.427   8.901  19.600  0.00  0.00    +0.000 A 
ATOM     11  C   UNL     1       1.189  10.040  18.819  0.00  0.00    +0.000 A 
ATOM     12  C   UNL     1       0.526  11.145  19.351  0.00  0.00    +0.000 A 
ATOM     13  C   UNL     1       0.109  11.130  20.680  0.00  0.00    +0.000 A 
ATOM     14  C   UNL     1       0.361  10.016  21.493  0.00  0.00    +0.000 A 
ATOM     15  C   UNL     1       1.024   8.907  20.947  0.00  0.00    +0.000 A 
BRANCH  14  16
ATOM     16  C   UNL     1      -0.117  10.076  22.905  0.00  0.00    +0.000 C 
ATOM     17  N   UNL     1      -1.291  10.719  23.182  0.00  0.00    +0.000 N 
ATOM     18  O   UNL     1       0.518   9.558  23.817  0.00  0.00    +0.000 OA
ATOM     19  H   UNL     1      -1.899  11.149  22.506  0.00  0.00    +0.000 HD
ATOM     20  H   UNL     1      -1.580  10.727  24.151  0.00  0.00    +0.000 HD
ENDBRANCH  14  16
ENDBRANCH   6  10
BRANCH   1  21
ATOM     21  N   UNL     1       3.927   3.485  18.245  0.00  0.00    +0.000 N 
ATOM     22  C   UNL     1       3.543   2.081  18.050  0.00  0.00    +0.000 C 
BRANCH  21  28
ATOM     23  C   UNL     1       6.440   4.230  14.021  0.00  0.00    +0.000 C 
ATOM     24  C   UNL     1       6.368   4.345  15.515  0.00  0.00    +0.000 A 
ATOM     25  C   UNL     1       7.429   4.875  16.247  0.00  0.00    +0.000 A 
ATOM     26  C   UNL     1       7.335   4.959  17.635  0.00  0.00    +0.000 A 
ATOM     27  C   UNL     1       6.186   4.507  18.300  0.00  0.00    +0.000 A 
ATOM     28  C   UNL     1       5.094   3.970  17.600  0.00  0.00    +0.000 A 
ATOM     29  C   UNL     1       5.219   3.908  16.196  0.00  0.00    +0.000 A 
ENDBRANCH  21  28
ENDBRANCH   1  21
TORSDOF 4
ENDMDL
MODEL 7
REMARK VINA RESULT:      -8.3      2.020      2.445
REMARK  Name = 
REMARK  6 active torsions:
REMARK  status: ('A' for Active; 'I' for Inactive)
REMARK    1  A    between atoms: C_1  and  C_2
REMARK    2  A    between atoms: C_6  and  N_7
REMARK    3  A    between atoms: N_7  and  C_8
REMARK    4  A    between atoms: N_7  and  C_9
REMARK    5  A    between atoms: C_14  and  C_15
REMARK    6  A    between atoms: C_19  and  C_20
REMARK                            x       y       z     vdW  Elec       q    Type
REMARK                         _______ _______ _______ _____ _____    ______ ____
ROOT
ATOM      1  C   UNL     1       0.506  10.276  20.480  0.00  0.00    +0.000 A 
ATOM      2  C   UNL     1       0.380   9.606  21.642  0.00  0.00    +0.000 A 
ATOM      3  C   UNL     1       0.956   8.246  21.694  0.00  0.00    +0.000 A 
ATOM      4  N   UNL     1       1.564   7.632  20.729  0.00  0.00    +0.000 NA
ATOM      5  C   UNL     1       1.690   8.326  19.553  0.00  0.00    +0.000 A 
ATOM      6  C   UNL     1       2.266   7.984  18.337  0.00  0.00    +0.000 A 
ATOM      7  C   UNL     1       2.071   9.121  17.529  0.00  0.00    +0.000 A 
ATOM      8  N   UNL     1       1.427  10.107  18.147  0.00  0.00    +0.000 NA
ATOM      9  N   UNL     1       1.175   9.629  19.402  0.00  0.00    +0.000 N 
ENDROOT
BRANCH   6  10
ATOM     10  C   UNL     1       2.876   6.699  18.017  0.00  0.00    +0.000 A 
ATOM     11  C   UNL     1       4.205   6.616  17.582  0.00  0.00    +0.000 A 
ATOM     12  C   UNL     1       4.800   5.380  17.335  0.00  0.00    +0.000 A 
ATOM     13  C   UNL     1       4.063   4.210  17.504  0.00  0.00    +0.000 A 
ATOM     14  C   UNL     1       2.722   4.264  17.909  0.00  0.00    +0.000 A 
ATOM     15  C   UNL     1       2.134   5.513  18.160  0.00  0.00    +0.000 A 
BRANCH  14  16
ATOM     16  C   UNL     1       2.000   2.968  18.068  0.00  0.00    +0.000 C 
ATOM     17  N   UNL     1       2.718   1.805  18.071  0.00  0.00    +0.000 N 
ATOM     18  O   UNL     1       0.781   2.927  18.199  0.00  0.00    +0.000 OA
ATOM     19  H   UNL     1       3.718   1.731  18.000  0.00  0.00    +0.000 HD
ATOM     20  H   UNL     1       2.188   0.951  18.190  0.00  0.00    +0.000 HD
ENDBRANCH  14  16
ENDBRANCH   6  10
BRANCH   1  21
ATOM     21  N   UNL     1      -0.020  11.577  20.308  0.00  0.00    +0.000 N 
ATOM     22  C   UNL     1       0.857  12.737  20.510  0.00  0.00    +0.000 C 
BRANCH  21  28
ATOM     23  C   UNL     1      -3.822  10.989  17.160  0.00  0.00    +0.000 C 
ATOM     24  C   UNL     1      -3.295  11.527  18.457  0.00  0.00    +0.000 A 
ATOM     25  C   UNL     1      -4.113  12.254  19.320  0.00  0.00    +0.000 A 
ATOM     26  C   UNL     1      -3.590  12.748  20.514  0.00  0.00    +0.000 A 
ATOM     27  C   UNL     1      -2.246  12.528  20.848  0.00  0.00    +0.000 A 
ATOM     28  C   UNL     1      -1.389  11.798  20.009  0.00  0.00    +0.000 A 
ATOM     29  C   UNL     1      -1.953  11.304  18.813  0.00  0.00    +0.000 A 
ENDBRANCH  21  28
ENDBRANCH   1  21
TORSDOF 4
ENDMDL
MODEL 8
REMARK VINA RESULT:      -8.3      2.080      2.801
REMARK  Name = 
REMARK  6 active torsions:
REMARK  status: ('A' for Active; 'I' for Inactive)
REMARK    1  A    between atoms: C_1  and  C_2
REMARK    2  A    between atoms: C_6  and  N_7
REMARK    3  A    between atoms: N_7  and  C_8
REMARK    4  A    between atoms: N_7  and  C_9
REMARK    5  A    between atoms: C_14  and  C_15
REMARK    6  A    between atoms: C_19  and  C_20
REMARK                            x       y       z     vdW  Elec       q    Type
REMARK                         _______ _______ _______ _____ _____    ______ ____
ROOT
ATOM      1  C   UNL     1       0.529  10.110  19.723  0.00  0.00    +0.000 A 
ATOM      2  C   UNL     1       0.277   9.836  21.017  0.00  0.00    +0.000 A 
ATOM      3  C   UNL     1       0.862   8.593  21.564  0.00  0.00    +0.000 A 
ATOM      4  N   UNL     1       1.588   7.738  20.916  0.00  0.00    +0.000 NA
ATOM      5  C   UNL     1       1.842   8.030  19.601  0.00  0.00    +0.000 A 
ATOM      6  C   UNL     1       2.562   7.351  18.628  0.00  0.00    +0.000 A 
ATOM      7  C   UNL     1       2.447   8.162  17.483  0.00  0.00    +0.000 A 
ATOM      8  N   UNL     1       1.721   9.259  17.679  0.00  0.00    +0.000 NA
ATOM      9  N   UNL     1       1.330   9.190  18.987  0.00  0.00    +0.000 N 
ENDROOT
BRANCH   6  10
ATOM     10  C   UNL     1       3.223   6.064  18.803  0.00  0.00    +0.000 A 
ATOM     11  C   UNL     1       4.621   5.962  18.813  0.00  0.00    +0.000 A 
ATOM     12  C   UNL     1       5.247   4.738  19.041  0.00  0.00    +0.000 A 
ATOM     13  C   UNL     1       4.479   3.593  19.243  0.00  0.00    +0.000 A 
ATOM     14  C   UNL     1       3.079   3.660  19.208  0.00  0.00    +0.000 A 
ATOM     15  C   UNL     1       2.458   4.898  18.983  0.00  0.00    +0.000 A 
BRANCH  14  16
ATOM     16  C   UNL     1       2.326   2.392  19.433  0.00  0.00    +0.000 C 
ATOM     17  N   UNL     1       2.289   1.456  18.438  0.00  0.00    +0.000 N 
ATOM     18  O   UNL     1       1.746   2.172  20.492  0.00  0.00    +0.000 OA
ATOM     19  H   UNL     1       2.753   1.525  17.548  0.00  0.00    +0.000 HD
ATOM     20  H   UNL     1       1.773   0.608  18.638  0.00  0.00    +0.000 HD
ENDBRANCH  14  16
ENDBRANCH   6  10
BRANCH   1  21
ATOM     21  N   UNL     1       0.009  11.261  19.089  0.00  0.00    +0.000 N 
ATOM     22  C   UNL     1       0.867  12.441  18.930  0.00  0.00    +0.000 C 
BRANCH  21  28
ATOM     23  C   UNL     1      -4.633  12.831  19.926  0.00  0.00    +0.000 C 
ATOM     24  C   UNL     1      -3.659  12.095  19.054  0.00  0.00    +0.000 A 
ATOM     25  C   UNL     1      -4.076  11.471  17.880  0.00  0.00    +0.000 A 
ATOM     26  C   UNL     1      -3.148  10.787  17.096  0.00  0.00    +0.000 A 
ATOM     27  C   UNL     1      -1.803  10.716  17.484  0.00  0.00    +0.000 A 
ATOM     28  C   UNL     1      -1.341  11.333  18.657  0.00  0.00    +0.000 A 
ATOM     29  C   UNL     1      -2.304  12.025  19.422  0.00  0.00    +0.000 A 
ENDBRANCH  21  28
ENDBRANCH   1  21
TORSDOF 4
ENDMDL
MODEL 9
REMARK VINA RESULT:      -8.3      2.005      2.794
REMARK  Name = 
REMARK  6 active torsions:
REMARK  status: ('A' for Active; 'I' for Inactive)
REMARK    1  A    between atoms: C_1  and  C_2
REMARK    2  A    between atoms: C_6  and  N_7
REMARK    3  A    between atoms: N_7  and  C_8
REMARK    4  A    between atoms: N_7  and  C_9
REMARK    5  A    between atoms: C_14  and  C_15
REMARK    6  A    between atoms: C_19  and  C_20
REMARK                            x       y       z     vdW  Elec       q    Type
REMARK                         _______ _______ _______ _____ _____    ______ ____
ROOT
ATOM      1  C   UNL     1       0.613  10.159  20.238  0.00  0.00    +0.000 A 
ATOM      2  C   UNL     1       0.463   9.587  21.448  0.00  0.00    +0.000 A 
ATOM      3  C   UNL     1       1.030   8.233  21.621  0.00  0.00    +0.000 A 
ATOM      4  N   UNL     1       1.650   7.539  20.720  0.00  0.00    +0.000 NA
ATOM      5  C   UNL     1       1.800   8.134  19.493  0.00  0.00    +0.000 A 
ATOM      6  C   UNL     1       2.393   7.691  18.320  0.00  0.00    +0.000 A 
ATOM      7  C   UNL     1       2.219   8.758  17.418  0.00  0.00    +0.000 A 
ATOM      8  N   UNL     1       1.571   9.795  17.942  0.00  0.00    +0.000 NA
ATOM      9  N   UNL     1       1.296   9.422  19.227  0.00  0.00    +0.000 N 
ENDROOT
BRANCH   6  10
ATOM     10  C   UNL     1       3.000   6.381  18.116  0.00  0.00    +0.000 A 
ATOM     11  C   UNL     1       4.362   6.252  17.815  0.00  0.00    +0.000 A 
ATOM     12  C   UNL     1       4.949   4.994  17.681  0.00  0.00    +0.000 A 
ATOM     13  C   UNL     1       4.172   3.848  17.829  0.00  0.00    +0.000 A 
ATOM     14  C   UNL     1       2.800   3.947  18.100  0.00  0.00    +0.000 A 
ATOM     15  C   UNL     1       2.221   5.217  18.238  0.00  0.00    +0.000 A 
BRANCH  14  16
ATOM     16  C   UNL     1       2.036   2.674  18.245  0.00  0.00    +0.000 C 
ATOM     17  N   UNL     1       2.721   1.496  18.343  0.00  0.00    +0.000 N 
ATOM     18  O   UNL     1       0.810   2.665  18.282  0.00  0.00    +0.000 OA
ATOM     19  H   UNL     1       3.722   1.397  18.353  0.00  0.00    +0.000 HD
ATOM     20  H   UNL     1       2.162   0.659  18.448  0.00  0.00    +0.000 HD
ENDBRANCH  14  16
ENDBRANCH   6  10
BRANCH   1  21
ATOM     21  N   UNL     1       0.098  11.444  19.951  0.00  0.00    +0.000 N 
ATOM     22  C   UNL     1       0.964  12.617  20.122  0.00  0.00    +0.000 C 
BRANCH  21  28
ATOM     23  C   UNL     1      -4.383  13.323  20.999  0.00  0.00    +0.000 C 
ATOM     24  C   UNL     1      -3.493  12.559  20.065  0.00  0.00    +0.000 A 
ATOM     25  C   UNL     1      -3.987  12.026  18.875  0.00  0.00    +0.000 A 
ATOM     26  C   UNL     1      -3.137  11.313  18.032  0.00  0.00    +0.000 A 
ATOM     27  C   UNL     1      -1.791  11.119  18.377  0.00  0.00    +0.000 A 
ATOM     28  C   UNL     1      -1.252  11.641  19.564  0.00  0.00    +0.000 A 
ATOM     29  C   UNL     1      -2.139  12.366  20.388  0.00  0.00    +0.000 A 
ENDBRANCH  21  28
ENDBRANCH   1  21
TORSDOF 4
ENDMDL
