MODEL 1
REMARK VINA RESULT:      -7.7      0.000      0.000
REMARK  Name = 
REMARK  7 active torsions:
REMARK  status: ('A' for Active; 'I' for Inactive)
REMARK    1  A    between atoms: C_1  and  C_2
REMARK    2  A    between atoms: C_2  and  S_3
REMARK    3  A    between atoms: C_2  and  C_13
REMARK    4  A    between atoms: S_3  and  C_4
REMARK    5  A    between atoms: C_7  and  C_8
REMARK    6  A    between atoms: N_11  and  C_12
REMARK    7  A    between atoms: N_15  and  C_16
REMARK                            x       y       z     vdW  Elec       q    Type
REMARK                         _______ _______ _______ _____ _____    ______ ____
ROOT
ATOM      1  C   UNL     1       1.973   4.528  20.423  0.00  0.00    +0.000 C 
ATOM      2  O   UNL     1       0.988   4.337  19.710  0.00  0.00    +0.000 OA
ATOM      3  N   UNL     1       2.555   5.773  20.630  0.00  0.00    +0.000 N 
ATOM      4  H   UNL     1       3.465   5.779  21.078  0.00  0.00    +0.000 HD
ENDROOT
BRANCH   3   5
ATOM      5  C   UNL     1       2.130   6.982  20.019  0.00  0.00    +0.000 A 
ATOM      6  C   UNL     1       2.466   7.310  18.693  0.00  0.00    +0.000 A 
ATOM      7  C   UNL     1       2.146   8.550  18.137  0.00  0.00    +0.000 A 
ATOM      8  C   UNL     1       1.457   9.456  18.914  0.00  0.00    +0.000 A 
ATOM      9  C   UNL     1       1.054   9.131  20.212  0.00  0.00    +0.000 A 
ATOM     10  C   UNL     1       1.374   7.896  20.775  0.00  0.00    +0.000 A 
ATOM     11  C   UNL     1       0.366  10.303  20.845  0.00  0.00    +0.000 C 
ATOM     12  C   UNL     1       0.038  11.170  19.615  0.00  0.00    +0.000 C 
ATOM     13  C   UNL     1       1.110  10.866  18.564  0.00  0.00    +0.000 C 
ENDBRANCH   3   5
BRANCH   1  15
ATOM     14  C   UNL     1       1.466   2.486  21.758  0.00  0.00    +0.000 C 
ATOM     15  C   UNL     1       2.603   3.336  21.178  0.00  0.00    +0.000 C 
BRANCH  15  16
ATOM     16  S   UNL     1       3.660   2.332  20.078  0.00  0.00    +0.000 S 
BRANCH  16  17
ATOM     17  C   UNL     1       4.725   3.508  19.384  0.00  0.00    +0.000 A 
ATOM     18  N   UNL     1       5.684   4.174  19.979  0.00  0.00    +0.000 NA
ATOM     19  N   UNL     1       6.250   5.013  19.038  0.00  0.00    +0.000 NA
ATOM     20  C   UNL     1       5.615   4.842  17.896  0.00  0.00    +0.000 A 
ATOM     21  N   UNL     1       4.652   3.879  18.068  0.00  0.00    +0.000 N 
ATOM     22  C   UNL     1       3.776   3.320  17.074  0.00  0.00    +0.000 C 
BRANCH  20  23
ATOM     23  C   UNL     1       5.937   5.602  16.610  0.00  0.00    +0.000 C 
ATOM     24  C   UNL     1       4.992   6.692  16.146  0.00  0.00    +0.000 C 
ATOM     25  C   UNL     1       6.312   7.065  16.724  0.00  0.00    +0.000 C 
ENDBRANCH  20  23
ENDBRANCH  16  17
ENDBRANCH  15  16
ENDBRANCH   1  15
TORSDOF 5
ENDMDL
MODEL 2
REMARK VINA RESULT:      -7.5      0.734      1.484
REMARK  Name = 
REMARK  7 active torsions:
REMARK  status: ('A' for Active; 'I' for Inactive)
REMARK    1  A    between atoms: C_1  and  C_2
REMARK    2  A    between atoms: C_2  and  S_3
REMARK    3  A    between atoms: C_2  and  C_13
REMARK    4  A    between atoms: S_3  and  C_4
REMARK    5  A    between atoms: C_7  and  C_8
REMARK    6  A    between atoms: N_11  and  C_12
REMARK    7  A    between atoms: N_15  and  C_16
REMARK                            x       y       z     vdW  Elec       q    Type
REMARK                         _______ _______ _______ _____ _____    ______ ____
ROOT
ATOM      1  C   UNL     1       1.703   4.462  20.737  0.00  0.00    +0.000 C 
ATOM      2  O   UNL     1       0.646   4.395  20.107  0.00  0.00    +0.000 OA
ATOM      3  N   UNL     1       2.336   5.654  21.068  0.00  0.00    +0.000 N 
ATOM      4  H   UNL     1       3.286   5.581  21.416  0.00  0.00    +0.000 HD
ENDROOT
BRANCH   3   5
ATOM      5  C   UNL     1       1.886   6.948  20.692  0.00  0.00    +0.000 A 
ATOM      6  C   UNL     1       1.011   7.699  21.496  0.00  0.00    +0.000 A 
ATOM      7  C   UNL     1       0.481   8.918  21.068  0.00  0.00    +0.000 A 
ATOM      8  C   UNL     1       0.857   9.395  19.831  0.00  0.00    +0.000 A 
ATOM      9  C   UNL     1       1.775   8.700  19.040  0.00  0.00    +0.000 A 
ATOM     10  C   UNL     1       2.306   7.481  19.460  0.00  0.00    +0.000 A 
ATOM     11  C   UNL     1       1.973   9.413  17.736  0.00  0.00    +0.000 C 
ATOM     12  C   UNL     1       1.405  10.808  18.057  0.00  0.00    +0.000 C 
ATOM     13  C   UNL     1       0.335  10.609  19.135  0.00  0.00    +0.000 C 
ENDBRANCH   3   5
BRANCH   1  15
ATOM     14  C   UNL     1       1.332   2.372  22.041  0.00  0.00    +0.000 C 
ATOM     15  C   UNL     1       2.371   3.162  21.236  0.00  0.00    +0.000 C 
BRANCH  15  16
ATOM     16  S   UNL     1       3.003   2.160  19.846  0.00  0.00    +0.000 S 
BRANCH  16  17
ATOM     17  C   UNL     1       4.190   3.198  19.129  0.00  0.00    +0.000 A 
ATOM     18  N   UNL     1       5.400   3.453  19.561  0.00  0.00    +0.000 NA
ATOM     19  N   UNL     1       5.974   4.351  18.680  0.00  0.00    +0.000 NA
ATOM     20  C   UNL     1       5.093   4.626  17.738  0.00  0.00    +0.000 A 
ATOM     21  N   UNL     1       3.954   3.898  17.976  0.00  0.00    +0.000 N 
ATOM     22  C   UNL     1       2.769   3.825  17.165  0.00  0.00    +0.000 C 
BRANCH  20  23
ATOM     23  C   UNL     1       5.343   5.593  16.582  0.00  0.00    +0.000 C 
ATOM     24  C   UNL     1       4.717   6.973  16.631  0.00  0.00    +0.000 C 
ATOM     25  C   UNL     1       6.182   6.824  16.854  0.00  0.00    +0.000 C 
ENDBRANCH  20  23
ENDBRANCH  16  17
ENDBRANCH  15  16
ENDBRANCH   1  15
TORSDOF 5
ENDMDL
MODEL 3
REMARK VINA RESULT:      -7.4      1.381      1.965
REMARK  Name = 
REMARK  7 active torsions:
REMARK  status: ('A' for Active; 'I' for Inactive)
REMARK    1  A    between atoms: C_1  and  C_2
REMARK    2  A    between atoms: C_2  and  S_3
REMARK    3  A    between atoms: C_2  and  C_13
REMARK    4  A    between atoms: S_3  and  C_4
REMARK    5  A    between atoms: C_7  and  C_8
REMARK    6  A    between atoms: N_11  and  C_12
REMARK    7  A    between atoms: N_15  and  C_16
REMARK                            x       y       z     vdW  Elec       q    Type
REMARK                         _______ _______ _______ _____ _____    ______ ____
ROOT
ATOM      1  C   UNL     1       1.917   4.478  18.908  0.00  0.00    +0.000 C 
ATOM      2  O   UNL     1       1.335   4.824  17.880  0.00  0.00    +0.000 OA
ATOM      3  N   UNL     1       2.191   5.329  19.971  0.00  0.00    +0.000 N 
ATOM      4  H   UNL     1       2.836   4.984  20.674  0.00  0.00    +0.000 HD
ENDROOT
BRANCH   3   5
ATOM      5  C   UNL     1       1.884   6.715  20.005  0.00  0.00    +0.000 A 
ATOM      6  C   UNL     1       1.213   7.308  21.090  0.00  0.00    +0.000 A 
ATOM      7  C   UNL     1       0.811   8.644  21.067  0.00  0.00    +0.000 A 
ATOM      8  C   UNL     1       1.110   9.397  19.952  0.00  0.00    +0.000 A 
ATOM      9  C   UNL     1       1.832   8.850  18.887  0.00  0.00    +0.000 A 
ATOM     10  C   UNL     1       2.233   7.515  18.903  0.00  0.00    +0.000 A 
ATOM     11  C   UNL     1       1.981   9.865  17.793  0.00  0.00    +0.000 C 
ATOM     12  C   UNL     1       1.647  11.172  18.537  0.00  0.00    +0.000 C 
ATOM     13  C   UNL     1       0.685  10.800  19.669  0.00  0.00    +0.000 C 
ENDBRANCH   3   5
BRANCH   1  15
ATOM     14  C   UNL     1       1.109   2.120  18.894  0.00  0.00    +0.000 C 
ATOM     15  C   UNL     1       2.350   3.004  19.073  0.00  0.00    +0.000 C 
BRANCH  15  16
ATOM     16  S   UNL     1       3.642   2.548  17.865  0.00  0.00    +0.000 S 
BRANCH  16  17
ATOM     17  C   UNL     1       4.939   3.626  18.260  0.00  0.00    +0.000 A 
ATOM     18  N   UNL     1       5.475   3.841  19.436  0.00  0.00    +0.000 NA
ATOM     19  N   UNL     1       6.462   4.796  19.273  0.00  0.00    +0.000 NA
ATOM     20  C   UNL     1       6.494   5.145  18.002  0.00  0.00    +0.000 A 
ATOM     21  N   UNL     1       5.556   4.409  17.321  0.00  0.00    +0.000 N 
ATOM     22  C   UNL     1       5.296   4.404  15.907  0.00  0.00    +0.000 C 
BRANCH  20  23
ATOM     23  C   UNL     1       7.443   6.190  17.420  0.00  0.00    +0.000 C 
ATOM     24  C   UNL     1       7.006   7.641  17.389  0.00  0.00    +0.000 C 
ATOM     25  C   UNL     1       8.044   7.209  18.366  0.00  0.00    +0.000 C 
ENDBRANCH  20  23
ENDBRANCH  16  17
ENDBRANCH  15  16
ENDBRANCH   1  15
TORSDOF 5
ENDMDL
MODEL 4
REMARK VINA RESULT:      -7.2      1.008      1.654
REMARK  Name = 
REMARK  7 active torsions:
REMARK  status: ('A' for Active; 'I' for Inactive)
REMARK    1  A    between atoms: C_1  and  C_2
REMARK    2  A    between atoms: C_2  and  S_3
REMARK    3  A    between atoms: C_2  and  C_13
REMARK    4  A    between atoms: S_3  and  C_4
REMARK    5  A    between atoms: C_7  and  C_8
REMARK    6  A    between atoms: N_11  and  C_12
REMARK    7  A    between atoms: N_15  and  C_16
REMARK                            x       y       z     vdW  Elec       q    Type
REMARK                         _______ _______ _______ _____ _____    ______ ____
ROOT
ATOM      1  C   UNL     1       2.063   4.410  20.171  0.00  0.00    +0.000 C 
ATOM      2  O   UNL     1       1.163   4.222  19.351  0.00  0.00    +0.000 OA
ATOM      3  N   UNL     1       2.636   5.650  20.426  0.00  0.00    +0.000 N 
ATOM      4  H   UNL     1       3.488   5.650  20.976  0.00  0.00    +0.000 HD
ENDROOT
BRANCH   3   5
ATOM      5  C   UNL     1       2.303   6.855  19.753  0.00  0.00    +0.000 A 
ATOM      6  C   UNL     1       2.704   7.110  18.430  0.00  0.00    +0.000 A 
ATOM      7  C   UNL     1       2.475   8.342  17.815  0.00  0.00    +0.000 A 
ATOM      8  C   UNL     1       1.813   9.316  18.530  0.00  0.00    +0.000 A 
ATOM      9  C   UNL     1       1.347   9.067  19.824  0.00  0.00    +0.000 A 
ATOM     10  C   UNL     1       1.575   7.840  20.445  0.00  0.00    +0.000 A 
ATOM     11  C   UNL     1       0.706  10.301  20.385  0.00  0.00    +0.000 C 
ATOM     12  C   UNL     1       0.471  11.134  19.111  0.00  0.00    +0.000 C 
ATOM     13  C   UNL     1       1.560  10.728  18.113  0.00  0.00    +0.000 C 
ENDBRANCH   3   5
BRANCH   1  15
ATOM     14  C   UNL     1       1.543   2.096  20.937  0.00  0.00    +0.000 C 
ATOM     15  C   UNL     1       2.583   3.222  21.010  0.00  0.00    +0.000 C 
BRANCH  15  16
ATOM     16  S   UNL     1       4.204   2.637  20.406  0.00  0.00    +0.000 S 
BRANCH  16  17
ATOM     17  C   UNL     1       4.183   3.093  18.735  0.00  0.00    +0.000 A 
ATOM     18  N   UNL     1       3.460   2.578  17.771  0.00  0.00    +0.000 NA
ATOM     19  N   UNL     1       3.791   3.243  16.605  0.00  0.00    +0.000 NA
ATOM     20  C   UNL     1       4.715   4.139  16.889  0.00  0.00    +0.000 A 
ATOM     21  N   UNL     1       4.977   4.090  18.235  0.00  0.00    +0.000 N 
ATOM     22  C   UNL     1       5.856   4.938  18.994  0.00  0.00    +0.000 C 
BRANCH  20  23
ATOM     23  C   UNL     1       5.355   5.070  15.860  0.00  0.00    +0.000 C 
ATOM     24  C   UNL     1       6.811   4.867  15.493  0.00  0.00    +0.000 C 
ATOM     25  C   UNL     1       5.750   4.484  14.520  0.00  0.00    +0.000 C 
ENDBRANCH  20  23
ENDBRANCH  16  17
ENDBRANCH  15  16
ENDBRANCH   1  15
TORSDOF 5
ENDMDL
MODEL 5
REMARK VINA RESULT:      -7.2      1.919      4.304
REMARK  Name = 
REMARK  7 active torsions:
REMARK  status: ('A' for Active; 'I' for Inactive)
REMARK    1  A    between atoms: C_1  and  C_2
REMARK    2  A    between atoms: C_2  and  S_3
REMARK    3  A    between atoms: C_2  and  C_13
REMARK    4  A    between atoms: S_3  and  C_4
REMARK    5  A    between atoms: C_7  and  C_8
REMARK    6  A    between atoms: N_11  and  C_12
REMARK    7  A    between atoms: N_15  and  C_16
REMARK                            x       y       z     vdW  Elec       q    Type
REMARK                         _______ _______ _______ _____ _____    ______ ____
ROOT
ATOM      1  C   UNL     1       4.605   6.070  17.707  0.00  0.00    +0.000 C 
ATOM      2  O   UNL     1       5.260   6.036  18.749  0.00  0.00    +0.000 OA
ATOM      3  N   UNL     1       3.340   6.635  17.602  0.00  0.00    +0.000 N 
ATOM      4  H   UNL     1       2.825   6.437  16.750  0.00  0.00    +0.000 HD
ENDROOT
BRANCH   3   5
ATOM      5  C   UNL     1       2.610   7.204  18.678  0.00  0.00    +0.000 A 
ATOM      6  C   UNL     1       2.343   6.493  19.862  0.00  0.00    +0.000 A 
ATOM      7  C   UNL     1       1.527   7.016  20.866  0.00  0.00    +0.000 A 
ATOM      8  C   UNL     1       0.997   8.275  20.689  0.00  0.00    +0.000 A 
ATOM      9  C   UNL     1       1.297   9.029  19.551  0.00  0.00    +0.000 A 
ATOM     10  C   UNL     1       2.110   8.512  18.542  0.00  0.00    +0.000 A 
ATOM     11  C   UNL     1       0.561  10.334  19.590  0.00  0.00    +0.000 C 
ATOM     12  C   UNL     1       0.159  10.418  21.075  0.00  0.00    +0.000 C 
ATOM     13  C   UNL     1       0.020   8.977  21.575  0.00  0.00    +0.000 C 
ENDBRANCH   3   5
BRANCH   1  15
ATOM     14  C   UNL     1       6.685   5.923  16.342  0.00  0.00    +0.000 C 
ATOM     15  C   UNL     1       5.214   5.492  16.410  0.00  0.00    +0.000 C 
BRANCH  15  16
ATOM     16  S   UNL     1       5.076   3.672  16.361  0.00  0.00    +0.000 S 
BRANCH  16  17
ATOM     17  C   UNL     1       3.621   3.369  17.251  0.00  0.00    +0.000 A 
ATOM     18  N   UNL     1       2.385   3.546  16.853  0.00  0.00    +0.000 NA
ATOM     19  N   UNL     1       1.558   3.193  17.903  0.00  0.00    +0.000 NA
ATOM     20  C   UNL     1       2.314   2.819  18.917  0.00  0.00    +0.000 A 
ATOM     21  N   UNL     1       3.630   2.897  18.536  0.00  0.00    +0.000 N 
ATOM     22  C   UNL     1       4.791   2.513  19.292  0.00  0.00    +0.000 C 
BRANCH  20  23
ATOM     23  C   UNL     1       1.773   2.367  20.272  0.00  0.00    +0.000 C 
ATOM     24  C   UNL     1       2.216   3.102  21.521  0.00  0.00    +0.000 C 
ATOM     25  C   UNL     1       0.832   3.298  21.008  0.00  0.00    +0.000 C 
ENDBRANCH  20  23
ENDBRANCH  16  17
ENDBRANCH  15  16
ENDBRANCH   1  15
TORSDOF 5
ENDMDL
MODEL 6
REMARK VINA RESULT:      -7.2      1.394      1.900
REMARK  Name = 
REMARK  7 active torsions:
REMARK  status: ('A' for Active; 'I' for Inactive)
REMARK    1  A    between atoms: C_1  and  C_2
REMARK    2  A    between atoms: C_2  and  S_3
REMARK    3  A    between atoms: C_2  and  C_13
REMARK    4  A    between atoms: S_3  and  C_4
REMARK    5  A    between atoms: C_7  and  C_8
REMARK    6  A    between atoms: N_11  and  C_12
REMARK    7  A    between atoms: N_15  and  C_16
REMARK                            x       y       z     vdW  Elec       q    Type
REMARK                         _______ _______ _______ _____ _____    ______ ____
ROOT
ATOM      1  C   UNL     1       2.414   4.757  19.425  0.00  0.00    +0.000 C 
ATOM      2  O   UNL     1       1.245   4.565  19.761  0.00  0.00    +0.000 OA
ATOM      3  N   UNL     1       2.957   6.012  19.178  0.00  0.00    +0.000 N 
ATOM      4  H   UNL     1       3.866   6.031  18.728  0.00  0.00    +0.000 HD
ENDROOT
BRANCH   3   5
ATOM      5  C   UNL     1       2.238   7.235  19.231  0.00  0.00    +0.000 A 
ATOM      6  C   UNL     1       2.079   8.059  18.102  0.00  0.00    +0.000 A 
ATOM      7  C   UNL     1       1.473   9.314  18.187  0.00  0.00    +0.000 A 
ATOM      8  C   UNL     1       1.001   9.731  19.413  0.00  0.00    +0.000 A 
ATOM      9  C   UNL     1       1.090   8.905  20.537  0.00  0.00    +0.000 A 
ATOM     10  C   UNL     1       1.696   7.651  20.460  0.00  0.00    +0.000 A 
ATOM     11  C   UNL     1       0.544   9.614  21.740  0.00  0.00    +0.000 C 
ATOM     12  C   UNL     1      -0.259  10.756  21.088  0.00  0.00    +0.000 C 
ATOM     13  C   UNL     1       0.424  11.066  19.752  0.00  0.00    +0.000 C 
ENDBRANCH   3   5
BRANCH   1  15
ATOM     14  C   UNL     1       2.546   2.269  19.460  0.00  0.00    +0.000 C 
ATOM     15  C   UNL     1       3.372   3.551  19.298  0.00  0.00    +0.000 C 
BRANCH  15  16
ATOM     16  S   UNL     1       4.242   3.557  17.693  0.00  0.00    +0.000 S 
BRANCH  16  17
ATOM     17  C   UNL     1       5.631   4.542  18.009  0.00  0.00    +0.000 A 
ATOM     18  N   UNL     1       6.514   4.403  18.966  0.00  0.00    +0.000 NA
ATOM     19  N   UNL     1       7.430   5.430  18.838  0.00  0.00    +0.000 NA
ATOM     20  C   UNL     1       7.075   6.175  17.809  0.00  0.00    +0.000 A 
ATOM     21  N   UNL     1       5.949   5.632  17.243  0.00  0.00    +0.000 N 
ATOM     22  C   UNL     1       5.260   6.067  16.058  0.00  0.00    +0.000 C 
BRANCH  20  23
ATOM     23  C   UNL     1       7.828   7.421  17.349  0.00  0.00    +0.000 C 
ATOM     24  C   UNL     1       7.240   8.786  17.647  0.00  0.00    +0.000 C 
ATOM     25  C   UNL     1       8.432   8.319  18.408  0.00  0.00    +0.000 C 
ENDBRANCH  20  23
ENDBRANCH  16  17
ENDBRANCH  15  16
ENDBRANCH   1  15
TORSDOF 5
ENDMDL
MODEL 7
REMARK VINA RESULT:      -7.1      1.899      4.097
REMARK  Name = 
REMARK  7 active torsions:
REMARK  status: ('A' for Active; 'I' for Inactive)
REMARK    1  A    between atoms: C_1  and  C_2
REMARK    2  A    between atoms: C_2  and  S_3
REMARK    3  A    between atoms: C_2  and  C_13
REMARK    4  A    between atoms: S_3  and  C_4
REMARK    5  A    between atoms: C_7  and  C_8
REMARK    6  A    between atoms: N_11  and  C_12
REMARK    7  A    between atoms: N_15  and  C_16
REMARK                            x       y       z     vdW  Elec       q    Type
REMARK                         _______ _______ _______ _____ _____    ______ ____
ROOT
ATOM      1  C   UNL     1       4.993   6.532  17.254  0.00  0.00    +0.000 C 
ATOM      2  O   UNL     1       5.722   7.007  18.124  0.00  0.00    +0.000 OA
ATOM      3  N   UNL     1       3.614   6.700  17.217  0.00  0.00    +0.000 N 
ATOM      4  H   UNL     1       3.103   6.111  16.569  0.00  0.00    +0.000 HD
ENDROOT
BRANCH   3   5
ATOM      5  C   UNL     1       2.852   7.396  18.192  0.00  0.00    +0.000 A 
ATOM      6  C   UNL     1       2.621   6.872  19.477  0.00  0.00    +0.000 A 
ATOM      7  C   UNL     1       1.776   7.505  20.390  0.00  0.00    +0.000 A 
ATOM      8  C   UNL     1       1.180   8.690  20.015  0.00  0.00    +0.000 A 
ATOM      9  C   UNL     1       1.442   9.265  18.769  0.00  0.00    +0.000 A 
ATOM     10  C   UNL     1       2.283   8.636  17.851  0.00  0.00    +0.000 A 
ATOM     11  C   UNL     1       0.637  10.518  18.601  0.00  0.00    +0.000 C 
ATOM     12  C   UNL     1       0.228  10.819  20.056  0.00  0.00    +0.000 C 
ATOM     13  C   UNL     1       0.165   9.472  20.782  0.00  0.00    +0.000 C 
ENDBRANCH   3   5
BRANCH   1  15
ATOM     14  C   UNL     1       7.142   5.704  16.302  0.00  0.00    +0.000 C 
ATOM     15  C   UNL     1       5.622   5.725  16.096  0.00  0.00    +0.000 C 
BRANCH  15  16
ATOM     16  S   UNL     1       4.959   4.024  16.031  0.00  0.00    +0.000 S 
BRANCH  16  17
ATOM     17  C   UNL     1       4.646   3.666  17.696  0.00  0.00    +0.000 A 
ATOM     18  N   UNL     1       5.506   3.617  18.683  0.00  0.00    +0.000 NA
ATOM     19  N   UNL     1       4.806   3.274  19.825  0.00  0.00    +0.000 NA
ATOM     20  C   UNL     1       3.538   3.113  19.500  0.00  0.00    +0.000 A 
ATOM     21  N   UNL     1       3.391   3.374  18.161  0.00  0.00    +0.000 N 
ATOM     22  C   UNL     1       2.174   3.397  17.395  0.00  0.00    +0.000 C 
BRANCH  20  23
ATOM     23  C   UNL     1       2.442   2.715  20.487  0.00  0.00    +0.000 C 
ATOM     24  C   UNL     1       2.168   3.610  21.679  0.00  0.00    +0.000 C 
ATOM     25  C   UNL     1       1.197   3.576  20.551  0.00  0.00    +0.000 C 
ENDBRANCH  20  23
ENDBRANCH  16  17
ENDBRANCH  15  16
ENDBRANCH   1  15
TORSDOF 5
ENDMDL
MODEL 8
REMARK VINA RESULT:      -6.9      5.609      7.227
REMARK  Name = 
REMARK  7 active torsions:
REMARK  status: ('A' for Active; 'I' for Inactive)
REMARK    1  A    between atoms: C_1  and  C_2
REMARK    2  A    between atoms: C_2  and  S_3
REMARK    3  A    between atoms: C_2  and  C_13
REMARK    4  A    between atoms: S_3  and  C_4
REMARK    5  A    between atoms: C_7  and  C_8
REMARK    6  A    between atoms: N_11  and  C_12
REMARK    7  A    between atoms: N_15  and  C_16
REMARK                            x       y       z     vdW  Elec       q    Type
REMARK                         _______ _______ _______ _____ _____    ______ ____
ROOT
ATOM      1  C   UNL     1       8.027   8.334  18.148  0.00  0.00    +0.000 C 
ATOM      2  O   UNL     1       7.293   9.072  17.491  0.00  0.00    +0.000 OA
ATOM      3  N   UNL     1       9.011   8.790  19.017  0.00  0.00    +0.000 N 
ATOM      4  H   UNL     1       9.673   8.099  19.354  0.00  0.00    +0.000 HD
ENDROOT
BRANCH   3   5
ATOM      5  C   UNL     1       9.338  10.154  19.235  0.00  0.00    +0.000 A 
ATOM      6  C   UNL     1       9.891  10.963  18.226  0.00  0.00    +0.000 A 
ATOM      7  C   UNL     1      10.317  12.267  18.478  0.00  0.00    +0.000 A 
ATOM      8  C   UNL     1      10.161  12.771  19.751  0.00  0.00    +0.000 A 
ATOM      9  C   UNL     1       9.556  12.012  20.756  0.00  0.00    +0.000 A 
ATOM     10  C   UNL     1       9.131  10.707  20.512  0.00  0.00    +0.000 A 
ATOM     11  C   UNL     1       9.551  12.777  22.046  0.00  0.00    +0.000 C 
ATOM     12  C   UNL     1       9.822  14.212  21.555  0.00  0.00    +0.000 C 
ATOM     13  C   UNL     1      10.642  14.088  20.267  0.00  0.00    +0.000 C 
ENDBRANCH   3   5
BRANCH   1  15
ATOM     14  C   UNL     1       8.102   6.205  19.440  0.00  0.00    +0.000 C 
ATOM     15  C   UNL     1       7.846   6.803  18.051  0.00  0.00    +0.000 C 
BRANCH  15  16
ATOM     16  S   UNL     1       6.173   6.365  17.461  0.00  0.00    +0.000 S 
BRANCH  16  17
ATOM     17  C   UNL     1       6.488   5.584  15.948  0.00  0.00    +0.000 A 
ATOM     18  N   UNL     1       7.463   5.825  15.107  0.00  0.00    +0.000 NA
ATOM     19  N   UNL     1       7.300   4.974  14.030  0.00  0.00    +0.000 NA
ATOM     20  C   UNL     1       6.224   4.242  14.240  0.00  0.00    +0.000 A 
ATOM     21  N   UNL     1       5.691   4.584  15.458  0.00  0.00    +0.000 N 
ATOM     22  C   UNL     1       4.564   3.991  16.125  0.00  0.00    +0.000 C 
BRANCH  20  23
ATOM     23  C   UNL     1       5.698   3.187  13.269  0.00  0.00    +0.000 C 
ATOM     24  C   UNL     1       4.900   3.635  12.061  0.00  0.00    +0.000 C 
ATOM     25  C   UNL     1       6.293   3.143  11.876  0.00  0.00    +0.000 C 
ENDBRANCH  20  23
ENDBRANCH  16  17
ENDBRANCH  15  16
ENDBRANCH   1  15
TORSDOF 5
ENDMDL
MODEL 9
REMARK VINA RESULT:      -6.9      2.006      4.116
REMARK  Name = 
REMARK  7 active torsions:
REMARK  status: ('A' for Active; 'I' for Inactive)
REMARK    1  A    between atoms: C_1  and  C_2
REMARK    2  A    between atoms: C_2  and  S_3
REMARK    3  A    between atoms: C_2  and  C_13
REMARK    4  A    between atoms: S_3  and  C_4
REMARK    5  A    between atoms: C_7  and  C_8
REMARK    6  A    between atoms: N_11  and  C_12
REMARK    7  A    between atoms: N_15  and  C_16
REMARK                            x       y       z     vdW  Elec       q    Type
REMARK                         _______ _______ _______ _____ _____    ______ ____
ROOT
ATOM      1  C   UNL     1       5.294   6.558  17.235  0.00  0.00    +0.000 C 
ATOM      2  O   UNL     1       5.867   7.557  17.671  0.00  0.00    +0.000 OA
ATOM      3  N   UNL     1       3.926   6.337  17.342  0.00  0.00    +0.000 N 
ATOM      4  H   UNL     1       3.600   5.403  17.119  0.00  0.00    +0.000 HD
ENDROOT
BRANCH   3   5
ATOM      5  C   UNL     1       3.011   7.198  18.001  0.00  0.00    +0.000 A 
ATOM      6  C   UNL     1       2.522   8.372  17.401  0.00  0.00    +0.000 A 
ATOM      7  C   UNL     1       1.715   9.274  18.097  0.00  0.00    +0.000 A 
ATOM      8  C   UNL     1       1.376   8.977  19.399  0.00  0.00    +0.000 A 
ATOM      9  C   UNL     1       1.796   7.787  19.999  0.00  0.00    +0.000 A 
ATOM     10  C   UNL     1       2.605   6.883  19.310  0.00  0.00    +0.000 A 
ATOM     11  C   UNL     1       1.328   7.736  21.422  0.00  0.00    +0.000 C 
ATOM     12  C   UNL     1       0.233   8.819  21.427  0.00  0.00    +0.000 C 
ATOM     13  C   UNL     1       0.623   9.843  20.356  0.00  0.00    +0.000 C 
ENDBRANCH   3   5
BRANCH   1  15
ATOM     14  C   UNL     1       7.401   5.228  17.278  0.00  0.00    +0.000 C 
ATOM     15  C   UNL     1       6.112   5.482  16.486  0.00  0.00    +0.000 C 
BRANCH  15  16
ATOM     16  S   UNL     1       5.162   3.934  16.294  0.00  0.00    +0.000 S 
BRANCH  16  17
ATOM     17  C   UNL     1       4.656   3.586  17.913  0.00  0.00    +0.000 A 
ATOM     18  N   UNL     1       5.388   3.580  19.000  0.00  0.00    +0.000 NA
ATOM     19  N   UNL     1       4.564   3.226  20.052  0.00  0.00    +0.000 NA
ATOM     20  C   UNL     1       3.352   3.017  19.576  0.00  0.00    +0.000 A 
ATOM     21  N   UNL     1       3.364   3.256  18.224  0.00  0.00    +0.000 N 
ATOM     22  C   UNL     1       2.251   3.227  17.314  0.00  0.00    +0.000 C 
BRANCH  20  23
ATOM     23  C   UNL     1       2.155   2.593  20.425  0.00  0.00    +0.000 C 
ATOM     24  C   UNL     1       1.921   3.279  21.756  0.00  0.00    +0.000 C 
ATOM     25  C   UNL     1       1.025   3.585  20.607  0.00  0.00    +0.000 C 
ENDBRANCH  20  23
ENDBRANCH  16  17
ENDBRANCH  15  16
ENDBRANCH   1  15
TORSDOF 5
ENDMDL
