MODEL 1
REMARK VINA RESULT:      -8.3      0.000      0.000
REMARK  Name = 
REMARK  3 active torsions:
REMARK  status: ('A' for Active; 'I' for Inactive)
REMARK    1  A    between atoms: C_4  and  C_5
REMARK    2  A    between atoms: C_9  and  N_10
REMARK    3  A    between atoms: C_11  and  C_13
REMARK                            x       y       z     vdW  Elec       q    Type
REMARK                         _______ _______ _______ _____ _____    ______ ____
ROOT
ATOM      1  C   UNL     1       4.498   4.718  17.119  0.00  0.00    +0.000 A 
ATOM      2  C   UNL     1       5.020   3.817  16.184  0.00  0.00    +0.000 A 
ATOM      3  C   UNL     1       6.227   4.084  15.544  0.00  0.00    +0.000 A 
ATOM      4  C   UNL     1       6.912   5.266  15.818  0.00  0.00    +0.000 A 
ATOM      5  C   UNL     1       6.396   6.209  16.713  0.00  0.00    +0.000 A 
ATOM      6  C   UNL     1       5.193   5.918  17.371  0.00  0.00    +0.000 A 
ENDROOT
BRANCH   1  10
ATOM      7  N   UNL     1       1.274   4.403  20.670  0.00  0.00    +0.000 N 
ATOM      8  C   UNL     1       1.898   4.305  19.493  0.00  0.00    +0.000 A 
ATOM      9  N   UNL     1       3.033   4.855  19.140  0.00  0.00    +0.000 NA
ATOM     10  C   UNL     1       3.279   4.414  17.856  0.00  0.00    +0.000 A 
ATOM     11  C   UNL     1       2.245   3.606  17.428  0.00  0.00    +0.000 A 
ATOM     12  N   UNL     1       1.380   3.545  18.484  0.00  0.00    +0.000 N 
ATOM     13  H   UNL     1       1.621   5.117  21.304  0.00  0.00    +0.000 HD
ATOM     14  H   UNL     1       0.293   4.187  20.787  0.00  0.00    +0.000 HD
ATOM     15  H   UNL     1       0.531   3.002  18.539  0.00  0.00    +0.000 HD
ENDBRANCH   1  10
BRANCH   5  16
ATOM     16  N   UNL     1       7.051   7.431  17.001  0.00  0.00    +0.000 N 
ATOM     17  C   UNL     1       7.892   7.657  18.078  0.00  0.00    +0.000 C 
ATOM     18  O   UNL     1       8.250   6.799  18.879  0.00  0.00    +0.000 OA
ATOM     19  H   UNL     1       6.941   8.176  16.328  0.00  0.00    +0.000 HD
BRANCH  17  20
ATOM     20  C   UNL     1       8.385   9.016  18.244  0.00  0.00    +0.000 A 
ATOM     21  C   UNL     1       8.206  10.197  17.542  0.00  0.00    +0.000 A 
ATOM     22  C   UNL     1       8.938  11.197  18.256  0.00  0.00    +0.000 A 
ATOM     23  S   UNL     1       9.291  12.891  18.181  0.00  0.00    +0.000 S 
ATOM     24  C   UNL     1      10.225  12.764  19.625  0.00  0.00    +0.000 A 
ATOM     25  C   UNL     1      10.288  11.488  20.144  0.00  0.00    +0.000 A 
ATOM     26  C   UNL     1       9.531  10.606  19.331  0.00  0.00    +0.000 A 
ATOM     27  N   UNL     1       9.210   9.280  19.320  0.00  0.00    +0.000 N 
ATOM     28  H   UNL     1       9.519   8.606  20.009  0.00  0.00    +0.000 HD
ENDBRANCH  17  20
ENDBRANCH   5  16
TORSDOF 3
ENDMDL
MODEL 2
REMARK VINA RESULT:      -8.0      4.784      7.156
REMARK  Name = 
REMARK  3 active torsions:
REMARK  status: ('A' for Active; 'I' for Inactive)
REMARK    1  A    between atoms: C_4  and  C_5
REMARK    2  A    between atoms: C_9  and  N_10
REMARK    3  A    between atoms: C_11  and  C_13
REMARK                            x       y       z     vdW  Elec       q    Type
REMARK                         _______ _______ _______ _____ _____    ______ ____
ROOT
ATOM      1  C   UNL     1       4.850   4.425  18.703  0.00  0.00    +0.000 A 
ATOM      2  C   UNL     1       4.532   3.138  19.157  0.00  0.00    +0.000 A 
ATOM      3  C   UNL     1       3.437   2.936  19.991  0.00  0.00    +0.000 A 
ATOM      4  C   UNL     1       2.663   4.020  20.398  0.00  0.00    +0.000 A 
ATOM      5  C   UNL     1       2.979   5.323  20.000  0.00  0.00    +0.000 A 
ATOM      6  C   UNL     1       4.069   5.514  19.138  0.00  0.00    +0.000 A 
ENDROOT
BRANCH   1  10
ATOM      7  N   UNL     1       7.275   5.148  14.617  0.00  0.00    +0.000 N 
ATOM      8  C   UNL     1       6.952   4.954  15.899  0.00  0.00    +0.000 A 
ATOM      9  N   UNL     1       5.755   4.924  16.427  0.00  0.00    +0.000 NA
ATOM     10  C   UNL     1       5.942   4.642  17.764  0.00  0.00    +0.000 A 
ATOM     11  C   UNL     1       7.290   4.532  18.039  0.00  0.00    +0.000 A 
ATOM     12  N   UNL     1       7.915   4.730  16.840  0.00  0.00    +0.000 N 
ATOM     13  H   UNL     1       6.530   5.481  14.012  0.00  0.00    +0.000 HD
ATOM     14  H   UNL     1       8.203   5.427  14.324  0.00  0.00    +0.000 HD
ATOM     15  H   UNL     1       8.907   4.674  16.660  0.00  0.00    +0.000 HD
ENDBRANCH   1  10
BRANCH   5  16
ATOM     16  N   UNL     1       2.230   6.453  20.410  0.00  0.00    +0.000 N 
ATOM     17  C   UNL     1       1.987   7.578  19.640  0.00  0.00    +0.000 C 
ATOM     18  O   UNL     1       2.317   7.707  18.464  0.00  0.00    +0.000 OA
ATOM     19  H   UNL     1       1.788   6.401  21.317  0.00  0.00    +0.000 HD
BRANCH  17  20
ATOM     20  C   UNL     1       1.275   8.668  20.289  0.00  0.00    +0.000 A 
ATOM     21  C   UNL     1       0.920   9.950  19.903  0.00  0.00    +0.000 A 
ATOM     22  C   UNL     1       0.187  10.505  20.998  0.00  0.00    +0.000 A 
ATOM     23  S   UNL     1      -0.640  11.961  21.440  0.00  0.00    +0.000 S 
ATOM     24  C   UNL     1      -1.059  11.266  22.961  0.00  0.00    +0.000 A 
ATOM     25  C   UNL     1      -0.583   9.985  23.144  0.00  0.00    +0.000 A 
ATOM     26  C   UNL     1       0.131   9.573  21.990  0.00  0.00    +0.000 A 
ATOM     27  N   UNL     1       0.802   8.462  21.571  0.00  0.00    +0.000 N 
ATOM     28  H   UNL     1       0.913   7.616  22.115  0.00  0.00    +0.000 HD
ENDBRANCH  17  20
ENDBRANCH   5  16
TORSDOF 3
ENDMDL
MODEL 3
REMARK VINA RESULT:      -7.7      4.846      7.024
REMARK  Name = 
REMARK  3 active torsions:
REMARK  status: ('A' for Active; 'I' for Inactive)
REMARK    1  A    between atoms: C_4  and  C_5
REMARK    2  A    between atoms: C_9  and  N_10
REMARK    3  A    between atoms: C_11  and  C_13
REMARK                            x       y       z     vdW  Elec       q    Type
REMARK                         _______ _______ _______ _____ _____    ______ ____
ROOT
ATOM      1  C   UNL     1       4.363   4.361  17.394  0.00  0.00    +0.000 A 
ATOM      2  C   UNL     1       3.755   3.100  17.348  0.00  0.00    +0.000 A 
ATOM      3  C   UNL     1       2.496   2.903  17.909  0.00  0.00    +0.000 A 
ATOM      4  C   UNL     1       1.844   3.959  18.541  0.00  0.00    +0.000 A 
ATOM      5  C   UNL     1       2.442   5.220  18.645  0.00  0.00    +0.000 A 
ATOM      6  C   UNL     1       3.699   5.415  18.054  0.00  0.00    +0.000 A 
ENDROOT
BRANCH   1  10
ATOM      7  N   UNL     1       7.653   5.317  14.024  0.00  0.00    +0.000 N 
ATOM      8  C   UNL     1       7.048   5.026  15.179  0.00  0.00    +0.000 A 
ATOM      9  N   UNL     1       5.764   5.014  15.430  0.00  0.00    +0.000 NA
ATOM     10  C   UNL     1       5.642   4.603  16.740  0.00  0.00    +0.000 A 
ATOM     11  C   UNL     1       6.892   4.397  17.289  0.00  0.00    +0.000 A 
ATOM     12  N   UNL     1       7.773   4.667  16.279  0.00  0.00    +0.000 N 
ATOM     13  H   UNL     1       7.071   5.743  13.308  0.00  0.00    +0.000 HD
ATOM     14  H   UNL     1       8.631   5.571  13.967  0.00  0.00    +0.000 HD
ATOM     15  H   UNL     1       8.777   4.575  16.314  0.00  0.00    +0.000 HD
ENDBRANCH   1  10
BRANCH   5  16
ATOM     16  N   UNL     1       1.821   6.312  19.298  0.00  0.00    +0.000 N 
ATOM     17  C   UNL     1       2.078   7.649  19.047  0.00  0.00    +0.000 C 
ATOM     18  O   UNL     1       2.819   8.066  18.161  0.00  0.00    +0.000 OA
ATOM     19  H   UNL     1       1.086   6.091  19.955  0.00  0.00    +0.000 HD
BRANCH  17  20
ATOM     20  C   UNL     1       1.399   8.613  19.901  0.00  0.00    +0.000 A 
ATOM     21  C   UNL     1       0.980   9.922  19.731  0.00  0.00    +0.000 A 
ATOM     22  C   UNL     1       0.333  10.292  20.951  0.00  0.00    +0.000 A 
ATOM     23  S   UNL     1      -0.488  11.642  21.662  0.00  0.00    +0.000 S 
ATOM     24  C   UNL     1      -0.754  10.728  23.099  0.00  0.00    +0.000 A 
ATOM     25  C   UNL     1      -0.231   9.452  23.060  0.00  0.00    +0.000 A 
ATOM     26  C   UNL     1       0.388   9.231  21.803  0.00  0.00    +0.000 A 
ATOM     27  N   UNL     1       1.047   8.214  21.176  0.00  0.00    +0.000 N 
ATOM     28  H   UNL     1       1.227   7.305  21.585  0.00  0.00    +0.000 HD
ENDBRANCH  17  20
ENDBRANCH   5  16
TORSDOF 3
ENDMDL
MODEL 4
REMARK VINA RESULT:      -7.7      1.076      1.529
REMARK  Name = 
REMARK  3 active torsions:
REMARK  status: ('A' for Active; 'I' for Inactive)
REMARK    1  A    between atoms: C_4  and  C_5
REMARK    2  A    between atoms: C_9  and  N_10
REMARK    3  A    between atoms: C_11  and  C_13
REMARK                            x       y       z     vdW  Elec       q    Type
REMARK                         _______ _______ _______ _____ _____    ______ ____
ROOT
ATOM      1  C   UNL     1       4.585   4.865  17.139  0.00  0.00    +0.000 A 
ATOM      2  C   UNL     1       5.106   4.013  16.158  0.00  0.00    +0.000 A 
ATOM      3  C   UNL     1       6.293   4.332  15.506  0.00  0.00    +0.000 A 
ATOM      4  C   UNL     1       6.959   5.516  15.812  0.00  0.00    +0.000 A 
ATOM      5  C   UNL     1       6.442   6.412  16.755  0.00  0.00    +0.000 A 
ATOM      6  C   UNL     1       5.259   6.069  17.425  0.00  0.00    +0.000 A 
ENDROOT
BRANCH   1  10
ATOM      7  N   UNL     1       0.728   2.452  18.688  0.00  0.00    +0.000 N 
ATOM      8  C   UNL     1       1.680   3.374  18.518  0.00  0.00    +0.000 A 
ATOM      9  N   UNL     1       2.755   3.286  17.776  0.00  0.00    +0.000 NA
ATOM     10  C   UNL     1       3.388   4.505  17.889  0.00  0.00    +0.000 A 
ATOM     11  C   UNL     1       2.684   5.326  18.746  0.00  0.00    +0.000 A 
ATOM     12  N   UNL     1       1.599   4.590  19.132  0.00  0.00    +0.000 N 
ATOM     13  H   UNL     1       0.940   1.519  18.347  0.00  0.00    +0.000 HD
ATOM     14  H   UNL     1       0.082   2.472  19.467  0.00  0.00    +0.000 HD
ATOM     15  H   UNL     1       0.842   4.896  19.724  0.00  0.00    +0.000 HD
ENDBRANCH   1  10
BRANCH   5  16
ATOM     16  N   UNL     1       7.077   7.636  17.078  0.00  0.00    +0.000 N 
ATOM     17  C   UNL     1       7.973   7.826  18.116  0.00  0.00    +0.000 C 
ATOM     18  O   UNL     1       8.404   6.934  18.842  0.00  0.00    +0.000 OA
ATOM     19  H   UNL     1       6.905   8.415  16.458  0.00  0.00    +0.000 HD
BRANCH  17  20
ATOM     20  C   UNL     1       8.435   9.188  18.335  0.00  0.00    +0.000 A 
ATOM     21  C   UNL     1       9.339   9.769  19.209  0.00  0.00    +0.000 A 
ATOM     22  C   UNL     1       9.369  11.161  18.880  0.00  0.00    +0.000 A 
ATOM     23  S   UNL     1      10.158  12.623  19.369  0.00  0.00    +0.000 S 
ATOM     24  C   UNL     1       9.300  13.496  18.154  0.00  0.00    +0.000 A 
ATOM     25  C   UNL     1       8.434  12.722  17.411  0.00  0.00    +0.000 A 
ATOM     26  C   UNL     1       8.500  11.377  17.854  0.00  0.00    +0.000 A 
ATOM     27  N   UNL     1       7.919  10.185  17.529  0.00  0.00    +0.000 N 
ATOM     28  H   UNL     1       7.233  10.059  16.796  0.00  0.00    +0.000 HD
ENDBRANCH  17  20
ENDBRANCH   5  16
TORSDOF 3
ENDMDL
MODEL 5
REMARK VINA RESULT:      -7.6      5.223      6.774
REMARK  Name = 
REMARK  3 active torsions:
REMARK  status: ('A' for Active; 'I' for Inactive)
REMARK    1  A    between atoms: C_4  and  C_5
REMARK    2  A    between atoms: C_9  and  N_10
REMARK    3  A    between atoms: C_11  and  C_13
REMARK                            x       y       z     vdW  Elec       q    Type
REMARK                         _______ _______ _______ _____ _____    ______ ____
ROOT
ATOM      1  C   UNL     1       3.951   4.802  18.101  0.00  0.00    +0.000 A 
ATOM      2  C   UNL     1       4.724   5.281  17.037  0.00  0.00    +0.000 A 
ATOM      3  C   UNL     1       4.665   6.622  16.670  0.00  0.00    +0.000 A 
ATOM      4  C   UNL     1       3.816   7.492  17.350  0.00  0.00    +0.000 A 
ATOM      5  C   UNL     1       2.997   7.038  18.388  0.00  0.00    +0.000 A 
ATOM      6  C   UNL     1       3.083   5.690  18.767  0.00  0.00    +0.000 A 
ENDROOT
BRANCH   1  10
ATOM      7  N   UNL     1       5.345   0.893  20.525  0.00  0.00    +0.000 N 
ATOM      8  C   UNL     1       4.743   1.723  19.669  0.00  0.00    +0.000 A 
ATOM      9  N   UNL     1       4.807   3.031  19.643  0.00  0.00    +0.000 NA
ATOM     10  C   UNL     1       4.063   3.420  18.550  0.00  0.00    +0.000 A 
ATOM     11  C   UNL     1       3.519   2.314  17.929  0.00  0.00    +0.000 A 
ATOM     12  N   UNL     1       3.967   1.244  18.653  0.00  0.00    +0.000 N 
ATOM     13  H   UNL     1       5.757   1.319  21.350  0.00  0.00    +0.000 HD
ATOM     14  H   UNL     1       5.046  -0.065  20.659  0.00  0.00    +0.000 HD
ATOM     15  H   UNL     1       3.801   0.269  18.455  0.00  0.00    +0.000 HD
ENDBRANCH   1  10
BRANCH   5  16
ATOM     16  N   UNL     1       2.105   7.886  19.089  0.00  0.00    +0.000 N 
ATOM     17  C   UNL     1       1.587   9.077  18.611  0.00  0.00    +0.000 C 
ATOM     18  O   UNL     1       1.766   9.514  17.477  0.00  0.00    +0.000 OA
ATOM     19  H   UNL     1       1.775   7.558  19.986  0.00  0.00    +0.000 HD
BRANCH  17  20
ATOM     20  C   UNL     1       0.764   9.845  19.533  0.00  0.00    +0.000 A 
ATOM     21  C   UNL     1      -0.073  10.940  19.393  0.00  0.00    +0.000 A 
ATOM     22  C   UNL     1      -0.625  11.184  20.689  0.00  0.00    +0.000 A 
ATOM     23  S   UNL     1      -1.726  12.262  21.481  0.00  0.00    +0.000 S 
ATOM     24  C   UNL     1      -1.478  11.427  22.969  0.00  0.00    +0.000 A 
ATOM     25  C   UNL     1      -0.585  10.380  22.885  0.00  0.00    +0.000 A 
ATOM     26  C   UNL     1      -0.112  10.264  21.553  0.00  0.00    +0.000 A 
ATOM     27  N   UNL     1       0.742   9.458  20.859  0.00  0.00    +0.000 N 
ATOM     28  H   UNL     1       1.261   8.686  21.260  0.00  0.00    +0.000 HD
ENDBRANCH  17  20
ENDBRANCH   5  16
TORSDOF 3
ENDMDL
MODEL 6
REMARK VINA RESULT:      -7.6      5.009      6.980
REMARK  Name = 
REMARK  3 active torsions:
REMARK  status: ('A' for Active; 'I' for Inactive)
REMARK    1  A    between atoms: C_4  and  C_5
REMARK    2  A    between atoms: C_9  and  N_10
REMARK    3  A    between atoms: C_11  and  C_13
REMARK                            x       y       z     vdW  Elec       q    Type
REMARK                         _______ _______ _______ _____ _____    ______ ____
ROOT
ATOM      1  C   UNL     1       4.400   4.917  17.118  0.00  0.00    +0.000 A 
ATOM      2  C   UNL     1       3.647   3.737  17.177  0.00  0.00    +0.000 A 
ATOM      3  C   UNL     1       2.370   3.743  17.730  0.00  0.00    +0.000 A 
ATOM      4  C   UNL     1       1.843   4.923  18.249  0.00  0.00    +0.000 A 
ATOM      5  C   UNL     1       2.585   6.109  18.247  0.00  0.00    +0.000 A 
ATOM      6  C   UNL     1       3.861   6.098  17.664  0.00  0.00    +0.000 A 
ENDROOT
BRANCH   1  10
ATOM      7  N   UNL     1       7.836   5.505  13.809  0.00  0.00    +0.000 N 
ATOM      8  C   UNL     1       7.177   5.223  14.937  0.00  0.00    +0.000 A 
ATOM      9  N   UNL     1       5.920   5.465  15.211  0.00  0.00    +0.000 NA
ATOM     10  C   UNL     1       5.705   4.944  16.469  0.00  0.00    +0.000 A 
ATOM     11  C   UNL     1       6.875   4.407  16.965  0.00  0.00    +0.000 A 
ATOM     12  N   UNL     1       7.798   4.590  15.974  0.00  0.00    +0.000 N 
ATOM     13  H   UNL     1       7.365   6.127  13.157  0.00  0.00    +0.000 HD
ATOM     14  H   UNL     1       8.846   5.542  13.761  0.00  0.00    +0.000 HD
ATOM     15  H   UNL     1       8.757   4.276  15.977  0.00  0.00    +0.000 HD
ENDBRANCH   1  10
BRANCH   5  16
ATOM     16  N   UNL     1       2.092   7.323  18.784  0.00  0.00    +0.000 N 
ATOM     17  C   UNL     1       1.677   7.513  20.091  0.00  0.00    +0.000 C 
ATOM     18  O   UNL     1       1.763   6.673  20.982  0.00  0.00    +0.000 OA
ATOM     19  H   UNL     1       2.106   8.129  18.174  0.00  0.00    +0.000 HD
BRANCH  17  20
ATOM     20  C   UNL     1       1.112   8.815  20.411  0.00  0.00    +0.000 A 
ATOM     21  C   UNL     1       0.584   9.380  21.560  0.00  0.00    +0.000 A 
ATOM     22  C   UNL     1       0.238  10.724  21.218  0.00  0.00    +0.000 A 
ATOM     23  S   UNL     1      -0.432  12.147  21.943  0.00  0.00    +0.000 S 
ATOM     24  C   UNL     1      -0.263  12.992  20.449  0.00  0.00    +0.000 A 
ATOM     25  C   UNL     1       0.265  12.230  19.429  0.00  0.00    +0.000 A 
ATOM     26  C   UNL     1       0.546  10.925  19.906  0.00  0.00    +0.000 A 
ATOM     27  N   UNL     1       1.064   9.765  19.408  0.00  0.00    +0.000 N 
ATOM     28  H   UNL     1       1.379   9.637  18.454  0.00  0.00    +0.000 HD
ENDBRANCH  17  20
ENDBRANCH   5  16
TORSDOF 3
ENDMDL
MODEL 7
REMARK VINA RESULT:      -7.5      4.557      6.707
REMARK  Name = 
REMARK  3 active torsions:
REMARK  status: ('A' for Active; 'I' for Inactive)
REMARK    1  A    between atoms: C_4  and  C_5
REMARK    2  A    between atoms: C_9  and  N_10
REMARK    3  A    between atoms: C_11  and  C_13
REMARK                            x       y       z     vdW  Elec       q    Type
REMARK                         _______ _______ _______ _____ _____    ______ ____
ROOT
ATOM      1  C   UNL     1       6.477   4.945  15.557  0.00  0.00    +0.000 A 
ATOM      2  C   UNL     1       7.436   4.449  16.449  0.00  0.00    +0.000 A 
ATOM      3  C   UNL     1       7.405   4.814  17.792  0.00  0.00    +0.000 A 
ATOM      4  C   UNL     1       6.429   5.694  18.251  0.00  0.00    +0.000 A 
ATOM      5  C   UNL     1       5.483   6.244  17.379  0.00  0.00    +0.000 A 
ATOM      6  C   UNL     1       5.507   5.850  16.033  0.00  0.00    +0.000 A 
ENDROOT
BRANCH   1  10
ATOM      7  N   UNL     1       5.252   2.619  11.534  0.00  0.00    +0.000 N 
ATOM      8  C   UNL     1       5.848   3.423  12.419  0.00  0.00    +0.000 A 
ATOM      9  N   UNL     1       5.490   3.656  13.656  0.00  0.00    +0.000 NA
ATOM     10  C   UNL     1       6.446   4.508  14.168  0.00  0.00    +0.000 A 
ATOM     11  C   UNL     1       7.378   4.812  13.196  0.00  0.00    +0.000 A 
ATOM     12  N   UNL     1       6.982   4.109  12.092  0.00  0.00    +0.000 N 
ATOM     13  H   UNL     1       4.326   2.284  11.784  0.00  0.00    +0.000 HD
ATOM     14  H   UNL     1       5.412   2.690  10.537  0.00  0.00    +0.000 HD
ATOM     15  H   UNL     1       7.461   4.058  11.205  0.00  0.00    +0.000 HD
ENDBRANCH   1  10
BRANCH   5  16
ATOM     16  N   UNL     1       4.489   7.159  17.802  0.00  0.00    +0.000 N 
ATOM     17  C   UNL     1       3.212   6.821  18.219  0.00  0.00    +0.000 C 
ATOM     18  O   UNL     1       2.801   5.672  18.358  0.00  0.00    +0.000 OA
ATOM     19  H   UNL     1       4.760   8.130  17.862  0.00  0.00    +0.000 HD
BRANCH  17  20
ATOM     20  C   UNL     1       2.313   7.925  18.519  0.00  0.00    +0.000 A 
ATOM     21  C   UNL     1       1.751   8.942  17.765  0.00  0.00    +0.000 A 
ATOM     22  C   UNL     1       0.915   9.682  18.658  0.00  0.00    +0.000 A 
ATOM     23  S   UNL     1      -0.155  11.043  18.652  0.00  0.00    +0.000 S 
ATOM     24  C   UNL     1      -0.475  10.804  20.329  0.00  0.00    +0.000 A 
ATOM     25  C   UNL     1       0.210   9.745  20.887  0.00  0.00    +0.000 A 
ATOM     26  C   UNL     1       1.003   9.116  19.894  0.00  0.00    +0.000 A 
ATOM     27  N   UNL     1       1.861   8.058  19.819  0.00  0.00    +0.000 N 
ATOM     28  H   UNL     1       2.107   7.458  20.596  0.00  0.00    +0.000 HD
ENDBRANCH  17  20
ENDBRANCH   5  16
TORSDOF 3
ENDMDL
MODEL 8
REMARK VINA RESULT:      -7.5      4.705      7.182
REMARK  Name = 
REMARK  3 active torsions:
REMARK  status: ('A' for Active; 'I' for Inactive)
REMARK    1  A    between atoms: C_4  and  C_5
REMARK    2  A    between atoms: C_9  and  N_10
REMARK    3  A    between atoms: C_11  and  C_13
REMARK                            x       y       z     vdW  Elec       q    Type
REMARK                         _______ _______ _______ _____ _____    ______ ____
ROOT
ATOM      1  C   UNL     1       4.352   4.880  16.770  0.00  0.00    +0.000 A 
ATOM      2  C   UNL     1       3.696   3.648  16.884  0.00  0.00    +0.000 A 
ATOM      3  C   UNL     1       2.511   3.545  17.608  0.00  0.00    +0.000 A 
ATOM      4  C   UNL     1       1.984   4.667  18.242  0.00  0.00    +0.000 A 
ATOM      5  C   UNL     1       2.637   5.903  18.186  0.00  0.00    +0.000 A 
ATOM      6  C   UNL     1       3.816   6.002  17.433  0.00  0.00    +0.000 A 
ENDROOT
BRANCH   1  10
ATOM      7  N   UNL     1       7.357   4.711  13.023  0.00  0.00    +0.000 N 
ATOM      8  C   UNL     1       6.829   4.904  14.235  0.00  0.00    +0.000 A 
ATOM      9  N   UNL     1       5.578   4.761  14.596  0.00  0.00    +0.000 NA
ATOM     10  C   UNL     1       5.547   5.021  15.949  0.00  0.00    +0.000 A 
ATOM     11  C   UNL     1       6.809   5.358  16.395  0.00  0.00    +0.000 A 
ATOM     12  N   UNL     1       7.611   5.273  15.291  0.00  0.00    +0.000 N 
ATOM     13  H   UNL     1       6.697   4.612  12.257  0.00  0.00    +0.000 HD
ATOM     14  H   UNL     1       8.254   5.093  12.751  0.00  0.00    +0.000 HD
ATOM     15  H   UNL     1       8.610   5.409  15.259  0.00  0.00    +0.000 HD
ENDBRANCH   1  10
BRANCH   5  16
ATOM     16  N   UNL     1       2.145   7.061  18.835  0.00  0.00    +0.000 N 
ATOM     17  C   UNL     1       1.773   7.139  20.166  0.00  0.00    +0.000 C 
ATOM     18  O   UNL     1       1.904   6.233  20.985  0.00  0.00    +0.000 OA
ATOM     19  H   UNL     1       2.123   7.913  18.292  0.00  0.00    +0.000 HD
BRANCH  17  20
ATOM     20  C   UNL     1       1.199   8.401  20.608  0.00  0.00    +0.000 A 
ATOM     21  C   UNL     1       1.126   9.670  20.059  0.00  0.00    +0.000 A 
ATOM     22  C   UNL     1       0.385  10.463  20.989  0.00  0.00    +0.000 A 
ATOM     23  S   UNL     1      -0.212  12.078  21.177  0.00  0.00    +0.000 S 
ATOM     24  C   UNL     1      -0.919  11.645  22.689  0.00  0.00    +0.000 A 
ATOM     25  C   UNL     1      -0.704  10.333  23.055  0.00  0.00    +0.000 A 
ATOM     26  C   UNL     1       0.051   9.676  22.050  0.00  0.00    +0.000 A 
ATOM     27  N   UNL     1       0.555   8.428  21.831  0.00  0.00    +0.000 N 
ATOM     28  H   UNL     1       0.450   7.644  22.463  0.00  0.00    +0.000 HD
ENDBRANCH  17  20
ENDBRANCH   5  16
TORSDOF 3
ENDMDL
MODEL 9
REMARK VINA RESULT:      -7.5      4.960      6.605
REMARK  Name = 
REMARK  3 active torsions:
REMARK  status: ('A' for Active; 'I' for Inactive)
REMARK    1  A    between atoms: C_4  and  C_5
REMARK    2  A    between atoms: C_9  and  N_10
REMARK    3  A    between atoms: C_11  and  C_13
REMARK                            x       y       z     vdW  Elec       q    Type
REMARK                         _______ _______ _______ _____ _____    ______ ____
ROOT
ATOM      1  C   UNL     1       4.358   5.025  17.494  0.00  0.00    +0.000 A 
ATOM      2  C   UNL     1       3.620   3.848  17.666  0.00  0.00    +0.000 A 
ATOM      3  C   UNL     1       2.353   3.888  18.241  0.00  0.00    +0.000 A 
ATOM      4  C   UNL     1       1.822   5.102  18.669  0.00  0.00    +0.000 A 
ATOM      5  C   UNL     1       2.551   6.291  18.554  0.00  0.00    +0.000 A 
ATOM      6  C   UNL     1       3.816   6.243  17.949  0.00  0.00    +0.000 A 
ENDROOT
BRANCH   1  10
ATOM      7  N   UNL     1       7.719   5.322  14.071  0.00  0.00    +0.000 N 
ATOM      8  C   UNL     1       7.087   5.152  15.236  0.00  0.00    +0.000 A 
ATOM      9  N   UNL     1       5.830   5.394  15.507  0.00  0.00    +0.000 NA
ATOM     10  C   UNL     1       5.650   5.010  16.819  0.00  0.00    +0.000 A 
ATOM     11  C   UNL     1       6.842   4.559  17.348  0.00  0.00    +0.000 A 
ATOM     12  N   UNL     1       7.743   4.652  16.324  0.00  0.00    +0.000 N 
ATOM     13  H   UNL     1       7.222   5.857  13.365  0.00  0.00    +0.000 HD
ATOM     14  H   UNL     1       8.727   5.376  13.999  0.00  0.00    +0.000 HD
ATOM     15  H   UNL     1       8.709   4.362  16.342  0.00  0.00    +0.000 HD
ENDBRANCH   1  10
BRANCH   5  16
ATOM     16  N   UNL     1       2.055   7.541  18.997  0.00  0.00    +0.000 N 
ATOM     17  C   UNL     1       1.940   8.680  18.219  0.00  0.00    +0.000 C 
ATOM     18  O   UNL     1       2.173   8.733  17.015  0.00  0.00    +0.000 OA
ATOM     19  H   UNL     1       1.700   7.580  19.942  0.00  0.00    +0.000 HD
BRANCH  17  20
ATOM     20  C   UNL     1       1.497   9.889  18.898  0.00  0.00    +0.000 A 
ATOM     21  C   UNL     1       0.853  10.137  20.099  0.00  0.00    +0.000 A 
ATOM     22  C   UNL     1       0.743  11.559  20.202  0.00  0.00    +0.000 A 
ATOM     23  S   UNL     1       0.141  12.768  21.287  0.00  0.00    +0.000 S 
ATOM     24  C   UNL     1       0.670  14.004  20.208  0.00  0.00    +0.000 A 
ATOM     25  C   UNL     1       1.266  13.531  19.059  0.00  0.00    +0.000 A 
ATOM     26  C   UNL     1       1.295  12.113  19.088  0.00  0.00    +0.000 A 
ATOM     27  N   UNL     1       1.742  11.104  18.286  0.00  0.00    +0.000 N 
ATOM     28  H   UNL     1       2.198  11.236  17.392  0.00  0.00    +0.000 HD
ENDBRANCH  17  20
ENDBRANCH   5  16
TORSDOF 3
ENDMDL
