MODEL 1
REMARK VINA RESULT:      -7.6      0.000      0.000
REMARK  Name = 
REMARK  5 active torsions:
REMARK  status: ('A' for Active; 'I' for Inactive)
REMARK    1  A    between atoms: C_2  and  C_3
REMARK    2  A    between atoms: C_10  and  C_11
REMARK    3  A    between atoms: C_17  and  S_18
REMARK    4  A    between atoms: S_18  and  C_19
REMARK    5  A    between atoms: C_19  and  C_20
REMARK                            x       y       z     vdW  Elec       q    Type
REMARK                         _______ _______ _______ _____ _____    ______ ____
ROOT
ATOM      1  O   UNL     1       5.126   6.232  19.347  0.00  0.00    +0.000 OA
ATOM      2  C   UNL     1       5.086   5.308  18.536  0.00  0.00    +0.000 C 
ATOM      3  N   UNL     1       5.962   5.404  17.428  0.00  0.00    +0.000 N 
ATOM      4  N   UNL     1       5.668   4.753  16.259  0.00  0.00    +0.000 NA
ATOM      5  C   UNL     1       6.668   5.129  15.454  0.00  0.00    +0.000 A 
ATOM      6  N   UNL     1       7.578   5.976  16.027  0.00  0.00    +0.000 NA
ATOM      7  C   UNL     1       7.105   6.163  17.236  0.00  0.00    +0.000 A 
ENDROOT
BRANCH   2   8
ATOM      8  C   UNL     1       4.138   4.209  18.714  0.00  0.00    +0.000 A 
ATOM      9  C   UNL     1       4.414   2.951  19.219  0.00  0.00    +0.000 A 
ATOM     10  C   UNL     1       3.287   2.074  19.160  0.00  0.00    +0.000 A 
ATOM     11  C   UNL     1       2.197   2.684  18.586  0.00  0.00    +0.000 A 
ATOM     12  S   UNL     1       2.527   4.302  18.139  0.00  0.00    +0.000 S 
ENDBRANCH   2   8
BRANCH   5  13
ATOM     13  C   UNL     1       6.781   4.684  14.032  0.00  0.00    +0.000 A 
ATOM     14  C   UNL     1       6.080   3.648  13.440  0.00  0.00    +0.000 A 
ATOM     15  C   UNL     1       6.493   3.595  12.086  0.00  0.00    +0.000 A 
ATOM     16  C   UNL     1       7.431   4.587  11.935  0.00  0.00    +0.000 A 
ATOM     17  O   UNL     1       7.599   5.264  13.099  0.00  0.00    +0.000 OA
ENDBRANCH   5  13
BRANCH   7  18
ATOM     18  S   UNL     1       7.884   7.133  18.443  0.00  0.00    +0.000 S 
BRANCH  18  19
ATOM     19  C   UNL     1       7.805   8.779  17.668  0.00  0.00    +0.000 C 
BRANCH  19  20
ATOM     20  C   UNL     1       8.744   9.752  18.344  0.00  0.00    +0.000 A 
ATOM     21  C   UNL     1       8.898   9.745  19.738  0.00  0.00    +0.000 A 
ATOM     22  C   UNL     1       9.739  10.667  20.366  0.00  0.00    +0.000 A 
ATOM     23  C   UNL     1      10.436  11.606  19.610  0.00  0.00    +0.000 A 
ATOM     24  C   UNL     1      10.295  11.623  18.222  0.00  0.00    +0.000 A 
ATOM     25  C   UNL     1       9.455  10.701  17.592  0.00  0.00    +0.000 A 
ENDBRANCH  19  20
ENDBRANCH  18  19
ENDBRANCH   7  18
TORSDOF 5
ENDMDL
MODEL 2
REMARK VINA RESULT:      -7.6      4.091      6.680
REMARK  Name = 
REMARK  5 active torsions:
REMARK  status: ('A' for Active; 'I' for Inactive)
REMARK    1  A    between atoms: C_2  and  C_3
REMARK    2  A    between atoms: C_10  and  C_11
REMARK    3  A    between atoms: C_17  and  S_18
REMARK    4  A    between atoms: S_18  and  C_19
REMARK    5  A    between atoms: C_19  and  C_20
REMARK                            x       y       z     vdW  Elec       q    Type
REMARK                         _______ _______ _______ _____ _____    ______ ____
ROOT
ATOM      1  O   UNL     1       5.226   3.726  19.104  0.00  0.00    +0.000 OA
ATOM      2  C   UNL     1       4.087   4.188  19.130  0.00  0.00    +0.000 C 
ATOM      3  N   UNL     1       3.912   5.469  18.552  0.00  0.00    +0.000 N 
ATOM      4  N   UNL     1       2.876   6.269  18.953  0.00  0.00    +0.000 NA
ATOM      5  C   UNL     1       3.080   7.388  18.248  0.00  0.00    +0.000 A 
ATOM      6  N   UNL     1       4.175   7.357  17.428  0.00  0.00    +0.000 NA
ATOM      7  C   UNL     1       4.697   6.176  17.656  0.00  0.00    +0.000 A 
ENDROOT
BRANCH   2   8
ATOM      8  C   UNL     1       3.003   3.446  19.773  0.00  0.00    +0.000 A 
ATOM      9  C   UNL     1       2.084   2.618  19.153  0.00  0.00    +0.000 A 
ATOM     10  C   UNL     1       1.088   2.129  20.054  0.00  0.00    +0.000 A 
ATOM     11  C   UNL     1       1.264   2.623  21.325  0.00  0.00    +0.000 A 
ATOM     12  S   UNL     1       2.626   3.652  21.433  0.00  0.00    +0.000 S 
ENDBRANCH   2   8
BRANCH   5  13
ATOM     13  C   UNL     1       2.202   8.592  18.356  0.00  0.00    +0.000 A 
ATOM     14  C   UNL     1       1.402   8.928  19.435  0.00  0.00    +0.000 A 
ATOM     15  C   UNL     1       0.763  10.148  19.107  0.00  0.00    +0.000 A 
ATOM     16  C   UNL     1       1.194  10.477  17.845  0.00  0.00    +0.000 A 
ATOM     17  O   UNL     1       2.078   9.554  17.390  0.00  0.00    +0.000 OA
ENDBRANCH   5  13
BRANCH   7  18
ATOM     18  S   UNL     1       6.104   5.564  16.849  0.00  0.00    +0.000 S 
BRANCH  18  19
ATOM     19  C   UNL     1       5.355   4.335  15.733  0.00  0.00    +0.000 C 
BRANCH  19  20
ATOM     20  C   UNL     1       6.028   4.338  14.379  0.00  0.00    +0.000 A 
ATOM     21  C   UNL     1       5.556   3.518  13.344  0.00  0.00    +0.000 A 
ATOM     22  C   UNL     1       6.199   3.496  12.104  0.00  0.00    +0.000 A 
ATOM     23  C   UNL     1       7.321   4.290  11.883  0.00  0.00    +0.000 A 
ATOM     24  C   UNL     1       7.800   5.114  12.902  0.00  0.00    +0.000 A 
ATOM     25  C   UNL     1       7.158   5.139  14.143  0.00  0.00    +0.000 A 
ENDBRANCH  19  20
ENDBRANCH  18  19
ENDBRANCH   7  18
TORSDOF 5
ENDMDL
MODEL 3
REMARK VINA RESULT:      -7.6      0.831      1.320
REMARK  Name = 
REMARK  5 active torsions:
REMARK  status: ('A' for Active; 'I' for Inactive)
REMARK    1  A    between atoms: C_2  and  C_3
REMARK    2  A    between atoms: C_10  and  C_11
REMARK    3  A    between atoms: C_17  and  S_18
REMARK    4  A    between atoms: S_18  and  C_19
REMARK    5  A    between atoms: C_19  and  C_20
REMARK                            x       y       z     vdW  Elec       q    Type
REMARK                         _______ _______ _______ _____ _____    ______ ____
ROOT
ATOM      1  O   UNL     1       4.881   6.178  19.025  0.00  0.00    +0.000 OA
ATOM      2  C   UNL     1       4.831   5.226  18.248  0.00  0.00    +0.000 C 
ATOM      3  N   UNL     1       5.727   5.259  17.152  0.00  0.00    +0.000 N 
ATOM      4  N   UNL     1       5.435   4.572  16.004  0.00  0.00    +0.000 NA
ATOM      5  C   UNL     1       6.456   4.894  15.202  0.00  0.00    +0.000 A 
ATOM      6  N   UNL     1       7.377   5.740  15.758  0.00  0.00    +0.000 NA
ATOM      7  C   UNL     1       6.890   5.984  16.952  0.00  0.00    +0.000 A 
ENDROOT
BRANCH   2   8
ATOM      8  C   UNL     1       3.854   4.157  18.452  0.00  0.00    +0.000 A 
ATOM      9  C   UNL     1       2.556   4.119  17.974  0.00  0.00    +0.000 A 
ATOM     10  C   UNL     1       1.830   2.981  18.443  0.00  0.00    +0.000 A 
ATOM     11  C   UNL     1       2.589   2.204  19.286  0.00  0.00    +0.000 A 
ATOM     12  S   UNL     1       4.166   2.833  19.495  0.00  0.00    +0.000 S 
ENDBRANCH   2   8
BRANCH   5  13
ATOM     13  C   UNL     1       6.581   4.394  13.800  0.00  0.00    +0.000 A 
ATOM     14  C   UNL     1       5.811   3.407  13.211  0.00  0.00    +0.000 A 
ATOM     15  C   UNL     1       6.267   3.272  11.877  0.00  0.00    +0.000 A 
ATOM     16  C   UNL     1       7.298   4.169  11.734  0.00  0.00    +0.000 A 
ATOM     17  O   UNL     1       7.483   4.866  12.884  0.00  0.00    +0.000 OA
ENDBRANCH   5  13
BRANCH   7  18
ATOM     18  S   UNL     1       7.673   6.980  18.135  0.00  0.00    +0.000 S 
BRANCH  18  19
ATOM     19  C   UNL     1       7.300   8.642  17.490  0.00  0.00    +0.000 C 
BRANCH  19  20
ATOM     20  C   UNL     1       8.202   9.687  18.106  0.00  0.00    +0.000 A 
ATOM     21  C   UNL     1       8.291  10.971  17.550  0.00  0.00    +0.000 A 
ATOM     22  C   UNL     1       9.150  11.926  18.098  0.00  0.00    +0.000 A 
ATOM     23  C   UNL     1       9.931  11.610  19.207  0.00  0.00    +0.000 A 
ATOM     24  C   UNL     1       9.850  10.337  19.773  0.00  0.00    +0.000 A 
ATOM     25  C   UNL     1       8.990   9.381  19.227  0.00  0.00    +0.000 A 
ENDBRANCH  19  20
ENDBRANCH  18  19
ENDBRANCH   7  18
TORSDOF 5
ENDMDL
MODEL 4
REMARK VINA RESULT:      -7.5      4.143      6.877
REMARK  Name = 
REMARK  5 active torsions:
REMARK  status: ('A' for Active; 'I' for Inactive)
REMARK    1  A    between atoms: C_2  and  C_3
REMARK    2  A    between atoms: C_10  and  C_11
REMARK    3  A    between atoms: C_17  and  S_18
REMARK    4  A    between atoms: S_18  and  C_19
REMARK    5  A    between atoms: C_19  and  C_20
REMARK                            x       y       z     vdW  Elec       q    Type
REMARK                         _______ _______ _______ _____ _____    ______ ____
ROOT
ATOM      1  O   UNL     1       5.100   3.858  18.917  0.00  0.00    +0.000 OA
ATOM      2  C   UNL     1       3.953   4.288  19.032  0.00  0.00    +0.000 C 
ATOM      3  N   UNL     1       3.719   5.598  18.551  0.00  0.00    +0.000 N 
ATOM      4  N   UNL     1       2.688   6.344  19.057  0.00  0.00    +0.000 NA
ATOM      5  C   UNL     1       2.829   7.512  18.420  0.00  0.00    +0.000 A 
ATOM      6  N   UNL     1       3.880   7.563  17.544  0.00  0.00    +0.000 NA
ATOM      7  C   UNL     1       4.440   6.383  17.665  0.00  0.00    +0.000 A 
ENDROOT
BRANCH   2   8
ATOM      8  C   UNL     1       2.922   3.477  19.679  0.00  0.00    +0.000 A 
ATOM      9  C   UNL     1       1.963   2.702  19.051  0.00  0.00    +0.000 A 
ATOM     10  C   UNL     1       1.037   2.120  19.971  0.00  0.00    +0.000 A 
ATOM     11  C   UNL     1       1.304   2.493  21.268  0.00  0.00    +0.000 A 
ATOM     12  S   UNL     1       2.668   3.521  21.373  0.00  0.00    +0.000 S 
ENDBRANCH   2   8
BRANCH   5  13
ATOM     13  C   UNL     1       1.931   8.682  18.654  0.00  0.00    +0.000 A 
ATOM     14  C   UNL     1       1.713   9.734  17.782  0.00  0.00    +0.000 A 
ATOM     15  C   UNL     1       0.782  10.599  18.407  0.00  0.00    +0.000 A 
ATOM     16  C   UNL     1       0.500  10.037  19.628  0.00  0.00    +0.000 A 
ATOM     17  O   UNL     1       1.174   8.868  19.779  0.00  0.00    +0.000 OA
ENDBRANCH   5  13
BRANCH   7  18
ATOM     18  S   UNL     1       5.815   5.863  16.748  0.00  0.00    +0.000 S 
BRANCH  18  19
ATOM     19  C   UNL     1       5.058   4.601  15.674  0.00  0.00    +0.000 C 
BRANCH  19  20
ATOM     20  C   UNL     1       5.838   4.430  14.390  0.00  0.00    +0.000 A 
ATOM     21  C   UNL     1       7.049   5.109  14.194  0.00  0.00    +0.000 A 
ATOM     22  C   UNL     1       7.753   4.978  12.995  0.00  0.00    +0.000 A 
ATOM     23  C   UNL     1       7.255   4.169  11.977  0.00  0.00    +0.000 A 
ATOM     24  C   UNL     1       6.053   3.485  12.159  0.00  0.00    +0.000 A 
ATOM     25  C   UNL     1       5.348   3.613  13.358  0.00  0.00    +0.000 A 
ENDBRANCH  19  20
ENDBRANCH  18  19
ENDBRANCH   7  18
TORSDOF 5
ENDMDL
MODEL 5
REMARK VINA RESULT:      -7.5      0.819      1.016
REMARK  Name = 
REMARK  5 active torsions:
REMARK  status: ('A' for Active; 'I' for Inactive)
REMARK    1  A    between atoms: C_2  and  C_3
REMARK    2  A    between atoms: C_10  and  C_11
REMARK    3  A    between atoms: C_17  and  S_18
REMARK    4  A    between atoms: S_18  and  C_19
REMARK    5  A    between atoms: C_19  and  C_20
REMARK                            x       y       z     vdW  Elec       q    Type
REMARK                         _______ _______ _______ _____ _____    ______ ____
ROOT
ATOM      1  O   UNL     1       4.848   6.514  18.982  0.00  0.00    +0.000 OA
ATOM      2  C   UNL     1       4.747   5.546  18.230  0.00  0.00    +0.000 C 
ATOM      3  N   UNL     1       5.669   5.482  17.157  0.00  0.00    +0.000 N 
ATOM      4  N   UNL     1       5.355   4.785  16.020  0.00  0.00    +0.000 NA
ATOM      5  C   UNL     1       6.416   5.010  15.236  0.00  0.00    +0.000 A 
ATOM      6  N   UNL     1       7.383   5.803  15.793  0.00  0.00    +0.000 NA
ATOM      7  C   UNL     1       6.886   6.115  16.967  0.00  0.00    +0.000 A 
ENDROOT
BRANCH   2   8
ATOM      8  C   UNL     1       3.690   4.557  18.437  0.00  0.00    +0.000 A 
ATOM      9  C   UNL     1       2.330   4.752  18.277  0.00  0.00    +0.000 A 
ATOM     10  C   UNL     1       1.560   3.612  18.665  0.00  0.00    +0.000 A 
ATOM     11  C   UNL     1       2.358   2.595  19.134  0.00  0.00    +0.000 A 
ATOM     12  S   UNL     1       4.017   3.006  19.091  0.00  0.00    +0.000 S 
ENDBRANCH   2   8
BRANCH   5  13
ATOM     13  C   UNL     1       6.537   4.462  13.852  0.00  0.00    +0.000 A 
ATOM     14  C   UNL     1       5.745   3.477  13.288  0.00  0.00    +0.000 A 
ATOM     15  C   UNL     1       6.206   3.288  11.963  0.00  0.00    +0.000 A 
ATOM     16  C   UNL     1       7.262   4.151  11.800  0.00  0.00    +0.000 A 
ATOM     17  O   UNL     1       7.459   4.879  12.929  0.00  0.00    +0.000 OA
ENDBRANCH   5  13
BRANCH   7  18
ATOM     18  S   UNL     1       7.712   7.085  18.143  0.00  0.00    +0.000 S 
BRANCH  18  19
ATOM     19  C   UNL     1       7.367   8.759  17.514  0.00  0.00    +0.000 C 
BRANCH  19  20
ATOM     20  C   UNL     1       8.294   9.781  18.131  0.00  0.00    +0.000 A 
ATOM     21  C   UNL     1       9.031   9.473  19.284  0.00  0.00    +0.000 A 
ATOM     22  C   UNL     1       9.861  10.429  19.875  0.00  0.00    +0.000 A 
ATOM     23  C   UNL     1       9.964  11.703  19.322  0.00  0.00    +0.000 A 
ATOM     24  C   UNL     1       9.239  12.023  18.174  0.00  0.00    +0.000 A 
ATOM     25  C   UNL     1       8.410  11.068  17.581  0.00  0.00    +0.000 A 
ENDBRANCH  19  20
ENDBRANCH  18  19
ENDBRANCH   7  18
TORSDOF 5
ENDMDL
MODEL 6
REMARK VINA RESULT:      -7.5      0.678      1.230
REMARK  Name = 
REMARK  5 active torsions:
REMARK  status: ('A' for Active; 'I' for Inactive)
REMARK    1  A    between atoms: C_2  and  C_3
REMARK    2  A    between atoms: C_10  and  C_11
REMARK    3  A    between atoms: C_17  and  S_18
REMARK    4  A    between atoms: S_18  and  C_19
REMARK    5  A    between atoms: C_19  and  C_20
REMARK                            x       y       z     vdW  Elec       q    Type
REMARK                         _______ _______ _______ _____ _____    ______ ____
ROOT
ATOM      1  O   UNL     1       5.135   6.172  19.262  0.00  0.00    +0.000 OA
ATOM      2  C   UNL     1       5.090   5.223  18.481  0.00  0.00    +0.000 C 
ATOM      3  N   UNL     1       5.931   5.301  17.345  0.00  0.00    +0.000 N 
ATOM      4  N   UNL     1       5.617   4.609  16.206  0.00  0.00    +0.000 NA
ATOM      5  C   UNL     1       6.585   4.979  15.360  0.00  0.00    +0.000 A 
ATOM      6  N   UNL     1       7.493   5.862  15.880  0.00  0.00    +0.000 NA
ATOM      7  C   UNL     1       7.052   6.077  17.097  0.00  0.00    +0.000 A 
ENDROOT
BRANCH   2   8
ATOM      8  C   UNL     1       4.171   4.111  18.721  0.00  0.00    +0.000 A 
ATOM      9  C   UNL     1       4.485   2.878  19.265  0.00  0.00    +0.000 A 
ATOM     10  C   UNL     1       3.377   1.976  19.264  0.00  0.00    +0.000 A 
ATOM     11  C   UNL     1       2.261   2.542  18.692  0.00  0.00    +0.000 A 
ATOM     12  S   UNL     1       2.545   4.149  18.179  0.00  0.00    +0.000 S 
ENDBRANCH   2   8
BRANCH   5  13
ATOM     13  C   UNL     1       6.665   4.493  13.950  0.00  0.00    +0.000 A 
ATOM     14  C   UNL     1       7.542   4.942  12.978  0.00  0.00    +0.000 A 
ATOM     15  C   UNL     1       7.273   4.194  11.806  0.00  0.00    +0.000 A 
ATOM     16  C   UNL     1       6.239   3.347  12.123  0.00  0.00    +0.000 A 
ATOM     17  O   UNL     1       5.877   3.506  13.422  0.00  0.00    +0.000 OA
ENDBRANCH   5  13
BRANCH   7  18
ATOM     18  S   UNL     1       7.846   7.098  18.250  0.00  0.00    +0.000 S 
BRANCH  18  19
ATOM     19  C   UNL     1       7.443   8.746  17.587  0.00  0.00    +0.000 C 
BRANCH  19  20
ATOM     20  C   UNL     1       8.334   9.812  18.182  0.00  0.00    +0.000 A 
ATOM     21  C   UNL     1       8.479  11.057  17.552  0.00  0.00    +0.000 A 
ATOM     22  C   UNL     1       9.329  12.029  18.083  0.00  0.00    +0.000 A 
ATOM     23  C   UNL     1      10.046  11.771  19.249  0.00  0.00    +0.000 A 
ATOM     24  C   UNL     1       9.909  10.539  19.888  0.00  0.00    +0.000 A 
ATOM     25  C   UNL     1       9.058   9.565  19.360  0.00  0.00    +0.000 A 
ENDBRANCH  19  20
ENDBRANCH  18  19
ENDBRANCH   7  18
TORSDOF 5
ENDMDL
MODEL 7
REMARK VINA RESULT:      -7.4      4.072      6.711
REMARK  Name = 
REMARK  5 active torsions:
REMARK  status: ('A' for Active; 'I' for Inactive)
REMARK    1  A    between atoms: C_2  and  C_3
REMARK    2  A    between atoms: C_10  and  C_11
REMARK    3  A    between atoms: C_17  and  S_18
REMARK    4  A    between atoms: S_18  and  C_19
REMARK    5  A    between atoms: C_19  and  C_20
REMARK                            x       y       z     vdW  Elec       q    Type
REMARK                         _______ _______ _______ _____ _____    ______ ____
ROOT
ATOM      1  O   UNL     1       5.252   3.820  19.063  0.00  0.00    +0.000 OA
ATOM      2  C   UNL     1       4.108   4.269  19.124  0.00  0.00    +0.000 C 
ATOM      3  N   UNL     1       3.900   5.545  18.548  0.00  0.00    +0.000 N 
ATOM      4  N   UNL     1       2.868   6.335  18.980  0.00  0.00    +0.000 NA
ATOM      5  C   UNL     1       3.036   7.454  18.265  0.00  0.00    +0.000 A 
ATOM      6  N   UNL     1       4.104   7.432  17.410  0.00  0.00    +0.000 NA
ATOM      7  C   UNL     1       4.648   6.257  17.625  0.00  0.00    +0.000 A 
ENDROOT
BRANCH   2   8
ATOM      8  C   UNL     1       3.055   3.516  19.805  0.00  0.00    +0.000 A 
ATOM      9  C   UNL     1       2.813   3.476  21.166  0.00  0.00    +0.000 A 
ATOM     10  C   UNL     1       1.775   2.558  21.515  0.00  0.00    +0.000 A 
ATOM     11  C   UNL     1       1.279   1.907  20.410  0.00  0.00    +0.000 A 
ATOM     12  S   UNL     1       2.047   2.411  18.967  0.00  0.00    +0.000 S 
ENDBRANCH   2   8
BRANCH   5  13
ATOM     13  C   UNL     1       2.148   8.647  18.398  0.00  0.00    +0.000 A 
ATOM     14  C   UNL     1       1.322   8.938  19.469  0.00  0.00    +0.000 A 
ATOM     15  C   UNL     1       0.683  10.167  19.172  0.00  0.00    +0.000 A 
ATOM     16  C   UNL     1       1.140  10.545  17.934  0.00  0.00    +0.000 A 
ATOM     17  O   UNL     1       2.041   9.644  17.465  0.00  0.00    +0.000 OA
ENDBRANCH   5  13
BRANCH   7  18
ATOM     18  S   UNL     1       6.034   5.659  16.774  0.00  0.00    +0.000 S 
BRANCH  18  19
ATOM     19  C   UNL     1       5.261   4.435  15.669  0.00  0.00    +0.000 C 
BRANCH  19  20
ATOM     20  C   UNL     1       5.994   4.343  14.350  0.00  0.00    +0.000 A 
ATOM     21  C   UNL     1       7.158   5.093  14.126  0.00  0.00    +0.000 A 
ATOM     22  C   UNL     1       7.816   5.034  12.895  0.00  0.00    +0.000 A 
ATOM     23  C   UNL     1       7.320   4.227  11.874  0.00  0.00    +0.000 A 
ATOM     24  C   UNL     1       6.165   3.473  12.084  0.00  0.00    +0.000 A 
ATOM     25  C   UNL     1       5.506   3.529  13.315  0.00  0.00    +0.000 A 
ENDBRANCH  19  20
ENDBRANCH  18  19
ENDBRANCH   7  18
TORSDOF 5
ENDMDL
MODEL 8
REMARK VINA RESULT:      -7.3      4.165      6.825
REMARK  Name = 
REMARK  5 active torsions:
REMARK  status: ('A' for Active; 'I' for Inactive)
REMARK    1  A    between atoms: C_2  and  C_3
REMARK    2  A    between atoms: C_10  and  C_11
REMARK    3  A    between atoms: C_17  and  S_18
REMARK    4  A    between atoms: S_18  and  C_19
REMARK    5  A    between atoms: C_19  and  C_20
REMARK                            x       y       z     vdW  Elec       q    Type
REMARK                         _______ _______ _______ _____ _____    ______ ____
ROOT
ATOM      1  O   UNL     1       5.114   3.828  19.258  0.00  0.00    +0.000 OA
ATOM      2  C   UNL     1       3.967   4.266  19.338  0.00  0.00    +0.000 C 
ATOM      3  N   UNL     1       3.738   5.541  18.767  0.00  0.00    +0.000 N 
ATOM      4  N   UNL     1       2.706   6.321  19.217  0.00  0.00    +0.000 NA
ATOM      5  C   UNL     1       2.853   7.443  18.502  0.00  0.00    +0.000 A 
ATOM      6  N   UNL     1       3.908   7.433  17.631  0.00  0.00    +0.000 NA
ATOM      7  C   UNL     1       4.466   6.263  17.835  0.00  0.00    +0.000 A 
ENDROOT
BRANCH   2   8
ATOM      8  C   UNL     1       2.932   3.502  20.032  0.00  0.00    +0.000 A 
ATOM      9  C   UNL     1       2.758   3.396  21.401  0.00  0.00    +0.000 A 
ATOM     10  C   UNL     1       1.716   2.483  21.755  0.00  0.00    +0.000 A 
ATOM     11  C   UNL     1       1.149   1.903  20.644  0.00  0.00    +0.000 A 
ATOM     12  S   UNL     1       1.856   2.465  19.192  0.00  0.00    +0.000 S 
ENDBRANCH   2   8
BRANCH   5  13
ATOM     13  C   UNL     1       1.956   8.628  18.651  0.00  0.00    +0.000 A 
ATOM     14  C   UNL     1       1.496   9.441  17.630  0.00  0.00    +0.000 A 
ATOM     15  C   UNL     1       0.668  10.422  18.228  0.00  0.00    +0.000 A 
ATOM     16  C   UNL     1       0.684  10.163  19.577  0.00  0.00    +0.000 A 
ATOM     17  O   UNL     1       1.443   9.070  19.842  0.00  0.00    +0.000 OA
ENDBRANCH   5  13
BRANCH   7  18
ATOM     18  S   UNL     1       5.845   5.680  16.962  0.00  0.00    +0.000 S 
BRANCH  18  19
ATOM     19  C   UNL     1       5.063   4.468  15.849  0.00  0.00    +0.000 C 
BRANCH  19  20
ATOM     20  C   UNL     1       5.785   4.392  14.523  0.00  0.00    +0.000 A 
ATOM     21  C   UNL     1       5.250   3.651  13.460  0.00  0.00    +0.000 A 
ATOM     22  C   UNL     1       5.934   3.553  12.246  0.00  0.00    +0.000 A 
ATOM     23  C   UNL     1       7.160   4.192  12.080  0.00  0.00    +0.000 A 
ATOM     24  C   UNL     1       7.703   4.936  13.128  0.00  0.00    +0.000 A 
ATOM     25  C   UNL     1       7.020   5.036  14.343  0.00  0.00    +0.000 A 
ENDBRANCH  19  20
ENDBRANCH  18  19
ENDBRANCH   7  18
TORSDOF 5
ENDMDL
MODEL 9
REMARK VINA RESULT:      -7.0      4.269      7.356
REMARK  Name = 
REMARK  5 active torsions:
REMARK  status: ('A' for Active; 'I' for Inactive)
REMARK    1  A    between atoms: C_2  and  C_3
REMARK    2  A    between atoms: C_10  and  C_11
REMARK    3  A    between atoms: C_17  and  S_18
REMARK    4  A    between atoms: S_18  and  C_19
REMARK    5  A    between atoms: C_19  and  C_20
REMARK                            x       y       z     vdW  Elec       q    Type
REMARK                         _______ _______ _______ _____ _____    ______ ____
ROOT
ATOM      1  O   UNL     1       2.562   8.696  17.026  0.00  0.00    +0.000 OA
ATOM      2  C   UNL     1       2.270   8.288  18.148  0.00  0.00    +0.000 C 
ATOM      3  N   UNL     1       2.774   7.014  18.507  0.00  0.00    +0.000 N 
ATOM      4  N   UNL     1       2.134   6.264  19.458  0.00  0.00    +0.000 NA
ATOM      5  C   UNL     1       2.851   5.134  19.470  0.00  0.00    +0.000 A 
ATOM      6  N   UNL     1       3.900   5.111  18.592  0.00  0.00    +0.000 NA
ATOM      7  C   UNL     1       3.815   6.268  17.980  0.00  0.00    +0.000 A 
ENDROOT
BRANCH   2   8
ATOM      8  C   UNL     1       1.407   9.082  19.021  0.00  0.00    +0.000 A 
ATOM      9  C   UNL     1       1.268   8.950  20.392  0.00  0.00    +0.000 A 
ATOM     10  C   UNL     1       0.261   9.810  20.929  0.00  0.00    +0.000 A 
ATOM     11  C   UNL     1      -0.355  10.549  19.946  0.00  0.00    +0.000 A 
ATOM     12  S   UNL     1       0.287  10.219  18.395  0.00  0.00    +0.000 S 
ENDBRANCH   2   8
BRANCH   5  13
ATOM     13  C   UNL     1       2.527   3.972  20.352  0.00  0.00    +0.000 A 
ATOM     14  C   UNL     1       1.296   3.695  20.922  0.00  0.00    +0.000 A 
ATOM     15  C   UNL     1       1.448   2.497  21.661  0.00  0.00    +0.000 A 
ATOM     16  C   UNL     1       2.761   2.122  21.515  0.00  0.00    +0.000 A 
ATOM     17  O   UNL     1       3.418   2.996  20.711  0.00  0.00    +0.000 OA
ENDBRANCH   5  13
BRANCH   7  18
ATOM     18  S   UNL     1       4.931   6.811  16.770  0.00  0.00    +0.000 S 
BRANCH  18  19
ATOM     19  C   UNL     1       6.083   5.401  16.705  0.00  0.00    +0.000 C 
BRANCH  19  20
ATOM     20  C   UNL     1       6.304   4.936  15.284  0.00  0.00    +0.000 A 
ATOM     21  C   UNL     1       7.417   5.376  14.552  0.00  0.00    +0.000 A 
ATOM     22  C   UNL     1       7.602   4.973  13.228  0.00  0.00    +0.000 A 
ATOM     23  C   UNL     1       6.680   4.127  12.618  0.00  0.00    +0.000 A 
ATOM     24  C   UNL     1       5.570   3.678  13.334  0.00  0.00    +0.000 A 
ATOM     25  C   UNL     1       5.383   4.079  14.660  0.00  0.00    +0.000 A 
ENDBRANCH  19  20
ENDBRANCH  18  19
ENDBRANCH   7  18
TORSDOF 5
ENDMDL
