MODEL 1
REMARK VINA RESULT:      -8.1      0.000      0.000
REMARK  Name = 
REMARK  5 active torsions:
REMARK  status: ('A' for Active; 'I' for Inactive)
REMARK    1  A    between atoms: C_1  and  C_2
REMARK    2  A    between atoms: C_6  and  N_7
REMARK    3  A    between atoms: C_10  and  O_11
REMARK    4  A    between atoms: C_20  and  C_21
REMARK    5  A    between atoms: C_21  and  O_23
REMARK                            x       y       z     vdW  Elec       q    Type
REMARK                         _______ _______ _______ _____ _____    ______ ____
ROOT
ATOM      1  C   UNL     1       2.473   2.562  19.085  0.00  0.00    +0.000 C 
ATOM      2  C   UNL     1       3.200   3.751  19.732  0.00  0.00    +0.000 C 
ATOM      3  C   UNL     1       2.309   4.363  20.789  0.00  0.00    +0.000 C 
ATOM      4  C   UNL     1       1.836   5.783  20.593  0.00  0.00    +0.000 C 
ATOM      5  C   UNL     1       2.423   6.626  19.501  0.00  0.00    +0.000 A 
ATOM      6  C   UNL     1       2.010   8.000  19.339  0.00  0.00    +0.000 A 
ATOM      7  C   UNL     1       2.595   8.704  18.257  0.00  0.00    +0.000 A 
ATOM      8  F   UNL     1       2.339  10.009  18.068  0.00  0.00    +0.000 F 
ATOM      9  C   UNL     1       3.476   8.121  17.360  0.00  0.00    +0.000 A 
ATOM     10  C   UNL     1       3.835   6.789  17.533  0.00  0.00    +0.000 A 
ATOM     11  C   UNL     1       4.793   6.208  16.561  0.00  0.00    +0.000 A 
ATOM     12  O   UNL     1       5.211   6.846  15.599  0.00  0.00    +0.000 OA
ATOM     13  C   UNL     1       5.256   4.833  16.788  0.00  0.00    +0.000 A 
ATOM     14  C   UNL     1       4.716   4.187  17.825  0.00  0.00    +0.000 A 
ATOM     15  N   UNL     1       3.745   4.662  18.707  0.00  0.00    +0.000 N 
ATOM     16  C   UNL     1       3.328   6.008  18.598  0.00  0.00    +0.000 A 
ENDROOT
BRANCH   6  17
ATOM     17  N   UNL     1       1.050   8.635  20.133  0.00  0.00    +0.000 N 
ATOM     18  C   UNL     1       0.955   8.362  21.578  0.00  0.00    +0.000 C 
ATOM     19  C   UNL     1       1.089   9.683  22.336  0.00  0.00    +0.000 C 
ATOM     20  C   UNL     1       0.141  10.769  21.823  0.00  0.00    +0.000 C 
ATOM     21  C   UNL     1       0.109  10.867  20.296  0.00  0.00    +0.000 C 
ATOM     22  C   UNL     1      -0.042   9.482  19.659  0.00  0.00    +0.000 C 
BRANCH  20  23
ATOM     23  O   UNL     1      -1.178  10.562  22.328  0.00  0.00    +0.000 OA
ATOM     24  H   UNL     1      -1.809  11.066  21.790  0.00  0.00    +0.000 HD
ENDBRANCH  20  23
ENDBRANCH   6  17
BRANCH  13  25
ATOM     25  C   UNL     1       6.253   4.147  15.940  0.00  0.00    +0.000 C 
ATOM     26  O   UNL     1       5.978   3.204  15.211  0.00  0.00    +0.000 OA
BRANCH  25  27
ATOM     27  O   UNL     1       7.504   4.647  16.026  0.00  0.00    +0.000 OA
ATOM     28  H   UNL     1       8.099   4.130  16.624  0.00  0.00    +0.000 HD
ENDBRANCH  25  27
ENDBRANCH  13  25
TORSDOF 4
ENDMDL
MODEL 2
REMARK VINA RESULT:      -8.0      2.560      3.900
REMARK  Name = 
REMARK  5 active torsions:
REMARK  status: ('A' for Active; 'I' for Inactive)
REMARK    1  A    between atoms: C_1  and  C_2
REMARK    2  A    between atoms: C_6  and  N_7
REMARK    3  A    between atoms: C_10  and  O_11
REMARK    4  A    between atoms: C_20  and  C_21
REMARK    5  A    between atoms: C_21  and  O_23
REMARK                            x       y       z     vdW  Elec       q    Type
REMARK                         _______ _______ _______ _____ _____    ______ ____
ROOT
ATOM      1  C   UNL     1       6.494   5.970  17.486  0.00  0.00    +0.000 C 
ATOM      2  C   UNL     1       4.993   5.866  17.173  0.00  0.00    +0.000 C 
ATOM      3  C   UNL     1       4.476   7.225  16.761  0.00  0.00    +0.000 C 
ATOM      4  C   UNL     1       3.437   7.891  17.629  0.00  0.00    +0.000 C 
ATOM      5  C   UNL     1       2.779   7.123  18.736  0.00  0.00    +0.000 A 
ATOM      6  C   UNL     1       1.750   7.740  19.539  0.00  0.00    +0.000 A 
ATOM      7  C   UNL     1       1.213   6.945  20.583  0.00  0.00    +0.000 A 
ATOM      8  F   UNL     1       0.197   7.395  21.336  0.00  0.00    +0.000 F 
ATOM      9  C   UNL     1       1.664   5.666  20.871  0.00  0.00    +0.000 A 
ATOM     10  C   UNL     1       2.671   5.111  20.091  0.00  0.00    +0.000 A 
ATOM     11  C   UNL     1       3.113   3.735  20.422  0.00  0.00    +0.000 A 
ATOM     12  O   UNL     1       2.661   3.121  21.385  0.00  0.00    +0.000 OA
ATOM     13  C   UNL     1       4.107   3.100  19.547  0.00  0.00    +0.000 A 
ATOM     14  C   UNL     1       4.588   3.850  18.552  0.00  0.00    +0.000 A 
ATOM     15  N   UNL     1       4.271   5.177  18.260  0.00  0.00    +0.000 N 
ATOM     16  C   UNL     1       3.253   5.813  19.008  0.00  0.00    +0.000 A 
ENDROOT
BRANCH   6  17
ATOM     17  N   UNL     1       1.311   9.058  19.384  0.00  0.00    +0.000 N 
ATOM     18  C   UNL     1       0.870   9.564  18.073  0.00  0.00    +0.000 C 
ATOM     19  C   UNL     1      -0.556  10.101  18.210  0.00  0.00    +0.000 C 
ATOM     20  C   UNL     1      -0.718  11.087  19.368  0.00  0.00    +0.000 C 
ATOM     21  C   UNL     1      -0.049  10.613  20.660  0.00  0.00    +0.000 C 
ATOM     22  C   UNL     1       1.374  10.116  20.391  0.00  0.00    +0.000 C 
BRANCH  20  23
ATOM     23  O   UNL     1      -0.222  12.375  19.003  0.00  0.00    +0.000 OA
ATOM     24  H   UNL     1      -0.427  13.008  19.709  0.00  0.00    +0.000 HD
ENDBRANCH  20  23
ENDBRANCH   6  17
BRANCH  13  25
ATOM     25  C   UNL     1       4.593   1.716  19.717  0.00  0.00    +0.000 C 
ATOM     26  O   UNL     1       5.267   1.354  20.672  0.00  0.00    +0.000 OA
BRANCH  25  27
ATOM     27  O   UNL     1       4.229   0.866  18.732  0.00  0.00    +0.000 OA
ATOM     28  H   UNL     1       3.284   0.581  18.781  0.00  0.00    +0.000 HD
ENDBRANCH  25  27
ENDBRANCH  13  25
TORSDOF 4
ENDMDL
MODEL 3
REMARK VINA RESULT:      -7.4      0.990      1.102
REMARK  Name = 
REMARK  5 active torsions:
REMARK  status: ('A' for Active; 'I' for Inactive)
REMARK    1  A    between atoms: C_1  and  C_2
REMARK    2  A    between atoms: C_6  and  N_7
REMARK    3  A    between atoms: C_10  and  O_11
REMARK    4  A    between atoms: C_20  and  C_21
REMARK    5  A    between atoms: C_21  and  O_23
REMARK                            x       y       z     vdW  Elec       q    Type
REMARK                         _______ _______ _______ _____ _____    ______ ____
ROOT
ATOM      1  C   UNL     1       3.323   2.114  18.442  0.00  0.00    +0.000 C 
ATOM      2  C   UNL     1       4.013   3.287  19.155  0.00  0.00    +0.000 C 
ATOM      3  C   UNL     1       3.248   3.621  20.416  0.00  0.00    +0.000 C 
ATOM      4  C   UNL     1       2.597   4.978  20.522  0.00  0.00    +0.000 C 
ATOM      5  C   UNL     1       2.898   6.037  19.504  0.00  0.00    +0.000 A 
ATOM      6  C   UNL     1       2.316   7.352  19.627  0.00  0.00    +0.000 A 
ATOM      7  C   UNL     1       2.632   8.273  18.597  0.00  0.00    +0.000 A 
ATOM      8  F   UNL     1       2.207   9.545  18.658  0.00  0.00    +0.000 F 
ATOM      9  C   UNL     1       3.410   7.944  17.497  0.00  0.00    +0.000 A 
ATOM     10  C   UNL     1       3.936   6.661  17.400  0.00  0.00    +0.000 A 
ATOM     11  C   UNL     1       4.776   6.355  16.217  0.00  0.00    +0.000 A 
ATOM     12  O   UNL     1       4.957   7.172  15.318  0.00  0.00    +0.000 OA
ATOM     13  C   UNL     1       5.419   5.036  16.150  0.00  0.00    +0.000 A 
ATOM     14  C   UNL     1       5.133   4.185  17.139  0.00  0.00    +0.000 A 
ATOM     15  N   UNL     1       4.276   4.397  18.220  0.00  0.00    +0.000 N 
ATOM     16  C   UNL     1       3.702   5.678  18.390  0.00  0.00    +0.000 A 
ENDROOT
BRANCH   6  17
ATOM     17  N   UNL     1       1.438   7.736  20.645  0.00  0.00    +0.000 N 
ATOM     18  C   UNL     1       1.929   8.407  21.861  0.00  0.00    +0.000 C 
ATOM     19  C   UNL     1       1.194   9.739  22.015  0.00  0.00    +0.000 C 
ATOM     20  C   UNL     1      -0.327   9.601  21.926  0.00  0.00    +0.000 C 
ATOM     21  C   UNL     1      -0.782   8.709  20.769  0.00  0.00    +0.000 C 
ATOM     22  C   UNL     1       0.017   7.404  20.734  0.00  0.00    +0.000 C 
BRANCH  20  23
ATOM     23  O   UNL     1      -0.859   9.116  23.159  0.00  0.00    +0.000 OA
ATOM     24  H   UNL     1      -0.177   8.600  23.619  0.00  0.00    +0.000 HD
ENDBRANCH  20  23
ENDBRANCH   6  17
BRANCH  13  25
ATOM     25  C   UNL     1       6.329   4.615  15.066  0.00  0.00    +0.000 C 
ATOM     26  O   UNL     1       6.102   3.664  14.330  0.00  0.00    +0.000 OA
BRANCH  25  27
ATOM     27  O   UNL     1       7.442   5.369  14.940  0.00  0.00    +0.000 OA
ATOM     28  H   UNL     1       7.949   5.196  14.110  0.00  0.00    +0.000 HD
ENDBRANCH  25  27
ENDBRANCH  13  25
TORSDOF 4
ENDMDL
MODEL 4
REMARK VINA RESULT:      -7.3      0.724      1.102
REMARK  Name = 
REMARK  5 active torsions:
REMARK  status: ('A' for Active; 'I' for Inactive)
REMARK    1  A    between atoms: C_1  and  C_2
REMARK    2  A    between atoms: C_6  and  N_7
REMARK    3  A    between atoms: C_10  and  O_11
REMARK    4  A    between atoms: C_20  and  C_21
REMARK    5  A    between atoms: C_21  and  O_23
REMARK                            x       y       z     vdW  Elec       q    Type
REMARK                         _______ _______ _______ _____ _____    ______ ____
ROOT
ATOM      1  C   UNL     1       2.228   2.806  19.339  0.00  0.00    +0.000 C 
ATOM      2  C   UNL     1       3.050   3.972  19.909  0.00  0.00    +0.000 C 
ATOM      3  C   UNL     1       2.261   4.647  21.008  0.00  0.00    +0.000 C 
ATOM      4  C   UNL     1       1.841   6.083  20.811  0.00  0.00    +0.000 C 
ATOM      5  C   UNL     1       2.391   6.876  19.664  0.00  0.00    +0.000 A 
ATOM      6  C   UNL     1       2.031   8.264  19.499  0.00  0.00    +0.000 A 
ATOM      7  C   UNL     1       2.573   8.919  18.364  0.00  0.00    +0.000 A 
ATOM      8  F   UNL     1       2.365  10.230  18.163  0.00  0.00    +0.000 F 
ATOM      9  C   UNL     1       3.365   8.277  17.424  0.00  0.00    +0.000 A 
ATOM     10  C   UNL     1       3.673   6.934  17.603  0.00  0.00    +0.000 A 
ATOM     11  C   UNL     1       4.536   6.289  16.584  0.00  0.00    +0.000 A 
ATOM     12  O   UNL     1       4.917   6.888  15.582  0.00  0.00    +0.000 OA
ATOM     13  C   UNL     1       4.950   4.898  16.811  0.00  0.00    +0.000 A 
ATOM     14  C   UNL     1       4.453   4.299  17.896  0.00  0.00    +0.000 A 
ATOM     15  N   UNL     1       3.566   4.836  18.829  0.00  0.00    +0.000 N 
ATOM     16  C   UNL     1       3.204   6.199  18.718  0.00  0.00    +0.000 A 
ENDROOT
BRANCH   6  17
ATOM     17  N   UNL     1       1.156   8.959  20.340  0.00  0.00    +0.000 N 
ATOM     18  C   UNL     1      -0.303   8.868  20.163  0.00  0.00    +0.000 C 
ATOM     19  C   UNL     1      -0.926   8.385  21.474  0.00  0.00    +0.000 C 
ATOM     20  C   UNL     1      -0.475   9.199  22.688  0.00  0.00    +0.000 C 
ATOM     21  C   UNL     1       1.033   9.457  22.712  0.00  0.00    +0.000 C 
ATOM     22  C   UNL     1       1.529   9.948  21.350  0.00  0.00    +0.000 C 
BRANCH  20  23
ATOM     23  O   UNL     1      -1.185  10.435  22.755  0.00  0.00    +0.000 OA
ATOM     24  H   UNL     1      -0.596  11.157  22.485  0.00  0.00    +0.000 HD
ENDBRANCH  20  23
ENDBRANCH   6  17
BRANCH  13  25
ATOM     25  C   UNL     1       5.856   4.150  15.915  0.00  0.00    +0.000 C 
ATOM     26  O   UNL     1       5.524   3.750  14.808  0.00  0.00    +0.000 OA
BRANCH  25  27
ATOM     27  O   UNL     1       7.094   3.942  16.412  0.00  0.00    +0.000 OA
ATOM     28  H   UNL     1       7.820   4.180  15.784  0.00  0.00    +0.000 HD
ENDBRANCH  25  27
ENDBRANCH  13  25
TORSDOF 4
ENDMDL
MODEL 5
REMARK VINA RESULT:      -7.2      4.976      7.905
REMARK  Name = 
REMARK  5 active torsions:
REMARK  status: ('A' for Active; 'I' for Inactive)
REMARK    1  A    between atoms: C_1  and  C_2
REMARK    2  A    between atoms: C_6  and  N_7
REMARK    3  A    between atoms: C_10  and  O_11
REMARK    4  A    between atoms: C_20  and  C_21
REMARK    5  A    between atoms: C_21  and  O_23
REMARK                            x       y       z     vdW  Elec       q    Type
REMARK                         _______ _______ _______ _____ _____    ______ ____
ROOT
ATOM      1  C   UNL     1      -0.341  10.043  23.165  0.00  0.00    +0.000 C 
ATOM      2  C   UNL     1      -0.484  11.350  22.371  0.00  0.00    +0.000 C 
ATOM      3  C   UNL     1      -1.495  12.240  23.058  0.00  0.00    +0.000 C 
ATOM      4  C   UNL     1      -2.766  12.585  22.320  0.00  0.00    +0.000 C 
ATOM      5  C   UNL     1      -2.909  12.240  20.869  0.00  0.00    +0.000 A 
ATOM      6  C   UNL     1      -4.103  12.609  20.146  0.00  0.00    +0.000 A 
ATOM      7  C   UNL     1      -4.160  12.208  18.788  0.00  0.00    +0.000 A 
ATOM      8  F   UNL     1      -5.189  12.571  18.007  0.00  0.00    +0.000 F 
ATOM      9  C   UNL     1      -3.165  11.461  18.175  0.00  0.00    +0.000 A 
ATOM     10  C   UNL     1      -2.039  11.104  18.907  0.00  0.00    +0.000 A 
ATOM     11  C   UNL     1      -0.992  10.319  18.210  0.00  0.00    +0.000 A 
ATOM     12  O   UNL     1      -1.128   9.936  17.051  0.00  0.00    +0.000 OA
ATOM     13  C   UNL     1       0.246  10.018  18.942  0.00  0.00    +0.000 A 
ATOM     14  C   UNL     1       0.298  10.422  20.214  0.00  0.00    +0.000 A 
ATOM     15  N   UNL     1      -0.699  11.079  20.936  0.00  0.00    +0.000 N 
ATOM     16  C   UNL     1      -1.875  11.479  20.262  0.00  0.00    +0.000 A 
ENDROOT
BRANCH   6  17
ATOM     17  N   UNL     1      -5.197  13.270  20.713  0.00  0.00    +0.000 N 
ATOM     18  C   UNL     1      -6.383  12.525  21.170  0.00  0.00    +0.000 C 
ATOM     19  C   UNL     1      -6.624  12.845  22.646  0.00  0.00    +0.000 C 
ATOM     20  C   UNL     1      -6.655  14.347  22.938  0.00  0.00    +0.000 C 
ATOM     21  C   UNL     1      -5.520  15.115  22.257  0.00  0.00    +0.000 C 
ATOM     22  C   UNL     1      -5.393  14.717  20.784  0.00  0.00    +0.000 C 
BRANCH  20  23
ATOM     23  O   UNL     1      -7.917  14.903  22.567  0.00  0.00    +0.000 OA
ATOM     24  H   UNL     1      -8.626  14.401  22.999  0.00  0.00    +0.000 HD
ENDBRANCH  20  23
ENDBRANCH   6  17
BRANCH  13  25
ATOM     25  C   UNL     1       1.397   9.300  18.357  0.00  0.00    +0.000 C 
ATOM     26  O   UNL     1       1.844   8.260  18.820  0.00  0.00    +0.000 OA
BRANCH  25  27
ATOM     27  O   UNL     1       1.922   9.880  17.256  0.00  0.00    +0.000 OA
ATOM     28  H   UNL     1       1.431  10.684  16.957  0.00  0.00    +0.000 HD
ENDBRANCH  25  27
ENDBRANCH  13  25
TORSDOF 4
ENDMDL
MODEL 6
REMARK VINA RESULT:      -7.1      5.717     11.230
REMARK  Name = 
REMARK  5 active torsions:
REMARK  status: ('A' for Active; 'I' for Inactive)
REMARK    1  A    between atoms: C_1  and  C_2
REMARK    2  A    between atoms: C_6  and  N_7
REMARK    3  A    between atoms: C_10  and  O_11
REMARK    4  A    between atoms: C_20  and  C_21
REMARK    5  A    between atoms: C_21  and  O_23
REMARK                            x       y       z     vdW  Elec       q    Type
REMARK                         _______ _______ _______ _____ _____    ______ ____
ROOT
ATOM      1  C   UNL     1      -2.329  14.986  24.187  0.00  0.00    +0.000 C 
ATOM      2  C   UNL     1      -2.532  13.514  23.798  0.00  0.00    +0.000 C 
ATOM      3  C   UNL     1      -1.240  12.965  23.237  0.00  0.00    +0.000 C 
ATOM      4  C   UNL     1      -1.217  12.515  21.796  0.00  0.00    +0.000 C 
ATOM      5  C   UNL     1      -2.497  12.405  21.024  0.00  0.00    +0.000 A 
ATOM      6  C   UNL     1      -2.487  11.929  19.661  0.00  0.00    +0.000 A 
ATOM      7  C   UNL     1      -3.742  11.894  19.003  0.00  0.00    +0.000 A 
ATOM      8  F   UNL     1      -3.854  11.393  17.762  0.00  0.00    +0.000 F 
ATOM      9  C   UNL     1      -4.920  12.331  19.591  0.00  0.00    +0.000 A 
ATOM     10  C   UNL     1      -4.889  12.803  20.897  0.00  0.00    +0.000 A 
ATOM     11  C   UNL     1      -6.172  13.246  21.494  0.00  0.00    +0.000 A 
ATOM     12  O   UNL     1      -7.218  13.261  20.851  0.00  0.00    +0.000 OA
ATOM     13  C   UNL     1      -6.172  13.656  22.904  0.00  0.00    +0.000 A 
ATOM     14  C   UNL     1      -4.987  13.662  23.521  0.00  0.00    +0.000 A 
ATOM     15  N   UNL     1      -3.744  13.344  22.973  0.00  0.00    +0.000 N 
ATOM     16  C   UNL     1      -3.691  12.853  21.649  0.00  0.00    +0.000 A 
ENDROOT
BRANCH   6  17
ATOM     17  N   UNL     1      -1.333  11.568  18.959  0.00  0.00    +0.000 N 
ATOM     18  C   UNL     1      -0.501  12.583  18.289  0.00  0.00    +0.000 C 
ATOM     19  C   UNL     1       0.928  12.475  18.824  0.00  0.00    +0.000 C 
ATOM     20  C   UNL     1       1.483  11.050  18.771  0.00  0.00    +0.000 C 
ATOM     21  C   UNL     1       0.492   9.999  19.277  0.00  0.00    +0.000 C 
ATOM     22  C   UNL     1      -0.893  10.208  18.657  0.00  0.00    +0.000 C 
BRANCH  20  23
ATOM     23  O   UNL     1       1.908  10.727  17.447  0.00  0.00    +0.000 OA
ATOM     24  H   UNL     1       2.876  10.781  17.401  0.00  0.00    +0.000 HD
ENDBRANCH  20  23
ENDBRANCH   6  17
BRANCH  13  25
ATOM     25  C   UNL     1      -7.383  14.060  23.647  0.00  0.00    +0.000 C 
ATOM     26  O   UNL     1      -7.870  13.395  24.550  0.00  0.00    +0.000 OA
BRANCH  25  27
ATOM     27  O   UNL     1      -7.916  15.238  23.255  0.00  0.00    +0.000 OA
ATOM     28  H   UNL     1      -7.879  15.942  23.948  0.00  0.00    +0.000 HD
ENDBRANCH  25  27
ENDBRANCH  13  25
TORSDOF 4
ENDMDL
MODEL 7
REMARK VINA RESULT:      -7.1      5.452     11.315
REMARK  Name = 
REMARK  5 active torsions:
REMARK  status: ('A' for Active; 'I' for Inactive)
REMARK    1  A    between atoms: C_1  and  C_2
REMARK    2  A    between atoms: C_6  and  N_7
REMARK    3  A    between atoms: C_10  and  O_11
REMARK    4  A    between atoms: C_20  and  C_21
REMARK    5  A    between atoms: C_21  and  O_23
REMARK                            x       y       z     vdW  Elec       q    Type
REMARK                         _______ _______ _______ _____ _____    ______ ____
ROOT
ATOM      1  C   UNL     1      -7.400  11.671  19.300  0.00  0.00    +0.000 C 
ATOM      2  C   UNL     1      -6.291  12.733  19.258  0.00  0.00    +0.000 C 
ATOM      3  C   UNL     1      -5.314  12.387  18.157  0.00  0.00    +0.000 C 
ATOM      4  C   UNL     1      -3.890  12.062  18.538  0.00  0.00    +0.000 C 
ATOM      5  C   UNL     1      -3.414  12.301  19.940  0.00  0.00    +0.000 A 
ATOM      6  C   UNL     1      -2.041  12.038  20.298  0.00  0.00    +0.000 A 
ATOM      7  C   UNL     1      -1.696  12.261  21.654  0.00  0.00    +0.000 A 
ATOM      8  F   UNL     1      -0.428  12.123  22.073  0.00  0.00    +0.000 F 
ATOM      9  C   UNL     1      -2.613  12.662  22.615  0.00  0.00    +0.000 A 
ATOM     10  C   UNL     1      -3.932  12.885  22.239  0.00  0.00    +0.000 A 
ATOM     11  C   UNL     1      -4.877  13.328  23.292  0.00  0.00    +0.000 A 
ATOM     12  O   UNL     1      -4.537  13.435  24.468  0.00  0.00    +0.000 OA
ATOM     13  C   UNL     1      -6.250  13.661  22.892  0.00  0.00    +0.000 A 
ATOM     14  C   UNL     1      -6.557  13.470  21.606  0.00  0.00    +0.000 A 
ATOM     15  N   UNL     1      -5.728  12.968  20.602  0.00  0.00    +0.000 N 
ATOM     16  C   UNL     1      -4.370  12.717  20.904  0.00  0.00    +0.000 A 
ENDROOT
BRANCH   6  17
ATOM     17  N   UNL     1      -1.078  11.534  19.419  0.00  0.00    +0.000 N 
ATOM     18  C   UNL     1      -0.304  12.430  18.542  0.00  0.00    +0.000 C 
ATOM     19  C   UNL     1       1.186  12.208  18.808  0.00  0.00    +0.000 C 
ATOM     20  C   UNL     1       1.594  10.735  18.745  0.00  0.00    +0.000 C 
ATOM     21  C   UNL     1       0.630   9.811  19.492  0.00  0.00    +0.000 C 
ATOM     22  C   UNL     1      -0.824  10.124  19.129  0.00  0.00    +0.000 C 
BRANCH  20  23
ATOM     23  O   UNL     1       1.729  10.310  17.388  0.00  0.00    +0.000 OA
ATOM     24  H   UNL     1       2.441   9.653  17.329  0.00  0.00    +0.000 HD
ENDBRANCH  20  23
ENDBRANCH   6  17
BRANCH  13  25
ATOM     25  C   UNL     1      -7.280  14.173  23.819  0.00  0.00    +0.000 C 
ATOM     26  O   UNL     1      -7.815  15.265  23.691  0.00  0.00    +0.000 OA
BRANCH  25  27
ATOM     27  O   UNL     1      -7.597  13.332  24.827  0.00  0.00    +0.000 OA
ATOM     28  H   UNL     1      -6.869  13.206  25.484  0.00  0.00    +0.000 HD
ENDBRANCH  25  27
ENDBRANCH  13  25
TORSDOF 4
ENDMDL
MODEL 8
REMARK VINA RESULT:      -7.1      8.659     11.283
REMARK  Name = 
REMARK  5 active torsions:
REMARK  status: ('A' for Active; 'I' for Inactive)
REMARK    1  A    between atoms: C_1  and  C_2
REMARK    2  A    between atoms: C_6  and  N_7
REMARK    3  A    between atoms: C_10  and  O_11
REMARK    4  A    between atoms: C_20  and  C_21
REMARK    5  A    between atoms: C_21  and  O_23
REMARK                            x       y       z     vdW  Elec       q    Type
REMARK                         _______ _______ _______ _____ _____    ______ ____
ROOT
ATOM      1  C   UNL     1       3.854  14.610  21.148  0.00  0.00    +0.000 C 
ATOM      2  C   UNL     1       5.244  15.221  21.384  0.00  0.00    +0.000 C 
ATOM      3  C   UNL     1       5.867  15.567  20.051  0.00  0.00    +0.000 C 
ATOM      4  C   UNL     1       7.129  14.848  19.641  0.00  0.00    +0.000 C 
ATOM      5  C   UNL     1       7.859  13.989  20.629  0.00  0.00    +0.000 A 
ATOM      6  C   UNL     1       9.093  13.338  20.258  0.00  0.00    +0.000 A 
ATOM      7  C   UNL     1       9.689  12.519  21.249  0.00  0.00    +0.000 A 
ATOM      8  F   UNL     1      10.877  11.933  21.033  0.00  0.00    +0.000 F 
ATOM      9  C   UNL     1       9.119  12.298  22.494  0.00  0.00    +0.000 A 
ATOM     10  C   UNL     1       7.920  12.924  22.810  0.00  0.00    +0.000 A 
ATOM     11  C   UNL     1       7.353  12.674  24.157  0.00  0.00    +0.000 A 
ATOM     12  O   UNL     1       7.877  11.896  24.950  0.00  0.00    +0.000 OA
ATOM     13  C   UNL     1       6.138  13.404  24.541  0.00  0.00    +0.000 A 
ATOM     14  C   UNL     1       5.598  14.191  23.607  0.00  0.00    +0.000 A 
ATOM     15  N   UNL     1       6.044  14.384  22.299  0.00  0.00    +0.000 N 
ATOM     16  C   UNL     1       7.260  13.782  21.900  0.00  0.00    +0.000 A 
ENDROOT
BRANCH   6  17
ATOM     17  N   UNL     1       9.680  13.423  18.992  0.00  0.00    +0.000 N 
ATOM     18  C   UNL     1      10.472  14.601  18.598  0.00  0.00    +0.000 C 
ATOM     19  C   UNL     1      11.867  14.135  18.177  0.00  0.00    +0.000 C 
ATOM     20  C   UNL     1      11.837  13.005  17.146  0.00  0.00    +0.000 C 
ATOM     21  C   UNL     1      10.833  11.903  17.491  0.00  0.00    +0.000 C 
ATOM     22  C   UNL     1       9.477  12.497  17.879  0.00  0.00    +0.000 C 
BRANCH  20  23
ATOM     23  O   UNL     1      11.570  13.522  15.843  0.00  0.00    +0.000 OA
ATOM     24  H   UNL     1      12.006  12.962  15.182  0.00  0.00    +0.000 HD
ENDBRANCH  20  23
ENDBRANCH   6  17
BRANCH  13  25
ATOM     25  C   UNL     1       5.497  13.303  25.868  0.00  0.00    +0.000 C 
ATOM     26  O   UNL     1       5.414  14.242  26.646  0.00  0.00    +0.000 OA
BRANCH  25  27
ATOM     27  O   UNL     1       4.998  12.082  26.160  0.00  0.00    +0.000 OA
ATOM     28  H   UNL     1       4.321  12.091  26.881  0.00  0.00    +0.000 HD
ENDBRANCH  25  27
ENDBRANCH  13  25
TORSDOF 4
ENDMDL
MODEL 9
REMARK VINA RESULT:      -7.0      6.216      8.722
REMARK  Name = 
REMARK  5 active torsions:
REMARK  status: ('A' for Active; 'I' for Inactive)
REMARK    1  A    between atoms: C_1  and  C_2
REMARK    2  A    between atoms: C_6  and  N_7
REMARK    3  A    between atoms: C_10  and  O_11
REMARK    4  A    between atoms: C_20  and  C_21
REMARK    5  A    between atoms: C_21  and  O_23
REMARK                            x       y       z     vdW  Elec       q    Type
REMARK                         _______ _______ _______ _____ _____    ______ ____
ROOT
ATOM      1  C   UNL     1       0.297   9.620  18.505  0.00  0.00    +0.000 C 
ATOM      2  C   UNL     1      -0.146  11.090  18.488  0.00  0.00    +0.000 C 
ATOM      3  C   UNL     1       0.235  11.740  19.799  0.00  0.00    +0.000 C 
ATOM      4  C   UNL     1      -0.869  12.246  20.696  0.00  0.00    +0.000 C 
ATOM      5  C   UNL     1      -2.279  12.306  20.191  0.00  0.00    +0.000 A 
ATOM      6  C   UNL     1      -3.331  12.834  21.027  0.00  0.00    +0.000 A 
ATOM      7  C   UNL     1      -4.636  12.817  20.474  0.00  0.00    +0.000 A 
ATOM      8  F   UNL     1      -5.670  13.357  21.137  0.00  0.00    +0.000 F 
ATOM      9  C   UNL     1      -4.924  12.284  19.226  0.00  0.00    +0.000 A 
ATOM     10  C   UNL     1      -3.890  11.764  18.457  0.00  0.00    +0.000 A 
ATOM     11  C   UNL     1      -4.239  11.220  17.123  0.00  0.00    +0.000 A 
ATOM     12  O   UNL     1      -5.400  11.165  16.725  0.00  0.00    +0.000 OA
ATOM     13  C   UNL     1      -3.144  10.756  16.259  0.00  0.00    +0.000 A 
ATOM     14  C   UNL     1      -1.916  10.800  16.782  0.00  0.00    +0.000 A 
ATOM     15  N   UNL     1      -1.554  11.216  18.064  0.00  0.00    +0.000 N 
ATOM     16  C   UNL     1      -2.549  11.761  18.908  0.00  0.00    +0.000 A 
ENDROOT
BRANCH   6  17
ATOM     17  N   UNL     1      -3.145  13.293  22.334  0.00  0.00    +0.000 N 
ATOM     18  C   UNL     1      -2.803  14.700  22.606  0.00  0.00    +0.000 C 
ATOM     19  C   UNL     1      -3.851  15.285  23.553  0.00  0.00    +0.000 C 
ATOM     20  C   UNL     1      -4.081  14.427  24.799  0.00  0.00    +0.000 C 
ATOM     21  C   UNL     1      -4.212  12.935  24.485  0.00  0.00    +0.000 C 
ATOM     22  C   UNL     1      -3.099  12.471  23.542  0.00  0.00    +0.000 C 
BRANCH  20  23
ATOM     23  O   UNL     1      -3.039  14.638  25.752  0.00  0.00    +0.000 OA
ATOM     24  H   UNL     1      -3.282  15.376  26.332  0.00  0.00    +0.000 HD
ENDBRANCH  20  23
ENDBRANCH   6  17
BRANCH  13  25
ATOM     25  C   UNL     1      -3.335  10.248  14.885  0.00  0.00    +0.000 C 
ATOM     26  O   UNL     1      -2.409  10.034  14.116  0.00  0.00    +0.000 OA
BRANCH  25  27
ATOM     27  O   UNL     1      -4.622  10.029  14.540  0.00  0.00    +0.000 OA
ATOM     28  H   UNL     1      -5.143  10.857  14.398  0.00  0.00    +0.000 HD
ENDBRANCH  25  27
ENDBRANCH  13  25
TORSDOF 4
ENDMDL
