MODEL 1
REMARK VINA RESULT:      -7.6      0.000      0.000
REMARK  Name = 
REMARK  11 active torsions:
REMARK  status: ('A' for Active; 'I' for Inactive)
REMARK    1  A    between atoms: N_1  and  S_2
REMARK    2  A    between atoms: S_2  and  C_5
REMARK    3  A    between atoms: C_7  and  N_8
REMARK    4  A    between atoms: C_11  and  N_12
REMARK    5  A    between atoms: N_12  and  C_13
REMARK    6  A    between atoms: N_12  and  C_21
REMARK    7  A    between atoms: C_13  and  C_14
REMARK    8  A    between atoms: C_14  and  C_15
REMARK    9  A    between atoms: C_21  and  C_22
REMARK   10  A    between atoms: C_22  and  C_23
REMARK   11  A    between atoms: C_29  and  N_30
REMARK                            x       y       z     vdW  Elec       q    Type
REMARK                         _______ _______ _______ _____ _____    ______ ____
ROOT
ATOM      1  C   UNL     1       3.634   3.886  19.504  0.00  0.00    +0.000 A 
ATOM      2  C   UNL     1       4.951   3.691  19.143  0.00  0.00    +0.000 A 
ATOM      3  C   UNL     1       5.671   4.771  18.572  0.00  0.00    +0.000 A 
ATOM      4  C   UNL     1       5.067   5.931  17.993  0.00  0.00    +0.000 A 
ATOM      5  C   UNL     1       3.732   6.081  18.476  0.00  0.00    +0.000 A 
ATOM      6  C   UNL     1       3.032   5.099  19.225  0.00  0.00    +0.000 A 
ENDROOT
BRANCH   1   7
ATOM      7  S   UNL     1       2.895   2.769  20.660  0.00  0.00    +0.000 S 
ATOM      8  O   UNL     1       3.946   2.102  21.383  0.00  0.00    +0.000 OA
ATOM      9  O   UNL     1       1.805   2.080  20.013  0.00  0.00    +0.000 OA
BRANCH   7  10
ATOM     10  N   UNL     1       2.180   3.867  21.713  0.00  0.00    +0.000 NA
ATOM     11  H   UNL     1       2.504   4.818  21.525  0.00  0.00    +0.000 HD
ATOM     12  H   UNL     1       2.289   3.577  22.686  0.00  0.00    +0.000 HD
ENDBRANCH   7  10
ENDBRANCH   1   7
BRANCH   3  13
ATOM     13  N   UNL     1       7.025   4.865  19.138  0.00  0.00    +0.000 N 
ATOM     14  O   UNL     1       7.145   5.394  20.251  0.00  0.00    +0.000 OA
ATOM     15  O   UNL     1       7.972   4.490  18.433  0.00  0.00    +0.000 OA
ENDBRANCH   3  13
BRANCH   5  16
ATOM     16  N   UNL     1       3.028   7.350  18.507  0.00  0.00    +0.000 N 
ATOM     17  O   UNL     1       2.471   7.653  19.569  0.00  0.00    +0.000 OA
ATOM     18  O   UNL     1       2.957   7.979  17.442  0.00  0.00    +0.000 OA
ENDBRANCH   5  16
BRANCH   4  19
ATOM     19  N   UNL     1       5.684   6.672  16.951  0.00  0.00    +0.000 N 
BRANCH  19  20
ATOM     20  C   UNL     1       6.295   8.051  17.134  0.00  0.00    +0.000 C 
BRANCH  20  21
ATOM     21  C   UNL     1       7.669   8.112  17.833  0.00  0.00    +0.000 C 
BRANCH  21  22
ATOM     22  C   UNL     1       8.309   9.451  18.139  0.00  0.00    +0.000 A 
ATOM     23  C   UNL     1       8.046  10.650  17.463  0.00  0.00    +0.000 A 
ATOM     24  C   UNL     1       8.696  11.830  17.839  0.00  0.00    +0.000 A 
ATOM     25  C   UNL     1       9.613  11.839  18.898  0.00  0.00    +0.000 A 
ATOM     26  C   UNL     1       9.884  10.656  19.576  0.00  0.00    +0.000 A 
ATOM     27  C   UNL     1       9.243   9.478  19.196  0.00  0.00    +0.000 A 
ENDBRANCH  21  22
ENDBRANCH  20  21
ENDBRANCH  19  20
BRANCH  19  28
ATOM     28  C   UNL     1       5.413   6.406  15.498  0.00  0.00    +0.000 C 
BRANCH  28  29
ATOM     29  C   UNL     1       5.000   4.954  15.180  0.00  0.00    +0.000 C 
BRANCH  29  30
ATOM     30  C   UNL     1       5.743   4.440  13.959  0.00  0.00    +0.000 A 
ATOM     31  C   UNL     1       7.004   4.953  13.620  0.00  0.00    +0.000 A 
ATOM     32  C   UNL     1       7.659   4.527  12.459  0.00  0.00    +0.000 A 
ATOM     33  C   UNL     1       7.059   3.589  11.622  0.00  0.00    +0.000 A 
ATOM     34  C   UNL     1       5.807   3.070  11.950  0.00  0.00    +0.000 A 
ATOM     35  C   UNL     1       5.152   3.493  13.111  0.00  0.00    +0.000 A 
ENDBRANCH  29  30
ENDBRANCH  28  29
ENDBRANCH  19  28
ENDBRANCH   4  19
TORSDOF 11
ENDMDL
MODEL 2
REMARK VINA RESULT:      -7.6      0.117      1.414
REMARK  Name = 
REMARK  11 active torsions:
REMARK  status: ('A' for Active; 'I' for Inactive)
REMARK    1  A    between atoms: N_1  and  S_2
REMARK    2  A    between atoms: S_2  and  C_5
REMARK    3  A    between atoms: C_7  and  N_8
REMARK    4  A    between atoms: C_11  and  N_12
REMARK    5  A    between atoms: N_12  and  C_13
REMARK    6  A    between atoms: N_12  and  C_21
REMARK    7  A    between atoms: C_13  and  C_14
REMARK    8  A    between atoms: C_14  and  C_15
REMARK    9  A    between atoms: C_21  and  C_22
REMARK   10  A    between atoms: C_22  and  C_23
REMARK   11  A    between atoms: C_29  and  N_30
REMARK                            x       y       z     vdW  Elec       q    Type
REMARK                         _______ _______ _______ _____ _____    ______ ____
ROOT
ATOM      1  C   UNL     1       3.641   3.847  19.522  0.00  0.00    +0.000 A 
ATOM      2  C   UNL     1       4.966   3.678  19.176  0.00  0.00    +0.000 A 
ATOM      3  C   UNL     1       5.670   4.771  18.610  0.00  0.00    +0.000 A 
ATOM      4  C   UNL     1       5.049   5.917  18.020  0.00  0.00    +0.000 A 
ATOM      5  C   UNL     1       3.706   6.040  18.489  0.00  0.00    +0.000 A 
ATOM      6  C   UNL     1       3.018   5.046  19.233  0.00  0.00    +0.000 A 
ENDROOT
BRANCH   1   7
ATOM      7  S   UNL     1       2.913   2.718  20.673  0.00  0.00    +0.000 S 
ATOM      8  O   UNL     1       3.970   2.072  21.407  0.00  0.00    +0.000 OA
ATOM      9  O   UNL     1       1.843   2.007  20.017  0.00  0.00    +0.000 OA
BRANCH   7  10
ATOM     10  N   UNL     1       2.167   3.804  21.717  0.00  0.00    +0.000 NA
ATOM     11  H   UNL     1       1.380   4.268  21.260  0.00  0.00    +0.000 HD
ATOM     12  H   UNL     1       2.844   4.448  22.131  0.00  0.00    +0.000 HD
ENDBRANCH   7  10
ENDBRANCH   1   7
BRANCH   3  13
ATOM     13  N   UNL     1       7.015   4.894  19.190  0.00  0.00    +0.000 N 
ATOM     14  O   UNL     1       7.966   4.449  18.532  0.00  0.00    +0.000 OA
ATOM     15  O   UNL     1       7.110   5.356  20.335  0.00  0.00    +0.000 OA
ENDBRANCH   3  13
BRANCH   5  16
ATOM     16  N   UNL     1       2.975   7.294  18.508  0.00  0.00    +0.000 N 
ATOM     17  O   UNL     1       2.982   7.960  17.465  0.00  0.00    +0.000 OA
ATOM     18  O   UNL     1       2.489   7.645  19.591  0.00  0.00    +0.000 OA
ENDBRANCH   5  16
BRANCH   4  19
ATOM     19  N   UNL     1       5.662   6.667  16.983  0.00  0.00    +0.000 N 
BRANCH  19  20
ATOM     20  C   UNL     1       6.281   8.041  17.179  0.00  0.00    +0.000 C 
BRANCH  20  21
ATOM     21  C   UNL     1       7.768   8.079  17.587  0.00  0.00    +0.000 C 
BRANCH  21  22
ATOM     22  C   UNL     1       8.368   9.345  18.162  0.00  0.00    +0.000 A 
ATOM     23  C   UNL     1       9.086   9.431  19.362  0.00  0.00    +0.000 A 
ATOM     24  C   UNL     1       9.600  10.659  19.793  0.00  0.00    +0.000 A 
ATOM     25  C   UNL     1       9.414  11.821  19.032  0.00  0.00    +0.000 A 
ATOM     26  C   UNL     1       8.702  11.751  17.840  0.00  0.00    +0.000 A 
ATOM     27  C   UNL     1       8.183  10.528  17.416  0.00  0.00    +0.000 A 
ENDBRANCH  21  22
ENDBRANCH  20  21
ENDBRANCH  19  20
BRANCH  19  28
ATOM     28  C   UNL     1       5.380   6.421  15.530  0.00  0.00    +0.000 C 
BRANCH  28  29
ATOM     29  C   UNL     1       4.998   4.965  15.190  0.00  0.00    +0.000 C 
BRANCH  29  30
ATOM     30  C   UNL     1       5.701   4.507  13.924  0.00  0.00    +0.000 A 
ATOM     31  C   UNL     1       5.116   3.545  13.087  0.00  0.00    +0.000 A 
ATOM     32  C   UNL     1       5.793   3.076  11.957  0.00  0.00    +0.000 A 
ATOM     33  C   UNL     1       7.064   3.559  11.653  0.00  0.00    +0.000 A 
ATOM     34  C   UNL     1       7.655   4.517  12.475  0.00  0.00    +0.000 A 
ATOM     35  C   UNL     1       6.979   4.989  13.604  0.00  0.00    +0.000 A 
ENDBRANCH  29  30
ENDBRANCH  28  29
ENDBRANCH  19  28
ENDBRANCH   4  19
TORSDOF 11
ENDMDL
MODEL 3
REMARK VINA RESULT:      -7.5      0.637      5.800
REMARK  Name = 
REMARK  11 active torsions:
REMARK  status: ('A' for Active; 'I' for Inactive)
REMARK    1  A    between atoms: N_1  and  S_2
REMARK    2  A    between atoms: S_2  and  C_5
REMARK    3  A    between atoms: C_7  and  N_8
REMARK    4  A    between atoms: C_11  and  N_12
REMARK    5  A    between atoms: N_12  and  C_13
REMARK    6  A    between atoms: N_12  and  C_21
REMARK    7  A    between atoms: C_13  and  C_14
REMARK    8  A    between atoms: C_14  and  C_15
REMARK    9  A    between atoms: C_21  and  C_22
REMARK   10  A    between atoms: C_22  and  C_23
REMARK   11  A    between atoms: C_29  and  N_30
REMARK                            x       y       z     vdW  Elec       q    Type
REMARK                         _______ _______ _______ _____ _____    ______ ____
ROOT
ATOM      1  C   UNL     1       3.026   3.962  19.205  0.00  0.00    +0.000 A 
ATOM      2  C   UNL     1       4.336   3.749  18.826  0.00  0.00    +0.000 A 
ATOM      3  C   UNL     1       5.106   4.852  18.379  0.00  0.00    +0.000 A 
ATOM      4  C   UNL     1       4.559   6.095  17.932  0.00  0.00    +0.000 A 
ATOM      5  C   UNL     1       3.229   6.251  18.428  0.00  0.00    +0.000 A 
ATOM      6  C   UNL     1       2.481   5.224  19.062  0.00  0.00    +0.000 A 
ENDROOT
BRANCH   1   7
ATOM      7  S   UNL     1       2.231   2.757  20.227  0.00  0.00    +0.000 S 
ATOM      8  O   UNL     1       2.790   2.845  21.552  0.00  0.00    +0.000 OA
ATOM      9  O   UNL     1       2.109   1.524  19.489  0.00  0.00    +0.000 OA
BRANCH   7  10
ATOM     10  N   UNL     1       0.681   3.406  20.292  0.00  0.00    +0.000 NA
ATOM     11  H   UNL     1       0.238   3.387  19.372  0.00  0.00    +0.000 HD
ATOM     12  H   UNL     1       0.681   4.328  20.733  0.00  0.00    +0.000 HD
ENDBRANCH   7  10
ENDBRANCH   1   7
BRANCH   3  13
ATOM     13  N   UNL     1       6.460   4.822  18.954  0.00  0.00    +0.000 N 
ATOM     14  O   UNL     1       6.620   5.331  20.072  0.00  0.00    +0.000 OA
ATOM     15  O   UNL     1       7.374   4.368  18.253  0.00  0.00    +0.000 OA
ENDBRANCH   3  13
BRANCH   5  16
ATOM     16  N   UNL     1       2.582   7.538  18.598  0.00  0.00    +0.000 N 
ATOM     17  O   UNL     1       2.571   8.292  17.617  0.00  0.00    +0.000 OA
ATOM     18  O   UNL     1       2.181   7.819  19.736  0.00  0.00    +0.000 OA
ENDBRANCH   5  16
BRANCH   4  19
ATOM     19  N   UNL     1       5.215   6.919  16.980  0.00  0.00    +0.000 N 
BRANCH  19  20
ATOM     20  C   UNL     1       5.591   6.466  15.579  0.00  0.00    +0.000 C 
BRANCH  20  21
ATOM     21  C   UNL     1       5.366   4.976  15.249  0.00  0.00    +0.000 C 
BRANCH  21  22
ATOM     22  C   UNL     1       5.841   4.408  13.928  0.00  0.00    +0.000 A 
ATOM     23  C   UNL     1       5.158   3.453  13.162  0.00  0.00    +0.000 A 
ATOM     24  C   UNL     1       5.695   3.004  11.951  0.00  0.00    +0.000 A 
ATOM     25  C   UNL     1       6.916   3.503  11.477  0.00  0.00    +0.000 A 
ATOM     26  C   UNL     1       7.604   4.448  12.228  0.00  0.00    +0.000 A 
ATOM     27  C   UNL     1       7.074   4.890  13.439  0.00  0.00    +0.000 A 
ENDBRANCH  21  22
ENDBRANCH  20  21
ENDBRANCH  19  20
BRANCH  19  28
ATOM     28  C   UNL     1       6.004   8.136  17.368  0.00  0.00    +0.000 C 
BRANCH  28  29
ATOM     29  C   UNL     1       7.513   7.884  17.563  0.00  0.00    +0.000 C 
BRANCH  29  30
ATOM     30  C   UNL     1       8.213   9.149  18.027  0.00  0.00    +0.000 A 
ATOM     31  C   UNL     1       9.073   9.127  19.135  0.00  0.00    +0.000 A 
ATOM     32  C   UNL     1       9.665  10.305  19.602  0.00  0.00    +0.000 A 
ATOM     33  C   UNL     1       9.400  11.518  18.971  0.00  0.00    +0.000 A 
ATOM     34  C   UNL     1       8.549  11.553  17.867  0.00  0.00    +0.000 A 
ATOM     35  C   UNL     1       7.959  10.376  17.397  0.00  0.00    +0.000 A 
ENDBRANCH  29  30
ENDBRANCH  28  29
ENDBRANCH  19  28
ENDBRANCH   4  19
TORSDOF 11
ENDMDL
MODEL 4
REMARK VINA RESULT:      -7.3      0.677      1.086
REMARK  Name = 
REMARK  11 active torsions:
REMARK  status: ('A' for Active; 'I' for Inactive)
REMARK    1  A    between atoms: N_1  and  S_2
REMARK    2  A    between atoms: S_2  and  C_5
REMARK    3  A    between atoms: C_7  and  N_8
REMARK    4  A    between atoms: C_11  and  N_12
REMARK    5  A    between atoms: N_12  and  C_13
REMARK    6  A    between atoms: N_12  and  C_21
REMARK    7  A    between atoms: C_13  and  C_14
REMARK    8  A    between atoms: C_14  and  C_15
REMARK    9  A    between atoms: C_21  and  C_22
REMARK   10  A    between atoms: C_22  and  C_23
REMARK   11  A    between atoms: C_29  and  N_30
REMARK                            x       y       z     vdW  Elec       q    Type
REMARK                         _______ _______ _______ _____ _____    ______ ____
ROOT
ATOM      1  C   UNL     1       3.164   3.957  19.043  0.00  0.00    +0.000 A 
ATOM      2  C   UNL     1       4.495   3.661  18.835  0.00  0.00    +0.000 A 
ATOM      3  C   UNL     1       5.364   4.689  18.391  0.00  0.00    +0.000 A 
ATOM      4  C   UNL     1       4.931   5.909  17.784  0.00  0.00    +0.000 A 
ATOM      5  C   UNL     1       3.564   6.160  18.110  0.00  0.00    +0.000 A 
ATOM      6  C   UNL     1       2.700   5.223  18.736  0.00  0.00    +0.000 A 
ENDROOT
BRANCH   1   7
ATOM      7  S   UNL     1       2.202   2.878  20.063  0.00  0.00    +0.000 S 
ATOM      8  O   UNL     1       2.813   2.820  21.366  0.00  0.00    +0.000 OA
ATOM      9  O   UNL     1       1.836   1.712  19.297  0.00  0.00    +0.000 OA
BRANCH   7  10
ATOM     10  N   UNL     1       0.796   3.789  20.208  0.00  0.00    +0.000 NA
ATOM     11  H   UNL     1       0.582   3.975  21.190  0.00  0.00    +0.000 HD
ATOM     12  H   UNL     1       0.024   3.369  19.688  0.00  0.00    +0.000 HD
ENDBRANCH   7  10
ENDBRANCH   1   7
BRANCH   3  13
ATOM     13  N   UNL     1       6.642   4.655  19.117  0.00  0.00    +0.000 N 
ATOM     14  O   UNL     1       6.647   5.058  20.288  0.00  0.00    +0.000 OA
ATOM     15  O   UNL     1       7.652   4.308  18.490  0.00  0.00    +0.000 OA
ENDBRANCH   3  13
BRANCH   5  16
ATOM     16  N   UNL     1       2.966   7.482  18.099  0.00  0.00    +0.000 N 
ATOM     17  O   UNL     1       2.433   7.862  19.150  0.00  0.00    +0.000 OA
ATOM     18  O   UNL     1       2.949   8.083  17.017  0.00  0.00    +0.000 OA
ENDBRANCH   5  16
BRANCH   4  19
ATOM     19  N   UNL     1       5.728   6.621  16.849  0.00  0.00    +0.000 N 
BRANCH  19  20
ATOM     20  C   UNL     1       6.279   8.016  17.089  0.00  0.00    +0.000 C 
BRANCH  20  21
ATOM     21  C   UNL     1       7.725   8.109  17.617  0.00  0.00    +0.000 C 
BRANCH  21  22
ATOM     22  C   UNL     1       8.296   9.445  18.046  0.00  0.00    +0.000 A 
ATOM     23  C   UNL     1       8.040  10.674  17.423  0.00  0.00    +0.000 A 
ATOM     24  C   UNL     1       8.622  11.848  17.912  0.00  0.00    +0.000 A 
ATOM     25  C   UNL     1       9.462  11.821  19.033  0.00  0.00    +0.000 A 
ATOM     26  C   UNL     1       9.725  10.608  19.659  0.00  0.00    +0.000 A 
ATOM     27  C   UNL     1       9.152   9.437  19.167  0.00  0.00    +0.000 A 
ENDBRANCH  21  22
ENDBRANCH  20  21
ENDBRANCH  19  20
BRANCH  19  28
ATOM     28  C   UNL     1       5.742   6.295  15.384  0.00  0.00    +0.000 C 
BRANCH  28  29
ATOM     29  C   UNL     1       6.832   5.288  14.962  0.00  0.00    +0.000 C 
BRANCH  29  30
ATOM     30  C   UNL     1       6.390   4.498  13.743  0.00  0.00    +0.000 A 
ATOM     31  C   UNL     1       5.088   3.985  13.654  0.00  0.00    +0.000 A 
ATOM     32  C   UNL     1       4.702   3.202  12.562  0.00  0.00    +0.000 A 
ATOM     33  C   UNL     1       5.614   2.918  11.548  0.00  0.00    +0.000 A 
ATOM     34  C   UNL     1       6.911   3.425  11.623  0.00  0.00    +0.000 A 
ATOM     35  C   UNL     1       7.298   4.210  12.713  0.00  0.00    +0.000 A 
ENDBRANCH  29  30
ENDBRANCH  28  29
ENDBRANCH  19  28
ENDBRANCH   4  19
TORSDOF 11
ENDMDL
MODEL 5
REMARK VINA RESULT:      -7.2      6.851      9.036
REMARK  Name = 
REMARK  11 active torsions:
REMARK  status: ('A' for Active; 'I' for Inactive)
REMARK    1  A    between atoms: N_1  and  S_2
REMARK    2  A    between atoms: S_2  and  C_5
REMARK    3  A    between atoms: C_7  and  N_8
REMARK    4  A    between atoms: C_11  and  N_12
REMARK    5  A    between atoms: N_12  and  C_13
REMARK    6  A    between atoms: N_12  and  C_21
REMARK    7  A    between atoms: C_13  and  C_14
REMARK    8  A    between atoms: C_14  and  C_15
REMARK    9  A    between atoms: C_21  and  C_22
REMARK   10  A    between atoms: C_22  and  C_23
REMARK   11  A    between atoms: C_29  and  N_30
REMARK                            x       y       z     vdW  Elec       q    Type
REMARK                         _______ _______ _______ _____ _____    ______ ____
ROOT
ATOM      1  C   UNL     1      -2.301  12.554  22.376  0.00  0.00    +0.000 A 
ATOM      2  C   UNL     1      -2.250  12.868  21.034  0.00  0.00    +0.000 A 
ATOM      3  C   UNL     1      -1.507  12.033  20.163  0.00  0.00    +0.000 A 
ATOM      4  C   UNL     1      -0.503  11.107  20.588  0.00  0.00    +0.000 A 
ATOM      5  C   UNL     1      -0.679  10.796  21.970  0.00  0.00    +0.000 A 
ATOM      6  C   UNL     1      -1.562  11.483  22.845  0.00  0.00    +0.000 A 
ENDROOT
BRANCH   1   7
ATOM      7  S   UNL     1      -3.599  13.241  23.363  0.00  0.00    +0.000 S 
ATOM      8  O   UNL     1      -4.142  12.196  24.192  0.00  0.00    +0.000 OA
ATOM      9  O   UNL     1      -4.403  14.109  22.538  0.00  0.00    +0.000 OA
BRANCH   7  10
ATOM     10  N   UNL     1      -2.703  14.257  24.358  0.00  0.00    +0.000 NA
ATOM     11  H   UNL     1      -2.045  13.723  24.929  0.00  0.00    +0.000 HD
ATOM     12  H   UNL     1      -3.307  14.880  24.896  0.00  0.00    +0.000 HD
ENDBRANCH   7  10
ENDBRANCH   1   7
BRANCH   3  13
ATOM     13  N   UNL     1      -2.241  11.782  18.913  0.00  0.00    +0.000 N 
ATOM     14  O   UNL     1      -1.641  11.979  17.847  0.00  0.00    +0.000 OA
ATOM     15  O   UNL     1      -3.437  11.473  18.998  0.00  0.00    +0.000 OA
ENDBRANCH   3  13
BRANCH   5  16
ATOM     16  N   UNL     1      -0.195   9.574  22.585  0.00  0.00    +0.000 N 
ATOM     17  O   UNL     1      -0.774   8.525  22.275  0.00  0.00    +0.000 OA
ATOM     18  O   UNL     1       0.691   9.689  23.444  0.00  0.00    +0.000 OA
ENDBRANCH   5  16
BRANCH   4  19
ATOM     19  N   UNL     1       0.594  10.740  19.765  0.00  0.00    +0.000 N 
BRANCH  19  20
ATOM     20  C   UNL     1       1.416  11.728  18.954  0.00  0.00    +0.000 C 
BRANCH  20  21
ATOM     21  C   UNL     1       2.022  12.920  19.723  0.00  0.00    +0.000 C 
BRANCH  21  22
ATOM     22  C   UNL     1       2.402  14.188  18.986  0.00  0.00    +0.000 A 
ATOM     23  C   UNL     1       3.564  14.367  18.224  0.00  0.00    +0.000 A 
ATOM     24  C   UNL     1       3.808  15.585  17.582  0.00  0.00    +0.000 A 
ATOM     25  C   UNL     1       2.895  16.644  17.680  0.00  0.00    +0.000 A 
ATOM     26  C   UNL     1       1.739  16.480  18.434  0.00  0.00    +0.000 A 
ATOM     27  C   UNL     1       1.500  15.269  19.081  0.00  0.00    +0.000 A 
ENDBRANCH  21  22
ENDBRANCH  20  21
ENDBRANCH  19  20
BRANCH  19  28
ATOM     28  C   UNL     1       0.785   9.345  19.245  0.00  0.00    +0.000 C 
BRANCH  28  29
ATOM     29  C   UNL     1       1.854   9.216  18.140  0.00  0.00    +0.000 C 
BRANCH  29  30
ATOM     30  C   UNL     1       2.608   7.904  18.274  0.00  0.00    +0.000 A 
ATOM     31  C   UNL     1       2.370   7.049  19.360  0.00  0.00    +0.000 A 
ATOM     32  C   UNL     1       3.110   5.873  19.518  0.00  0.00    +0.000 A 
ATOM     33  C   UNL     1       4.100   5.541  18.596  0.00  0.00    +0.000 A 
ATOM     34  C   UNL     1       4.345   6.382  17.511  0.00  0.00    +0.000 A 
ATOM     35  C   UNL     1       3.603   7.556  17.350  0.00  0.00    +0.000 A 
ENDBRANCH  29  30
ENDBRANCH  28  29
ENDBRANCH  19  28
ENDBRANCH   4  19
TORSDOF 11
ENDMDL
MODEL 6
REMARK VINA RESULT:      -7.2      6.790      9.649
REMARK  Name = 
REMARK  11 active torsions:
REMARK  status: ('A' for Active; 'I' for Inactive)
REMARK    1  A    between atoms: N_1  and  S_2
REMARK    2  A    between atoms: S_2  and  C_5
REMARK    3  A    between atoms: C_7  and  N_8
REMARK    4  A    between atoms: C_11  and  N_12
REMARK    5  A    between atoms: N_12  and  C_13
REMARK    6  A    between atoms: N_12  and  C_21
REMARK    7  A    between atoms: C_13  and  C_14
REMARK    8  A    between atoms: C_14  and  C_15
REMARK    9  A    between atoms: C_21  and  C_22
REMARK   10  A    between atoms: C_22  and  C_23
REMARK   11  A    between atoms: C_29  and  N_30
REMARK                            x       y       z     vdW  Elec       q    Type
REMARK                         _______ _______ _______ _____ _____    ______ ____
ROOT
ATOM      1  C   UNL     1      -1.203  12.904  22.223  0.00  0.00    +0.000 A 
ATOM      2  C   UNL     1      -1.476  11.556  22.334  0.00  0.00    +0.000 A 
ATOM      3  C   UNL     1      -0.522  10.624  21.854  0.00  0.00    +0.000 A 
ATOM      4  C   UNL     1       0.527  10.937  20.935  0.00  0.00    +0.000 A 
ATOM      5  C   UNL     1       0.778  12.343  20.940  0.00  0.00    +0.000 A 
ATOM      6  C   UNL     1      -0.049  13.306  21.577  0.00  0.00    +0.000 A 
ENDROOT
BRANCH   1   7
ATOM      7  S   UNL     1      -2.091  14.039  23.249  0.00  0.00    +0.000 S 
ATOM      8  O   UNL     1      -2.952  13.284  24.122  0.00  0.00    +0.000 OA
ATOM      9  O   UNL     1      -2.541  15.146  22.441  0.00  0.00    +0.000 OA
BRANCH   7  10
ATOM     10  N   UNL     1      -0.829  14.639  24.183  0.00  0.00    +0.000 NA
ATOM     11  H   UNL     1       0.063  14.232  23.897  0.00  0.00    +0.000 HD
ATOM     12  H   UNL     1      -1.026  14.544  25.181  0.00  0.00    +0.000 HD
ENDBRANCH   7  10
ENDBRANCH   1   7
BRANCH   3  13
ATOM     13  N   UNL     1      -0.350   9.508  22.797  0.00  0.00    +0.000 N 
ATOM     14  O   UNL     1       0.405   9.685  23.763  0.00  0.00    +0.000 OA
ATOM     15  O   UNL     1      -0.899   8.432  22.524  0.00  0.00    +0.000 OA
ENDBRANCH   3  13
BRANCH   5  16
ATOM     16  N   UNL     1       2.042  12.934  20.542  0.00  0.00    +0.000 N 
ATOM     17  O   UNL     1       2.848  13.189  21.445  0.00  0.00    +0.000 OA
ATOM     18  O   UNL     1       2.174  13.225  19.345  0.00  0.00    +0.000 OA
ENDBRANCH   5  16
BRANCH   4  19
ATOM     19  N   UNL     1       1.067   9.979  20.037  0.00  0.00    +0.000 N 
BRANCH  19  20
ATOM     20  C   UNL     1       0.876  10.024  18.530  0.00  0.00    +0.000 C 
BRANCH  20  21
ATOM     21  C   UNL     1      -0.017  11.154  17.978  0.00  0.00    +0.000 C 
BRANCH  21  22
ATOM     22  C   UNL     1      -1.524  11.001  17.976  0.00  0.00    +0.000 A 
ATOM     23  C   UNL     1      -2.425  11.833  18.655  0.00  0.00    +0.000 A 
ATOM     24  C   UNL     1      -3.801  11.597  18.577  0.00  0.00    +0.000 A 
ATOM     25  C   UNL     1      -4.305  10.535  17.815  0.00  0.00    +0.000 A 
ATOM     26  C   UNL     1      -3.423   9.701  17.138  0.00  0.00    +0.000 A 
ATOM     27  C   UNL     1      -2.051   9.931  17.223  0.00  0.00    +0.000 A 
ENDBRANCH  21  22
ENDBRANCH  20  21
ENDBRANCH  19  20
BRANCH  19  28
ATOM     28  C   UNL     1       1.482   8.604  20.473  0.00  0.00    +0.000 C 
BRANCH  28  29
ATOM     29  C   UNL     1       2.342   7.840  19.445  0.00  0.00    +0.000 C 
BRANCH  29  30
ATOM     30  C   UNL     1       1.987   6.363  19.441  0.00  0.00    +0.000 A 
ATOM     31  C   UNL     1       1.586   5.719  20.621  0.00  0.00    +0.000 A 
ATOM     32  C   UNL     1       1.323   4.346  20.629  0.00  0.00    +0.000 A 
ATOM     33  C   UNL     1       1.461   3.600  19.461  0.00  0.00    +0.000 A 
ATOM     34  C   UNL     1       1.856   4.229  18.281  0.00  0.00    +0.000 A 
ATOM     35  C   UNL     1       2.118   5.603  18.270  0.00  0.00    +0.000 A 
ENDBRANCH  29  30
ENDBRANCH  28  29
ENDBRANCH  19  28
ENDBRANCH   4  19
TORSDOF 11
ENDMDL
MODEL 7
REMARK VINA RESULT:      -7.2      0.842      5.885
REMARK  Name = 
REMARK  11 active torsions:
REMARK  status: ('A' for Active; 'I' for Inactive)
REMARK    1  A    between atoms: N_1  and  S_2
REMARK    2  A    between atoms: S_2  and  C_5
REMARK    3  A    between atoms: C_7  and  N_8
REMARK    4  A    between atoms: C_11  and  N_12
REMARK    5  A    between atoms: N_12  and  C_13
REMARK    6  A    between atoms: N_12  and  C_21
REMARK    7  A    between atoms: C_13  and  C_14
REMARK    8  A    between atoms: C_14  and  C_15
REMARK    9  A    between atoms: C_21  and  C_22
REMARK   10  A    between atoms: C_22  and  C_23
REMARK   11  A    between atoms: C_29  and  N_30
REMARK                            x       y       z     vdW  Elec       q    Type
REMARK                         _______ _______ _______ _____ _____    ______ ____
ROOT
ATOM      1  C   UNL     1       3.314   3.918  19.024  0.00  0.00    +0.000 A 
ATOM      2  C   UNL     1       4.646   3.785  18.688  0.00  0.00    +0.000 A 
ATOM      3  C   UNL     1       5.377   4.943  18.321  0.00  0.00    +0.000 A 
ATOM      4  C   UNL     1       4.786   6.177  17.907  0.00  0.00    +0.000 A 
ATOM      5  C   UNL     1       3.432   6.246  18.356  0.00  0.00    +0.000 A 
ATOM      6  C   UNL     1       2.713   5.157  18.914  0.00  0.00    +0.000 A 
ENDROOT
BRANCH   1   7
ATOM      7  S   UNL     1       2.541   2.631  19.961  0.00  0.00    +0.000 S 
ATOM      8  O   UNL     1       2.429   1.464  19.124  0.00  0.00    +0.000 OA
ATOM      9  O   UNL     1       1.441   3.191  20.706  0.00  0.00    +0.000 OA
BRANCH   7  10
ATOM     10  N   UNL     1       3.749   2.326  21.089  0.00  0.00    +0.000 NA
ATOM     11  H   UNL     1       3.380   2.372  22.041  0.00  0.00    +0.000 HD
ATOM     12  H   UNL     1       4.566   2.919  20.932  0.00  0.00    +0.000 HD
ENDBRANCH   7  10
ENDBRANCH   1   7
BRANCH   3  13
ATOM     13  N   UNL     1       6.708   4.951  18.946  0.00  0.00    +0.000 N 
ATOM     14  O   UNL     1       7.637   4.418  18.324  0.00  0.00    +0.000 OA
ATOM     15  O   UNL     1       6.805   5.410  20.092  0.00  0.00    +0.000 OA
ENDBRANCH   3  13
BRANCH   5  16
ATOM     16  N   UNL     1       2.716   7.493  18.556  0.00  0.00    +0.000 N 
ATOM     17  O   UNL     1       2.221   7.678  19.675  0.00  0.00    +0.000 OA
ATOM     18  O   UNL     1       2.574   8.224  17.567  0.00  0.00    +0.000 OA
ENDBRANCH   5  16
BRANCH   4  19
ATOM     19  N   UNL     1       5.436   7.074  17.018  0.00  0.00    +0.000 N 
BRANCH  19  20
ATOM     20  C   UNL     1       5.858   6.712  15.603  0.00  0.00    +0.000 C 
BRANCH  20  21
ATOM     21  C   UNL     1       6.516   5.331  15.408  0.00  0.00    +0.000 C 
BRANCH  21  22
ATOM     22  C   UNL     1       6.455   4.641  14.061  0.00  0.00    +0.000 A 
ATOM     23  C   UNL     1       7.442   4.710  13.069  0.00  0.00    +0.000 A 
ATOM     24  C   UNL     1       7.278   4.025  11.861  0.00  0.00    +0.000 A 
ATOM     25  C   UNL     1       6.133   3.253  11.622  0.00  0.00    +0.000 A 
ATOM     26  C   UNL     1       5.146   3.178  12.597  0.00  0.00    +0.000 A 
ATOM     27  C   UNL     1       5.305   3.868  13.798  0.00  0.00    +0.000 A 
ENDBRANCH  21  22
ENDBRANCH  20  21
ENDBRANCH  19  20
BRANCH  19  28
ATOM     28  C   UNL     1       6.176   8.290  17.492  0.00  0.00    +0.000 C 
BRANCH  28  29
ATOM     29  C   UNL     1       7.706   8.115  17.578  0.00  0.00    +0.000 C 
BRANCH  29  30
ATOM     30  C   UNL     1       8.363   9.383  18.095  0.00  0.00    +0.000 A 
ATOM     31  C   UNL     1       9.114   9.370  19.280  0.00  0.00    +0.000 A 
ATOM     32  C   UNL     1       9.663  10.550  19.790  0.00  0.00    +0.000 A 
ATOM     33  C   UNL     1       9.464  11.758  19.125  0.00  0.00    +0.000 A 
ATOM     34  C   UNL     1       8.723  11.784  17.945  0.00  0.00    +0.000 A 
ATOM     35  C   UNL     1       8.175  10.604  17.431  0.00  0.00    +0.000 A 
ENDBRANCH  29  30
ENDBRANCH  28  29
ENDBRANCH  19  28
ENDBRANCH   4  19
TORSDOF 11
ENDMDL
MODEL 8
REMARK VINA RESULT:      -7.1      7.054      9.937
REMARK  Name = 
REMARK  11 active torsions:
REMARK  status: ('A' for Active; 'I' for Inactive)
REMARK    1  A    between atoms: N_1  and  S_2
REMARK    2  A    between atoms: S_2  and  C_5
REMARK    3  A    between atoms: C_7  and  N_8
REMARK    4  A    between atoms: C_11  and  N_12
REMARK    5  A    between atoms: N_12  and  C_13
REMARK    6  A    between atoms: N_12  and  C_21
REMARK    7  A    between atoms: C_13  and  C_14
REMARK    8  A    between atoms: C_14  and  C_15
REMARK    9  A    between atoms: C_21  and  C_22
REMARK   10  A    between atoms: C_22  and  C_23
REMARK   11  A    between atoms: C_29  and  N_30
REMARK                            x       y       z     vdW  Elec       q    Type
REMARK                         _______ _______ _______ _____ _____    ______ ____
ROOT
ATOM      1  C   UNL     1      -1.273  13.135  22.521  0.00  0.00    +0.000 A 
ATOM      2  C   UNL     1      -1.553  11.786  22.593  0.00  0.00    +0.000 A 
ATOM      3  C   UNL     1      -0.674  10.869  21.964  0.00  0.00    +0.000 A 
ATOM      4  C   UNL     1       0.273  11.220  20.951  0.00  0.00    +0.000 A 
ATOM      5  C   UNL     1       0.545  12.620  20.999  0.00  0.00    +0.000 A 
ATOM      6  C   UNL     1      -0.191  13.558  21.771  0.00  0.00    +0.000 A 
ENDROOT
BRANCH   1   7
ATOM      7  S   UNL     1      -2.025  14.224  23.695  0.00  0.00    +0.000 S 
ATOM      8  O   UNL     1      -2.804  15.199  22.976  0.00  0.00    +0.000 OA
ATOM      9  O   UNL     1      -1.055  14.562  24.707  0.00  0.00    +0.000 OA
BRANCH   7  10
ATOM     10  N   UNL     1      -3.102  13.163  24.430  0.00  0.00    +0.000 NA
ATOM     11  H   UNL     1      -3.486  13.568  25.286  0.00  0.00    +0.000 HD
ATOM     12  H   UNL     1      -2.686  12.239  24.559  0.00  0.00    +0.000 HD
ENDBRANCH   7  10
ENDBRANCH   1   7
BRANCH   3  13
ATOM     13  N   UNL     1      -0.416   9.705  22.825  0.00  0.00    +0.000 N 
ATOM     14  O   UNL     1      -0.934   8.627  22.501  0.00  0.00    +0.000 OA
ATOM     15  O   UNL     1       0.229   9.888  23.866  0.00  0.00    +0.000 OA
ENDBRANCH   3  13
BRANCH   5  16
ATOM     16  N   UNL     1       1.766  13.218  20.492  0.00  0.00    +0.000 N 
ATOM     17  O   UNL     1       2.792  13.044  21.162  0.00  0.00    +0.000 OA
ATOM     18  O   UNL     1       1.666  13.935  19.487  0.00  0.00    +0.000 OA
ENDBRANCH   5  16
BRANCH   4  19
ATOM     19  N   UNL     1       0.694  10.304  19.952  0.00  0.00    +0.000 N 
BRANCH  19  20
ATOM     20  C   UNL     1      -0.035  10.086  18.636  0.00  0.00    +0.000 C 
BRANCH  20  21
ATOM     21  C   UNL     1      -1.576  10.132  18.682  0.00  0.00    +0.000 C 
BRANCH  21  22
ATOM     22  C   UNL     1      -2.371  10.305  17.404  0.00  0.00    +0.000 A 
ATOM     23  C   UNL     1      -2.091   9.677  16.183  0.00  0.00    +0.000 A 
ATOM     24  C   UNL     1      -2.901   9.911  15.067  0.00  0.00    +0.000 A 
ATOM     25  C   UNL     1      -4.007  10.767  15.148  0.00  0.00    +0.000 A 
ATOM     26  C   UNL     1      -4.294  11.398  16.353  0.00  0.00    +0.000 A 
ATOM     27  C   UNL     1      -3.482  11.172  17.463  0.00  0.00    +0.000 A 
ENDBRANCH  21  22
ENDBRANCH  20  21
ENDBRANCH  19  20
BRANCH  19  28
ATOM     28  C   UNL     1       1.606   9.148  20.245  0.00  0.00    +0.000 C 
BRANCH  28  29
ATOM     29  C   UNL     1       2.093   8.385  18.996  0.00  0.00    +0.000 C 
BRANCH  29  30
ATOM     30  C   UNL     1       2.129   6.889  19.260  0.00  0.00    +0.000 A 
ATOM     31  C   UNL     1       2.423   5.986  18.228  0.00  0.00    +0.000 A 
ATOM     32  C   UNL     1       2.390   4.607  18.457  0.00  0.00    +0.000 A 
ATOM     33  C   UNL     1       2.059   4.115  19.718  0.00  0.00    +0.000 A 
ATOM     34  C   UNL     1       1.768   5.002  20.752  0.00  0.00    +0.000 A 
ATOM     35  C   UNL     1       1.802   6.382  20.526  0.00  0.00    +0.000 A 
ENDBRANCH  29  30
ENDBRANCH  28  29
ENDBRANCH  19  28
ENDBRANCH   4  19
TORSDOF 11
ENDMDL
MODEL 9
REMARK VINA RESULT:      -7.1      1.288      1.658
REMARK  Name = 
REMARK  11 active torsions:
REMARK  status: ('A' for Active; 'I' for Inactive)
REMARK    1  A    between atoms: N_1  and  S_2
REMARK    2  A    between atoms: S_2  and  C_5
REMARK    3  A    between atoms: C_7  and  N_8
REMARK    4  A    between atoms: C_11  and  N_12
REMARK    5  A    between atoms: N_12  and  C_13
REMARK    6  A    between atoms: N_12  and  C_21
REMARK    7  A    between atoms: C_13  and  C_14
REMARK    8  A    between atoms: C_14  and  C_15
REMARK    9  A    between atoms: C_21  and  C_22
REMARK   10  A    between atoms: C_22  and  C_23
REMARK   11  A    between atoms: C_29  and  N_30
REMARK                            x       y       z     vdW  Elec       q    Type
REMARK                         _______ _______ _______ _____ _____    ______ ____
ROOT
ATOM      1  C   UNL     1       2.300   3.891  18.416  0.00  0.00    +0.000 A 
ATOM      2  C   UNL     1       3.606   3.447  18.365  0.00  0.00    +0.000 A 
ATOM      3  C   UNL     1       4.650   4.402  18.277  0.00  0.00    +0.000 A 
ATOM      4  C   UNL     1       4.474   5.760  17.864  0.00  0.00    +0.000 A 
ATOM      5  C   UNL     1       3.106   6.143  18.014  0.00  0.00    +0.000 A 
ATOM      6  C   UNL     1       2.044   5.244  18.298  0.00  0.00    +0.000 A 
ENDROOT
BRANCH   1   7
ATOM      7  S   UNL     1       1.054   2.799  19.036  0.00  0.00    +0.000 S 
ATOM      8  O   UNL     1       0.035   2.653  18.029  0.00  0.00    +0.000 OA
ATOM      9  O   UNL     1       0.780   3.136  20.411  0.00  0.00    +0.000 OA
BRANCH   7  10
ATOM     10  N   UNL     1       1.923   1.360  19.083  0.00  0.00    +0.000 NA
ATOM     11  H   UNL     1       2.257   1.105  18.152  0.00  0.00    +0.000 HD
ATOM     12  H   UNL     1       1.396   0.621  19.552  0.00  0.00    +0.000 HD
ENDBRANCH   7  10
ENDBRANCH   1   7
BRANCH   3  13
ATOM     13  N   UNL     1       5.763   4.056  19.173  0.00  0.00    +0.000 N 
ATOM     14  O   UNL     1       5.574   3.152  19.999  0.00  0.00    +0.000 OA
ATOM     15  O   UNL     1       6.791   4.743  19.109  0.00  0.00    +0.000 OA
ENDBRANCH   3  13
BRANCH   5  16
ATOM     16  N   UNL     1       2.672   7.519  18.173  0.00  0.00    +0.000 N 
ATOM     17  O   UNL     1       2.734   8.243  17.172  0.00  0.00    +0.000 OA
ATOM     18  O   UNL     1       2.368   7.883  19.317  0.00  0.00    +0.000 OA
ENDBRANCH   5  16
BRANCH   4  19
ATOM     19  N   UNL     1       5.502   6.502  17.227  0.00  0.00    +0.000 N 
BRANCH  19  20
ATOM     20  C   UNL     1       6.065   7.808  17.763  0.00  0.00    +0.000 C 
BRANCH  20  21
ATOM     21  C   UNL     1       7.562   8.075  17.503  0.00  0.00    +0.000 C 
BRANCH  21  22
ATOM     22  C   UNL     1       8.203   9.358  17.991  0.00  0.00    +0.000 A 
ATOM     23  C   UNL     1       8.073  10.613  17.382  0.00  0.00    +0.000 A 
ATOM     24  C   UNL     1       8.710  11.733  17.927  0.00  0.00    +0.000 A 
ATOM     25  C   UNL     1       9.480  11.624  19.092  0.00  0.00    +0.000 A 
ATOM     26  C   UNL     1       9.619  10.384  19.706  0.00  0.00    +0.000 A 
ATOM     27  C   UNL     1       8.991   9.267  19.158  0.00  0.00    +0.000 A 
ENDBRANCH  21  22
ENDBRANCH  20  21
ENDBRANCH  19  20
BRANCH  19  28
ATOM     28  C   UNL     1       5.828   6.348  15.770  0.00  0.00    +0.000 C 
BRANCH  28  29
ATOM     29  C   UNL     1       6.907   5.289  15.464  0.00  0.00    +0.000 C 
BRANCH  29  30
ATOM     30  C   UNL     1       6.621   4.597  14.142  0.00  0.00    +0.000 A 
ATOM     31  C   UNL     1       7.529   4.684  13.077  0.00  0.00    +0.000 A 
ATOM     32  C   UNL     1       7.235   4.103  11.840  0.00  0.00    +0.000 A 
ATOM     33  C   UNL     1       6.028   3.433  11.651  0.00  0.00    +0.000 A 
ATOM     34  C   UNL     1       5.119   3.337  12.703  0.00  0.00    +0.000 A 
ATOM     35  C   UNL     1       5.412   3.916  13.942  0.00  0.00    +0.000 A 
ENDBRANCH  29  30
ENDBRANCH  28  29
ENDBRANCH  19  28
ENDBRANCH   4  19
TORSDOF 11
ENDMDL
