MODEL 1
REMARK VINA RESULT:      -7.5      0.000      0.000
REMARK  Name = 
REMARK  6 active torsions:
REMARK  status: ('A' for Active; 'I' for Inactive)
REMARK    1  A    between atoms: C_1  and  C_2
REMARK    2  A    between atoms: C_5  and  N_6
REMARK    3  A    between atoms: N_6  and  C_7
REMARK    4  A    between atoms: C_7  and  N_9
REMARK    5  A    between atoms: C_10  and  C_12
REMARK    6  A    between atoms: C_19  and  C_20
REMARK                            x       y       z     vdW  Elec       q    Type
REMARK                         _______ _______ _______ _____ _____    ______ ____
ROOT
ATOM      1  C   UNL     1       3.510   4.706  19.957  0.00  0.00    +0.000 C 
ATOM      2  S   UNL     1       2.724   3.288  20.368  0.00  0.00    +0.000 S 
ENDROOT
BRANCH   1   3
ATOM      3  N   UNL     1       2.795   5.873  20.203  0.00  0.00    +0.000 N 
ATOM      4  C   UNL     1       2.452   6.864  19.302  0.00  0.00    +0.000 C 
ATOM      5  O   UNL     1       2.783   6.844  18.117  0.00  0.00    +0.000 OA
ATOM      6  H   UNL     1       2.555   5.981  21.178  0.00  0.00    +0.000 HD
BRANCH   4   7
ATOM      7  C   UNL     1       1.721   8.045  19.815  0.00  0.00    +0.000 A 
ATOM      8  C   UNL     1       1.550   9.113  18.935  0.00  0.00    +0.000 A 
ATOM      9  N   UNL     1       0.944  10.278  19.266  0.00  0.00    +0.000 NA
ATOM     10  C   UNL     1       0.469  10.374  20.527  0.00  0.00    +0.000 A 
ATOM     11  C   UNL     1       0.568   9.352  21.464  0.00  0.00    +0.000 A 
ATOM     12 BR   UNL     1      -0.137   9.582  23.198  0.00  0.00    +0.000 Br
ATOM     13  C   UNL     1       1.201   8.162  21.106  0.00  0.00    +0.000 A 
ENDBRANCH   4   7
ENDBRANCH   1   3
BRANCH   1  14
ATOM     14  N   UNL     1       4.772   4.899  19.436  0.00  0.00    +0.000 N 
ATOM     15  H   UNL     1       5.404   5.346  20.098  0.00  0.00    +0.000 HD
BRANCH  14  20
ATOM     16  C   UNL     1       6.873   4.459  14.098  0.00  0.00    +0.000 C 
ATOM     17  C   UNL     1       6.348   4.519  15.501  0.00  0.00    +0.000 A 
ATOM     18  C   UNL     1       5.060   4.087  15.794  0.00  0.00    +0.000 A 
ATOM     19  C   UNL     1       4.558   4.180  17.095  0.00  0.00    +0.000 A 
ATOM     20  C   UNL     1       5.323   4.694  18.146  0.00  0.00    +0.000 A 
ATOM     21  C   UNL     1       6.643   5.119  17.863  0.00  0.00    +0.000 A 
ATOM     22  C   UNL     1       7.608   5.692  18.872  0.00  0.00    +0.000 C 
ATOM     23  C   UNL     1       7.133   5.024  16.539  0.00  0.00    +0.000 A 
ENDBRANCH  14  20
ENDBRANCH   1  14
TORSDOF 4
ENDMDL
MODEL 2
REMARK VINA RESULT:      -7.4      3.336      7.462
REMARK  Name = 
REMARK  6 active torsions:
REMARK  status: ('A' for Active; 'I' for Inactive)
REMARK    1  A    between atoms: C_1  and  C_2
REMARK    2  A    between atoms: C_5  and  N_6
REMARK    3  A    between atoms: N_6  and  C_7
REMARK    4  A    between atoms: C_7  and  N_9
REMARK    5  A    between atoms: C_10  and  C_12
REMARK    6  A    between atoms: C_19  and  C_20
REMARK                            x       y       z     vdW  Elec       q    Type
REMARK                         _______ _______ _______ _____ _____    ______ ____
ROOT
ATOM      1  C   UNL     1       2.886   5.337  19.261  0.00  0.00    +0.000 C 
ATOM      2  S   UNL     1       2.009   3.959  19.621  0.00  0.00    +0.000 S 
ENDROOT
BRANCH   1   3
ATOM      3  N   UNL     1       3.708   5.242  18.143  0.00  0.00    +0.000 N 
ATOM      4  C   UNL     1       4.928   4.599  18.037  0.00  0.00    +0.000 C 
ATOM      5  O   UNL     1       5.475   4.030  18.981  0.00  0.00    +0.000 OA
ATOM      6  H   UNL     1       3.344   5.753  17.351  0.00  0.00    +0.000 HD
BRANCH   4   7
ATOM      7  C   UNL     1       5.643   4.677  16.743  0.00  0.00    +0.000 A 
ATOM      8  C   UNL     1       6.807   5.443  16.711  0.00  0.00    +0.000 A 
ATOM      9  N   UNL     1       7.549   5.648  15.597  0.00  0.00    +0.000 NA
ATOM     10  C   UNL     1       7.119   5.045  14.467  0.00  0.00    +0.000 A 
ATOM     11  C   UNL     1       5.988   4.240  14.409  0.00  0.00    +0.000 A 
ATOM     12 BR   UNL     1       5.476   3.434  12.783  0.00  0.00    +0.000 Br
ATOM     13  C   UNL     1       5.233   4.046  15.567  0.00  0.00    +0.000 A 
ENDBRANCH   4   7
ENDBRANCH   1   3
BRANCH   1  14
ATOM     14  N   UNL     1       2.900   6.565  19.886  0.00  0.00    +0.000 N 
ATOM     15  H   UNL     1       3.742   6.716  20.437  0.00  0.00    +0.000 HD
BRANCH  14  20
ATOM     16  C   UNL     1      -0.696  11.017  20.487  0.00  0.00    +0.000 C 
ATOM     17  C   UNL     1       0.196   9.826  20.306  0.00  0.00    +0.000 A 
ATOM     18  C   UNL     1       0.326   8.878  21.313  0.00  0.00    +0.000 A 
ATOM     19  C   UNL     1       1.188   7.789  21.158  0.00  0.00    +0.000 A 
ATOM     20  C   UNL     1       1.938   7.602  19.993  0.00  0.00    +0.000 A 
ATOM     21  C   UNL     1       1.799   8.551  18.952  0.00  0.00    +0.000 A 
ATOM     22  C   UNL     1       2.524   8.504  17.630  0.00  0.00    +0.000 C 
ATOM     23  C   UNL     1       0.928   9.651  19.129  0.00  0.00    +0.000 A 
ENDBRANCH  14  20
ENDBRANCH   1  14
TORSDOF 4
ENDMDL
MODEL 3
REMARK VINA RESULT:      -7.3      3.944      7.506
REMARK  Name = 
REMARK  6 active torsions:
REMARK  status: ('A' for Active; 'I' for Inactive)
REMARK    1  A    between atoms: C_1  and  C_2
REMARK    2  A    between atoms: C_5  and  N_6
REMARK    3  A    between atoms: N_6  and  C_7
REMARK    4  A    between atoms: C_7  and  N_9
REMARK    5  A    between atoms: C_10  and  C_12
REMARK    6  A    between atoms: C_19  and  C_20
REMARK                            x       y       z     vdW  Elec       q    Type
REMARK                         _______ _______ _______ _____ _____    ______ ____
ROOT
ATOM      1  C   UNL     1       3.215   3.130  17.850  0.00  0.00    +0.000 C 
ATOM      2  S   UNL     1       3.459   1.697  18.676  0.00  0.00    +0.000 S 
ENDROOT
BRANCH   1   3
ATOM      3  N   UNL     1       4.110   3.380  16.815  0.00  0.00    +0.000 N 
ATOM      4  C   UNL     1       5.178   4.258  16.810  0.00  0.00    +0.000 C 
ATOM      5  O   UNL     1       5.459   4.985  17.762  0.00  0.00    +0.000 OA
ATOM      6  H   UNL     1       3.886   2.862  15.977  0.00  0.00    +0.000 HD
BRANCH   4   7
ATOM      7  C   UNL     1       5.966   4.384  15.563  0.00  0.00    +0.000 A 
ATOM      8  C   UNL     1       7.040   5.273  15.583  0.00  0.00    +0.000 A 
ATOM      9  N   UNL     1       7.828   5.532  14.513  0.00  0.00    +0.000 NA
ATOM     10  C   UNL     1       7.544   4.859  13.377  0.00  0.00    +0.000 A 
ATOM     11  C   UNL     1       6.513   3.933  13.271  0.00  0.00    +0.000 A 
ATOM     12 BR   UNL     1       6.203   3.037  11.640  0.00  0.00    +0.000 Br
ATOM     13  C   UNL     1       5.708   3.684  14.382  0.00  0.00    +0.000 A 
ENDBRANCH   4   7
ENDBRANCH   1   3
BRANCH   1  14
ATOM     14  N   UNL     1       2.242   4.093  18.018  0.00  0.00    +0.000 N 
ATOM     15  H   UNL     1       1.497   4.023  17.327  0.00  0.00    +0.000 HD
BRANCH  14  20
ATOM     16  C   UNL     1       1.392   8.671  21.398  0.00  0.00    +0.000 C 
ATOM     17  C   UNL     1       1.668   7.472  20.541  0.00  0.00    +0.000 A 
ATOM     18  C   UNL     1       2.221   7.619  19.275  0.00  0.00    +0.000 A 
ATOM     19  C   UNL     1       2.442   6.503  18.462  0.00  0.00    +0.000 A 
ATOM     20  C   UNL     1       2.130   5.208  18.887  0.00  0.00    +0.000 A 
ATOM     21  C   UNL     1       1.584   5.045  20.183  0.00  0.00    +0.000 A 
ATOM     22  C   UNL     1       1.195   3.726  20.803  0.00  0.00    +0.000 C 
ATOM     23  C   UNL     1       1.361   6.186  20.989  0.00  0.00    +0.000 A 
ENDBRANCH  14  20
ENDBRANCH   1  14
TORSDOF 4
ENDMDL
MODEL 4
REMARK VINA RESULT:      -7.3      4.263      5.135
REMARK  Name = 
REMARK  6 active torsions:
REMARK  status: ('A' for Active; 'I' for Inactive)
REMARK    1  A    between atoms: C_1  and  C_2
REMARK    2  A    between atoms: C_5  and  N_6
REMARK    3  A    between atoms: N_6  and  C_7
REMARK    4  A    between atoms: C_7  and  N_9
REMARK    5  A    between atoms: C_10  and  C_12
REMARK    6  A    between atoms: C_19  and  C_20
REMARK                            x       y       z     vdW  Elec       q    Type
REMARK                         _______ _______ _______ _____ _____    ______ ____
ROOT
ATOM      1  C   UNL     1       6.959   6.245  16.712  0.00  0.00    +0.000 C 
ATOM      2  S   UNL     1       7.464   7.588  17.572  0.00  0.00    +0.000 S 
ENDROOT
BRANCH   1   3
ATOM      3  N   UNL     1       5.769   5.674  17.149  0.00  0.00    +0.000 N 
ATOM      4  C   UNL     1       5.589   4.775  18.184  0.00  0.00    +0.000 C 
ATOM      5  O   UNL     1       6.515   4.327  18.859  0.00  0.00    +0.000 OA
ATOM      6  H   UNL     1       4.978   5.950  16.585  0.00  0.00    +0.000 HD
BRANCH   4   7
ATOM      7  C   UNL     1       4.220   4.269  18.432  0.00  0.00    +0.000 A 
ATOM      8  C   UNL     1       3.365   4.198  17.333  0.00  0.00    +0.000 A 
ATOM      9  N   UNL     1       2.073   3.799  17.402  0.00  0.00    +0.000 NA
ATOM     10  C   UNL     1       1.619   3.435  18.621  0.00  0.00    +0.000 A 
ATOM     11  C   UNL     1       2.404   3.445  19.767  0.00  0.00    +0.000 A 
ATOM     12 BR   UNL     1       1.677   2.908  21.423  0.00  0.00    +0.000 Br
ATOM     13  C   UNL     1       3.732   3.865  19.677  0.00  0.00    +0.000 A 
ENDBRANCH   4   7
ENDBRANCH   1   3
BRANCH   1  14
ATOM     14  N   UNL     1       7.528   5.632  15.616  0.00  0.00    +0.000 N 
ATOM     15  H   UNL     1       8.513   5.863  15.504  0.00  0.00    +0.000 HD
BRANCH  14  20
ATOM     16  C   UNL     1       5.077   2.723  11.298  0.00  0.00    +0.000 C 
ATOM     17  C   UNL     1       5.754   3.435  12.431  0.00  0.00    +0.000 A 
ATOM     18  C   UNL     1       5.292   3.293  13.734  0.00  0.00    +0.000 A 
ATOM     19  C   UNL     1       5.900   3.988  14.783  0.00  0.00    +0.000 A 
ATOM     20  C   UNL     1       6.991   4.837  14.572  0.00  0.00    +0.000 A 
ATOM     21  C   UNL     1       7.482   4.974  13.251  0.00  0.00    +0.000 A 
ATOM     22  C   UNL     1       8.649   5.838  12.843  0.00  0.00    +0.000 C 
ATOM     23  C   UNL     1       6.851   4.268  12.200  0.00  0.00    +0.000 A 
ENDBRANCH  14  20
ENDBRANCH   1  14
TORSDOF 4
ENDMDL
MODEL 5
REMARK VINA RESULT:      -7.3      1.928      2.467
REMARK  Name = 
REMARK  6 active torsions:
REMARK  status: ('A' for Active; 'I' for Inactive)
REMARK    1  A    between atoms: C_1  and  C_2
REMARK    2  A    between atoms: C_5  and  N_6
REMARK    3  A    between atoms: N_6  and  C_7
REMARK    4  A    between atoms: C_7  and  N_9
REMARK    5  A    between atoms: C_10  and  C_12
REMARK    6  A    between atoms: C_19  and  C_20
REMARK                            x       y       z     vdW  Elec       q    Type
REMARK                         _______ _______ _______ _____ _____    ______ ____
ROOT
ATOM      1  C   UNL     1       2.227   5.742  20.324  0.00  0.00    +0.000 C 
ATOM      2  S   UNL     1       1.392   4.299  20.453  0.00  0.00    +0.000 S 
ENDROOT
BRANCH   1   3
ATOM      3  N   UNL     1       1.577   6.853  20.849  0.00  0.00    +0.000 N 
ATOM      4  C   UNL     1       1.407   8.093  20.262  0.00  0.00    +0.000 C 
ATOM      5  O   UNL     1       1.863   8.386  19.157  0.00  0.00    +0.000 OA
ATOM      6  H   UNL     1       1.241   6.696  21.789  0.00  0.00    +0.000 HD
BRANCH   4   7
ATOM      7  C   UNL     1       0.713   9.141  21.044  0.00  0.00    +0.000 A 
ATOM      8  C   UNL     1       0.837   9.079  22.431  0.00  0.00    +0.000 A 
ATOM      9  N   UNL     1       0.229   9.936  23.286  0.00  0.00    +0.000 NA
ATOM     10  C   UNL     1      -0.521  10.911  22.729  0.00  0.00    +0.000 A 
ATOM     11  C   UNL     1      -0.680  11.070  21.358  0.00  0.00    +0.000 A 
ATOM     12 BR   UNL     1      -1.744  12.472  20.679  0.00  0.00    +0.000 Br
ATOM     13  C   UNL     1      -0.051  10.173  20.493  0.00  0.00    +0.000 A 
ENDBRANCH   4   7
ENDBRANCH   1   3
BRANCH   1  14
ATOM     14  N   UNL     1       3.478   5.997  19.800  0.00  0.00    +0.000 N 
ATOM     15  H   UNL     1       4.055   6.559  20.421  0.00  0.00    +0.000 HD
BRANCH  14  20
ATOM     16  C   UNL     1       6.250   5.007  14.856  0.00  0.00    +0.000 C 
ATOM     17  C   UNL     1       5.477   5.243  16.119  0.00  0.00    +0.000 A 
ATOM     18  C   UNL     1       4.854   6.463  16.351  0.00  0.00    +0.000 A 
ATOM     19  C   UNL     1       4.168   6.695  17.546  0.00  0.00    +0.000 A 
ATOM     20  C   UNL     1       4.070   5.718  18.542  0.00  0.00    +0.000 A 
ATOM     21  C   UNL     1       4.684   4.465  18.308  0.00  0.00    +0.000 A 
ATOM     22  C   UNL     1       4.674   3.300  19.267  0.00  0.00    +0.000 C 
ATOM     23  C   UNL     1       5.381   4.250  17.096  0.00  0.00    +0.000 A 
ENDBRANCH  14  20
ENDBRANCH   1  14
TORSDOF 4
ENDMDL
MODEL 6
REMARK VINA RESULT:      -7.3      3.984      7.289
REMARK  Name = 
REMARK  6 active torsions:
REMARK  status: ('A' for Active; 'I' for Inactive)
REMARK    1  A    between atoms: C_1  and  C_2
REMARK    2  A    between atoms: C_5  and  N_6
REMARK    3  A    between atoms: N_6  and  C_7
REMARK    4  A    between atoms: C_7  and  N_9
REMARK    5  A    between atoms: C_10  and  C_12
REMARK    6  A    between atoms: C_19  and  C_20
REMARK                            x       y       z     vdW  Elec       q    Type
REMARK                         _______ _______ _______ _____ _____    ______ ____
ROOT
ATOM      1  C   UNL     1       4.106   3.392  18.357  0.00  0.00    +0.000 C 
ATOM      2  S   UNL     1       3.523   1.854  18.659  0.00  0.00    +0.000 S 
ENDROOT
BRANCH   1   3
ATOM      3  N   UNL     1       4.703   3.567  17.114  0.00  0.00    +0.000 N 
ATOM      4  C   UNL     1       5.956   4.086  16.839  0.00  0.00    +0.000 C 
ATOM      5  O   UNL     1       6.719   4.504  17.709  0.00  0.00    +0.000 OA
ATOM      6  H   UNL     1       4.094   3.306  16.352  0.00  0.00    +0.000 HD
BRANCH   4   7
ATOM      7  C   UNL     1       6.355   4.217  15.420  0.00  0.00    +0.000 A 
ATOM      8  C   UNL     1       7.370   5.128  15.132  0.00  0.00    +0.000 A 
ATOM      9  N   UNL     1       7.818   5.394  13.881  0.00  0.00    +0.000 NA
ATOM     10  C   UNL     1       7.238   4.705  12.875  0.00  0.00    +0.000 A 
ATOM     11  C   UNL     1       6.240   3.758  13.067  0.00  0.00    +0.000 A 
ATOM     12 BR   UNL     1       5.501   2.842  11.593  0.00  0.00    +0.000 Br
ATOM     13  C   UNL     1       5.788   3.502  14.362  0.00  0.00    +0.000 A 
ENDBRANCH   4   7
ENDBRANCH   1   3
BRANCH   1  14
ATOM     14  N   UNL     1       4.060   4.525  19.142  0.00  0.00    +0.000 N 
ATOM     15  H   UNL     1       4.458   4.377  20.068  0.00  0.00    +0.000 HD
BRANCH  14  20
ATOM     16  C   UNL     1       1.448   9.543  18.096  0.00  0.00    +0.000 C 
ATOM     17  C   UNL     1       2.165   8.264  18.408  0.00  0.00    +0.000 A 
ATOM     18  C   UNL     1       3.258   7.862  17.650  0.00  0.00    +0.000 A 
ATOM     19  C   UNL     1       3.901   6.650  17.917  0.00  0.00    +0.000 A 
ATOM     20  C   UNL     1       3.485   5.806  18.951  0.00  0.00    +0.000 A 
ATOM     21  C   UNL     1       2.384   6.215  19.742  0.00  0.00    +0.000 A 
ATOM     22  C   UNL     1       1.807   5.436  20.897  0.00  0.00    +0.000 C 
ATOM     23  C   UNL     1       1.741   7.441  19.453  0.00  0.00    +0.000 A 
ENDBRANCH  14  20
ENDBRANCH   1  14
TORSDOF 4
ENDMDL
MODEL 7
REMARK VINA RESULT:      -7.2      3.722      7.386
REMARK  Name = 
REMARK  6 active torsions:
REMARK  status: ('A' for Active; 'I' for Inactive)
REMARK    1  A    between atoms: C_1  and  C_2
REMARK    2  A    between atoms: C_5  and  N_6
REMARK    3  A    between atoms: N_6  and  C_7
REMARK    4  A    between atoms: C_7  and  N_9
REMARK    5  A    between atoms: C_10  and  C_12
REMARK    6  A    between atoms: C_19  and  C_20
REMARK                            x       y       z     vdW  Elec       q    Type
REMARK                         _______ _______ _______ _____ _____    ______ ____
ROOT
ATOM      1  C   UNL     1       3.259   3.707  18.358  0.00  0.00    +0.000 C 
ATOM      2  S   UNL     1       2.260   2.367  18.394  0.00  0.00    +0.000 S 
ENDROOT
BRANCH   1   3
ATOM      3  N   UNL     1       4.040   3.835  17.214  0.00  0.00    +0.000 N 
ATOM      4  C   UNL     1       5.372   4.197  17.132  0.00  0.00    +0.000 C 
ATOM      5  O   UNL     1       6.052   4.496  18.113  0.00  0.00    +0.000 OA
ATOM      6  H   UNL     1       3.514   3.671  16.367  0.00  0.00    +0.000 HD
BRANCH   4   7
ATOM      7  C   UNL     1       5.977   4.310  15.786  0.00  0.00    +0.000 A 
ATOM      8  C   UNL     1       7.080   5.154  15.659  0.00  0.00    +0.000 A 
ATOM      9  N   UNL     1       7.718   5.397  14.489  0.00  0.00    +0.000 NA
ATOM     10  C   UNL     1       7.245   4.754  13.400  0.00  0.00    +0.000 A 
ATOM     11  C   UNL     1       6.170   3.873  13.434  0.00  0.00    +0.000 A 
ATOM     12 BR   UNL     1       5.592   3.017  11.856  0.00  0.00    +0.000 Br
ATOM     13  C   UNL     1       5.523   3.640  14.648  0.00  0.00    +0.000 A 
ENDBRANCH   4   7
ENDBRANCH   1   3
BRANCH   1  14
ATOM     14  N   UNL     1       3.407   4.725  19.277  0.00  0.00    +0.000 N 
ATOM     15  H   UNL     1       4.217   4.594  19.879  0.00  0.00    +0.000 HD
BRANCH  14  20
ATOM     16  C   UNL     1       0.479   9.413  20.874  0.00  0.00    +0.000 C 
ATOM     17  C   UNL     1       1.196   8.177  20.421  0.00  0.00    +0.000 A 
ATOM     18  C   UNL     1       1.063   6.985  21.123  0.00  0.00    +0.000 A 
ATOM     19  C   UNL     1       1.763   5.843  20.723  0.00  0.00    +0.000 A 
ATOM     20  C   UNL     1       2.607   5.848  19.608  0.00  0.00    +0.000 A 
ATOM     21  C   UNL     1       2.735   7.052  18.875  0.00  0.00    +0.000 A 
ATOM     22  C   UNL     1       3.593   7.235  17.648  0.00  0.00    +0.000 C 
ATOM     23  C   UNL     1       2.025   8.199  19.298  0.00  0.00    +0.000 A 
ENDBRANCH  14  20
ENDBRANCH   1  14
TORSDOF 4
ENDMDL
MODEL 8
REMARK VINA RESULT:      -7.1      4.741      7.661
REMARK  Name = 
REMARK  6 active torsions:
REMARK  status: ('A' for Active; 'I' for Inactive)
REMARK    1  A    between atoms: C_1  and  C_2
REMARK    2  A    between atoms: C_5  and  N_6
REMARK    3  A    between atoms: N_6  and  C_7
REMARK    4  A    between atoms: C_7  and  N_9
REMARK    5  A    between atoms: C_10  and  C_12
REMARK    6  A    between atoms: C_19  and  C_20
REMARK                            x       y       z     vdW  Elec       q    Type
REMARK                         _______ _______ _______ _____ _____    ______ ____
ROOT
ATOM      1  C   UNL     1       6.744   6.724  17.521  0.00  0.00    +0.000 C 
ATOM      2  S   UNL     1       7.670   8.100  17.732  0.00  0.00    +0.000 S 
ENDROOT
BRANCH   1   3
ATOM      3  N   UNL     1       6.725   6.214  16.227  0.00  0.00    +0.000 N 
ATOM      4  C   UNL     1       7.219   5.000  15.785  0.00  0.00    +0.000 C 
ATOM      5  O   UNL     1       7.793   4.197  16.520  0.00  0.00    +0.000 OA
ATOM      6  H   UNL     1       6.329   6.862  15.562  0.00  0.00    +0.000 HD
BRANCH   4   7
ATOM      7  C   UNL     1       7.124   4.697  14.340  0.00  0.00    +0.000 A 
ATOM      8  C   UNL     1       7.955   5.422  13.487  0.00  0.00    +0.000 A 
ATOM      9  N   UNL     1       7.956   5.294  12.139  0.00  0.00    +0.000 NA
ATOM     10  C   UNL     1       7.100   4.386  11.620  0.00  0.00    +0.000 A 
ATOM     11  C   UNL     1       6.255   3.598  12.391  0.00  0.00    +0.000 A 
ATOM     12 BR   UNL     1       5.103   2.351  11.569  0.00  0.00    +0.000 Br
ATOM     13  C   UNL     1       6.265   3.749  13.778  0.00  0.00    +0.000 A 
ENDBRANCH   4   7
ENDBRANCH   1   3
BRANCH   1  14
ATOM     14  N   UNL     1       6.017   5.997  18.440  0.00  0.00    +0.000 N 
ATOM     15  H   UNL     1       6.474   5.944  19.348  0.00  0.00    +0.000 HD
BRANCH  14  20
ATOM     16  C   UNL     1       1.123   2.970  18.449  0.00  0.00    +0.000 C 
ATOM     17  C   UNL     1       2.402   3.750  18.387  0.00  0.00    +0.000 A 
ATOM     18  C   UNL     1       3.625   3.122  18.594  0.00  0.00    +0.000 A 
ATOM     19  C   UNL     1       4.814   3.857  18.575  0.00  0.00    +0.000 A 
ATOM     20  C   UNL     1       4.825   5.235  18.339  0.00  0.00    +0.000 A 
ATOM     21  C   UNL     1       3.587   5.881  18.108  0.00  0.00    +0.000 A 
ATOM     22  C   UNL     1       3.414   7.355  17.833  0.00  0.00    +0.000 C 
ATOM     23  C   UNL     1       2.393   5.124  18.138  0.00  0.00    +0.000 A 
ENDBRANCH  14  20
ENDBRANCH   1  14
TORSDOF 4
ENDMDL
MODEL 9
REMARK VINA RESULT:      -7.1      1.363      1.577
REMARK  Name = 
REMARK  6 active torsions:
REMARK  status: ('A' for Active; 'I' for Inactive)
REMARK    1  A    between atoms: C_1  and  C_2
REMARK    2  A    between atoms: C_5  and  N_6
REMARK    3  A    between atoms: N_6  and  C_7
REMARK    4  A    between atoms: C_7  and  N_9
REMARK    5  A    between atoms: C_10  and  C_12
REMARK    6  A    between atoms: C_19  and  C_20
REMARK                            x       y       z     vdW  Elec       q    Type
REMARK                         _______ _______ _______ _____ _____    ______ ____
ROOT
ATOM      1  C   UNL     1       3.116   5.193  20.032  0.00  0.00    +0.000 C 
ATOM      2  S   UNL     1       2.288   3.759  20.266  0.00  0.00    +0.000 S 
ENDROOT
BRANCH   1   3
ATOM      3  N   UNL     1       2.439   6.341  20.428  0.00  0.00    +0.000 N 
ATOM      4  C   UNL     1       2.091   7.431  19.652  0.00  0.00    +0.000 C 
ATOM      5  O   UNL     1       2.384   7.533  18.461  0.00  0.00    +0.000 OA
ATOM      6  H   UNL     1       2.233   6.347  21.417  0.00  0.00    +0.000 HD
BRANCH   4   7
ATOM      7  C   UNL     1       1.407   8.564  20.315  0.00  0.00    +0.000 A 
ATOM      8  C   UNL     1       1.437   8.591  21.709  0.00  0.00    +0.000 A 
ATOM      9  N   UNL     1       0.823   9.534  22.462  0.00  0.00    +0.000 NA
ATOM     10  C   UNL     1       0.165  10.505  21.793  0.00  0.00    +0.000 A 
ATOM     11  C   UNL     1       0.105  10.578  20.407  0.00  0.00    +0.000 A 
ATOM     12 BR   UNL     1      -0.833  11.983  19.567  0.00  0.00    +0.000 Br
ATOM     13  C   UNL     1       0.739   9.593  19.648  0.00  0.00    +0.000 A 
ENDBRANCH   4   7
ENDBRANCH   1   3
BRANCH   1  14
ATOM     14  N   UNL     1       4.383   5.411  19.532  0.00  0.00    +0.000 N 
ATOM     15  H   UNL     1       4.950   5.997  20.143  0.00  0.00    +0.000 HD
BRANCH  14  20
ATOM     16  C   UNL     1       6.855   4.431  14.430  0.00  0.00    +0.000 C 
ATOM     17  C   UNL     1       6.222   4.629  15.774  0.00  0.00    +0.000 A 
ATOM     18  C   UNL     1       4.857   4.438  15.949  0.00  0.00    +0.000 A 
ATOM     19  C   UNL     1       4.262   4.661  17.194  0.00  0.00    +0.000 A 
ATOM     20  C   UNL     1       5.006   5.070  18.305  0.00  0.00    +0.000 A 
ATOM     21  C   UNL     1       6.400   5.249  18.143  0.00  0.00    +0.000 A 
ATOM     22  C   UNL     1       7.354   5.679  19.231  0.00  0.00    +0.000 C 
ATOM     23  C   UNL     1       6.985   5.026  16.875  0.00  0.00    +0.000 A 
ENDBRANCH  14  20
ENDBRANCH   1  14
TORSDOF 4
ENDMDL
