MODEL 1
REMARK VINA RESULT:      -7.1      0.000      0.000
REMARK  Name = 
REMARK  6 active torsions:
REMARK  status: ('A' for Active; 'I' for Inactive)
REMARK    1  A    between atoms: C_1  and  C_2
REMARK    2  A    between atoms: N_5  and  C_6
REMARK    3  A    between atoms: C_6  and  C_7
REMARK    4  A    between atoms: C_12  and  C_14
REMARK    5  A    between atoms: C_14  and  C_15
REMARK    6  A    between atoms: C_15  and  C_16
REMARK                            x       y       z     vdW  Elec       q    Type
REMARK                         _______ _______ _______ _____ _____    ______ ____
ROOT
ATOM      1  C   UNL     1       2.185   5.235  18.753  0.00  0.00    +0.000 C 
ATOM      2  C   UNL     1       1.499   4.085  19.508  0.00  0.00    +0.000 C 
ATOM      3  C   UNL     1       1.356   2.986  18.469  0.00  0.00    +0.000 C 
ATOM      4  C   UNL     1       2.551   3.173  17.553  0.00  0.00    +0.000 C 
ATOM      5  N   UNL     1       3.080   4.504  17.832  0.00  0.00    +0.000 N 
ATOM      6  C   UNL     1       4.137   5.064  17.125  0.00  0.00    +0.000 C 
ATOM      7  O   UNL     1       4.519   6.217  17.306  0.00  0.00    +0.000 OA
ENDROOT
BRANCH   1   8
ATOM      8  C   UNL     1       2.810   6.259  19.711  0.00  0.00    +0.000 C 
BRANCH   8  13
ATOM      9  C   UNL     1      -0.083  10.142  21.098  0.00  0.00    +0.000 C 
ATOM     10  C   UNL     1       0.801   9.214  20.355  0.00  0.00    +0.000 A 
ATOM     11  C   UNL     1       1.289   9.349  19.038  0.00  0.00    +0.000 A 
ATOM     12  N   UNL     1       2.057   8.322  18.664  0.00  0.00    +0.000 NA
ATOM     13  N   UNL     1       2.067   7.514  19.743  0.00  0.00    +0.000 N 
ATOM     14  C   UNL     1       1.332   8.012  20.784  0.00  0.00    +0.000 A 
ENDBRANCH   8  13
ENDBRANCH   1   8
BRANCH   6  15
ATOM     15  C   UNL     1       4.796   4.141  16.101  0.00  0.00    +0.000 C 
BRANCH  15  16
ATOM     16  C   UNL     1       6.307   4.314  15.978  0.00  0.00    +0.000 C 
BRANCH  16  17
ATOM     17  C   UNL     1       6.717   4.408  14.545  0.00  0.00    +0.000 A 
ATOM     18  C   UNL     1       6.308   3.778  13.387  0.00  0.00    +0.000 A 
ATOM     19  C   UNL     1       7.092   4.318  12.336  0.00  0.00    +0.000 A 
ATOM     20  C   UNL     1       7.932   5.234  12.917  0.00  0.00    +0.000 A 
ATOM     21  O   UNL     1       7.716   5.293  14.258  0.00  0.00    +0.000 OA
ENDBRANCH  16  17
ENDBRANCH  15  16
ENDBRANCH   6  15
TORSDOF 5
ENDMDL
MODEL 2
REMARK VINA RESULT:      -7.1      1.222      1.713
REMARK  Name = 
REMARK  6 active torsions:
REMARK  status: ('A' for Active; 'I' for Inactive)
REMARK    1  A    between atoms: C_1  and  C_2
REMARK    2  A    between atoms: N_5  and  C_6
REMARK    3  A    between atoms: C_6  and  C_7
REMARK    4  A    between atoms: C_12  and  C_14
REMARK    5  A    between atoms: C_14  and  C_15
REMARK    6  A    between atoms: C_15  and  C_16
REMARK                            x       y       z     vdW  Elec       q    Type
REMARK                         _______ _______ _______ _____ _____    ______ ____
ROOT
ATOM      1  C   UNL     1       2.541   4.587  18.956  0.00  0.00    +0.000 C 
ATOM      2  C   UNL     1       1.738   3.279  19.039  0.00  0.00    +0.000 C 
ATOM      3  C   UNL     1       2.342   2.397  17.960  0.00  0.00    +0.000 C 
ATOM      4  C   UNL     1       3.798   2.819  17.897  0.00  0.00    +0.000 C 
ATOM      5  N   UNL     1       3.888   4.095  18.600  0.00  0.00    +0.000 N 
ATOM      6  C   UNL     1       5.062   4.835  18.683  0.00  0.00    +0.000 C 
ATOM      7  O   UNL     1       5.109   5.947  19.199  0.00  0.00    +0.000 OA
ENDROOT
BRANCH   1   8
ATOM      8  C   UNL     1       2.391   5.434  20.227  0.00  0.00    +0.000 C 
BRANCH   8  13
ATOM      9  C   UNL     1       1.729   9.888  17.970  0.00  0.00    +0.000 C 
ATOM     10  C   UNL     1       1.753   8.768  18.940  0.00  0.00    +0.000 A 
ATOM     11  C   UNL     1       1.320   8.775  20.283  0.00  0.00    +0.000 A 
ATOM     12  N   UNL     1       1.493   7.597  20.888  0.00  0.00    +0.000 NA
ATOM     13  N   UNL     1       2.043   6.820  19.933  0.00  0.00    +0.000 N 
ATOM     14  C   UNL     1       2.211   7.479  18.746  0.00  0.00    +0.000 A 
ENDBRANCH   8  13
ENDBRANCH   1   8
BRANCH   6  15
ATOM     15  C   UNL     1       6.297   4.163  18.084  0.00  0.00    +0.000 C 
BRANCH  15  16
ATOM     16  C   UNL     1       7.112   5.058  17.155  0.00  0.00    +0.000 C 
BRANCH  16  17
ATOM     17  C   UNL     1       6.868   4.703  15.725  0.00  0.00    +0.000 A 
ATOM     18  C   UNL     1       6.015   3.824  15.087  0.00  0.00    +0.000 A 
ATOM     19  C   UNL     1       6.264   3.960  13.697  0.00  0.00    +0.000 A 
ATOM     20  C   UNL     1       7.253   4.902  13.575  0.00  0.00    +0.000 A 
ATOM     21  O   UNL     1       7.631   5.356  14.800  0.00  0.00    +0.000 OA
ENDBRANCH  16  17
ENDBRANCH  15  16
ENDBRANCH   6  15
TORSDOF 5
ENDMDL
MODEL 3
REMARK VINA RESULT:      -6.8      2.631      7.021
REMARK  Name = 
REMARK  6 active torsions:
REMARK  status: ('A' for Active; 'I' for Inactive)
REMARK    1  A    between atoms: C_1  and  C_2
REMARK    2  A    between atoms: N_5  and  C_6
REMARK    3  A    between atoms: C_6  and  C_7
REMARK    4  A    between atoms: C_12  and  C_14
REMARK    5  A    between atoms: C_14  and  C_15
REMARK    6  A    between atoms: C_15  and  C_16
REMARK                            x       y       z     vdW  Elec       q    Type
REMARK                         _______ _______ _______ _____ _____    ______ ____
ROOT
ATOM      1  C   UNL     1       4.869   5.969  17.020  0.00  0.00    +0.000 C 
ATOM      2  C   UNL     1       4.189   7.336  17.193  0.00  0.00    +0.000 C 
ATOM      3  C   UNL     1       3.014   7.058  18.114  0.00  0.00    +0.000 C 
ATOM      4  C   UNL     1       3.486   5.918  18.997  0.00  0.00    +0.000 C 
ATOM      5  N   UNL     1       4.668   5.357  18.349  0.00  0.00    +0.000 N 
ATOM      6  C   UNL     1       5.336   4.237  18.829  0.00  0.00    +0.000 C 
ATOM      7  O   UNL     1       6.275   3.719  18.230  0.00  0.00    +0.000 OA
ENDROOT
BRANCH   1   8
ATOM      8  C   UNL     1       6.305   6.104  16.493  0.00  0.00    +0.000 C 
BRANCH   8  13
ATOM      9  C   UNL     1       5.713   3.193  12.427  0.00  0.00    +0.000 C 
ATOM     10  C   UNL     1       6.239   4.125  13.451  0.00  0.00    +0.000 A 
ATOM     11  C   UNL     1       7.499   4.758  13.482  0.00  0.00    +0.000 A 
ATOM     12  N   UNL     1       7.663   5.532  14.558  0.00  0.00    +0.000 NA
ATOM     13  N   UNL     1       6.503   5.400  15.231  0.00  0.00    +0.000 N 
ATOM     14  C   UNL     1       5.616   4.570  14.601  0.00  0.00    +0.000 A 
ENDBRANCH   8  13
ENDBRANCH   1   8
BRANCH   6  15
ATOM     15  C   UNL     1       4.820   3.692  20.159  0.00  0.00    +0.000 C 
BRANCH  15  16
ATOM     16  C   UNL     1       4.149   2.325  20.061  0.00  0.00    +0.000 C 
BRANCH  16  17
ATOM     17  C   UNL     1       2.717   2.463  19.662  0.00  0.00    +0.000 A 
ATOM     18  C   UNL     1       2.014   2.200  18.504  0.00  0.00    +0.000 A 
ATOM     19  C   UNL     1       0.662   2.541  18.766  0.00  0.00    +0.000 A 
ATOM     20  C   UNL     1       0.626   2.995  20.059  0.00  0.00    +0.000 A 
ATOM     21  O   UNL     1       1.868   2.957  20.612  0.00  0.00    +0.000 OA
ENDBRANCH  16  17
ENDBRANCH  15  16
ENDBRANCH   6  15
TORSDOF 5
ENDMDL
MODEL 4
REMARK VINA RESULT:      -6.8      2.805      5.209
REMARK  Name = 
REMARK  6 active torsions:
REMARK  status: ('A' for Active; 'I' for Inactive)
REMARK    1  A    between atoms: C_1  and  C_2
REMARK    2  A    between atoms: N_5  and  C_6
REMARK    3  A    between atoms: C_6  and  C_7
REMARK    4  A    between atoms: C_12  and  C_14
REMARK    5  A    between atoms: C_14  and  C_15
REMARK    6  A    between atoms: C_15  and  C_16
REMARK                            x       y       z     vdW  Elec       q    Type
REMARK                         _______ _______ _______ _____ _____    ______ ____
ROOT
ATOM      1  C   UNL     1       4.646   6.600  17.778  0.00  0.00    +0.000 C 
ATOM      2  C   UNL     1       6.076   6.969  17.354  0.00  0.00    +0.000 C 
ATOM      3  C   UNL     1       6.921   5.794  17.815  0.00  0.00    +0.000 C 
ATOM      4  C   UNL     1       5.993   4.598  17.715  0.00  0.00    +0.000 C 
ATOM      5  N   UNL     1       4.641   5.134  17.591  0.00  0.00    +0.000 N 
ATOM      6  C   UNL     1       3.507   4.332  17.554  0.00  0.00    +0.000 C 
ATOM      7  O   UNL     1       2.369   4.794  17.539  0.00  0.00    +0.000 OA
ENDROOT
BRANCH   1   8
ATOM      8  C   UNL     1       3.593   7.430  17.031  0.00  0.00    +0.000 C 
BRANCH   8  13
ATOM      9  C   UNL     1       0.759   8.747  20.981  0.00  0.00    +0.000 C 
ATOM     10  C   UNL     1       1.451   8.702  19.672  0.00  0.00    +0.000 A 
ATOM     11  C   UNL     1       1.355   9.625  18.609  0.00  0.00    +0.000 A 
ATOM     12  N   UNL     1       2.105   9.282  17.558  0.00  0.00    +0.000 NA
ATOM     13  N   UNL     1       2.689   8.128  17.939  0.00  0.00    +0.000 N 
ATOM     14  C   UNL     1       2.331   7.746  19.203  0.00  0.00    +0.000 A 
ENDBRANCH   8  13
ENDBRANCH   1   8
BRANCH   6  15
ATOM     15  C   UNL     1       3.775   2.828  17.533  0.00  0.00    +0.000 C 
BRANCH  15  16
ATOM     16  C   UNL     1       2.607   1.974  18.021  0.00  0.00    +0.000 C 
BRANCH  16  17
ATOM     17  C   UNL     1       2.219   2.348  19.413  0.00  0.00    +0.000 A 
ATOM     18  C   UNL     1       1.028   2.700  20.015  0.00  0.00    +0.000 A 
ATOM     19  C   UNL     1       1.321   2.935  21.382  0.00  0.00    +0.000 A 
ATOM     20  C   UNL     1       2.668   2.720  21.527  0.00  0.00    +0.000 A 
ATOM     21  O   UNL     1       3.224   2.369  20.338  0.00  0.00    +0.000 OA
ENDBRANCH  16  17
ENDBRANCH  15  16
ENDBRANCH   6  15
TORSDOF 5
ENDMDL
MODEL 5
REMARK VINA RESULT:      -6.8      1.231      1.532
REMARK  Name = 
REMARK  6 active torsions:
REMARK  status: ('A' for Active; 'I' for Inactive)
REMARK    1  A    between atoms: C_1  and  C_2
REMARK    2  A    between atoms: N_5  and  C_6
REMARK    3  A    between atoms: C_6  and  C_7
REMARK    4  A    between atoms: C_12  and  C_14
REMARK    5  A    between atoms: C_14  and  C_15
REMARK    6  A    between atoms: C_15  and  C_16
REMARK                            x       y       z     vdW  Elec       q    Type
REMARK                         _______ _______ _______ _____ _____    ______ ____
ROOT
ATOM      1  C   UNL     1       2.123   5.469  19.493  0.00  0.00    +0.000 C 
ATOM      2  C   UNL     1       1.246   4.468  20.262  0.00  0.00    +0.000 C 
ATOM      3  C   UNL     1       1.547   3.128  19.612  0.00  0.00    +0.000 C 
ATOM      4  C   UNL     1       2.991   3.241  19.161  0.00  0.00    +0.000 C 
ATOM      5  N   UNL     1       3.326   4.662  19.203  0.00  0.00    +0.000 N 
ATOM      6  C   UNL     1       4.550   5.165  18.781  0.00  0.00    +0.000 C 
ATOM      7  O   UNL     1       4.792   6.368  18.736  0.00  0.00    +0.000 OA
ENDROOT
BRANCH   1   8
ATOM      8  C   UNL     1       2.301   6.786  20.263  0.00  0.00    +0.000 C 
BRANCH   8  13
ATOM      9  C   UNL     1       0.298  11.178  18.826  0.00  0.00    +0.000 C 
ATOM     10  C   UNL     1       0.991   9.869  18.864  0.00  0.00    +0.000 A 
ATOM     11  C   UNL     1       1.585   9.171  17.791  0.00  0.00    +0.000 A 
ATOM     12  N   UNL     1       2.119   8.005  18.165  0.00  0.00    +0.000 NA
ATOM     13  N   UNL     1       1.868   7.944  19.489  0.00  0.00    +0.000 N 
ATOM     14  C   UNL     1       1.199   9.044  19.952  0.00  0.00    +0.000 A 
ENDBRANCH   8  13
ENDBRANCH   1   8
BRANCH   6  15
ATOM     15  C   UNL     1       5.580   4.113  18.373  0.00  0.00    +0.000 C 
BRANCH  15  16
ATOM     16  C   UNL     1       6.798   4.674  17.646  0.00  0.00    +0.000 C 
BRANCH  16  17
ATOM     17  C   UNL     1       6.657   4.513  16.168  0.00  0.00    +0.000 A 
ATOM     18  C   UNL     1       5.858   3.729  15.361  0.00  0.00    +0.000 A 
ATOM     19  C   UNL     1       6.202   4.047  14.023  0.00  0.00    +0.000 A 
ATOM     20  C   UNL     1       7.189   4.996  14.096  0.00  0.00    +0.000 A 
ATOM     21  O   UNL     1       7.477   5.282  15.393  0.00  0.00    +0.000 OA
ENDBRANCH  16  17
ENDBRANCH  15  16
ENDBRANCH   6  15
TORSDOF 5
ENDMDL
MODEL 6
REMARK VINA RESULT:      -6.8      2.969      4.174
REMARK  Name = 
REMARK  6 active torsions:
REMARK  status: ('A' for Active; 'I' for Inactive)
REMARK    1  A    between atoms: C_1  and  C_2
REMARK    2  A    between atoms: N_5  and  C_6
REMARK    3  A    between atoms: C_6  and  C_7
REMARK    4  A    between atoms: C_12  and  C_14
REMARK    5  A    between atoms: C_14  and  C_15
REMARK    6  A    between atoms: C_15  and  C_16
REMARK                            x       y       z     vdW  Elec       q    Type
REMARK                         _______ _______ _______ _____ _____    ______ ____
ROOT
ATOM      1  C   UNL     1       5.400   4.786  18.278  0.00  0.00    +0.000 C 
ATOM      2  C   UNL     1       6.508   5.531  19.041  0.00  0.00    +0.000 C 
ATOM      3  C   UNL     1       7.799   4.964  18.478  0.00  0.00    +0.000 C 
ATOM      4  C   UNL     1       7.465   4.617  17.039  0.00  0.00    +0.000 C 
ATOM      5  N   UNL     1       6.008   4.622  16.942  0.00  0.00    +0.000 N 
ATOM      6  C   UNL     1       5.324   4.270  15.785  0.00  0.00    +0.000 C 
ATOM      7  O   UNL     1       4.100   4.192  15.737  0.00  0.00    +0.000 OA
ENDROOT
BRANCH   1   8
ATOM      8  C   UNL     1       4.050   5.510  18.377  0.00  0.00    +0.000 C 
BRANCH   8  13
ATOM      9  C   UNL     1       1.393   2.642  21.553  0.00  0.00    +0.000 C 
ATOM     10  C   UNL     1       1.858   3.426  20.384  0.00  0.00    +0.000 A 
ATOM     11  C   UNL     1       1.207   3.602  19.145  0.00  0.00    +0.000 A 
ATOM     12  N   UNL     1       1.906   4.361  18.298  0.00  0.00    +0.000 NA
ATOM     13  N   UNL     1       3.018   4.679  18.990  0.00  0.00    +0.000 N 
ATOM     14  C   UNL     1       3.030   4.145  20.249  0.00  0.00    +0.000 A 
ENDBRANCH   8  13
ENDBRANCH   1   8
BRANCH   6  15
ATOM     15  C   UNL     1       6.205   3.985  14.570  0.00  0.00    +0.000 C 
BRANCH  15  16
ATOM     16  C   UNL     1       5.481   4.085  13.230  0.00  0.00    +0.000 C 
BRANCH  16  17
ATOM     17  C   UNL     1       5.982   3.052  12.276  0.00  0.00    +0.000 A 
ATOM     18  C   UNL     1       5.400   1.982  11.627  0.00  0.00    +0.000 A 
ATOM     19  C   UNL     1       6.418   1.385  10.841  0.00  0.00    +0.000 A 
ATOM     20  C   UNL     1       7.555   2.119  11.064  0.00  0.00    +0.000 A 
ATOM     21  O   UNL     1       7.303   3.130  11.937  0.00  0.00    +0.000 OA
ENDBRANCH  16  17
ENDBRANCH  15  16
ENDBRANCH   6  15
TORSDOF 5
ENDMDL
MODEL 7
REMARK VINA RESULT:      -6.7      2.223      7.837
REMARK  Name = 
REMARK  6 active torsions:
REMARK  status: ('A' for Active; 'I' for Inactive)
REMARK    1  A    between atoms: C_1  and  C_2
REMARK    2  A    between atoms: N_5  and  C_6
REMARK    3  A    between atoms: C_6  and  C_7
REMARK    4  A    between atoms: C_12  and  C_14
REMARK    5  A    between atoms: C_14  and  C_15
REMARK    6  A    between atoms: C_15  and  C_16
REMARK                            x       y       z     vdW  Elec       q    Type
REMARK                         _______ _______ _______ _____ _____    ______ ____
ROOT
ATOM      1  C   UNL     1       3.319   3.897  19.325  0.00  0.00    +0.000 C 
ATOM      2  C   UNL     1       2.743   2.586  19.884  0.00  0.00    +0.000 C 
ATOM      3  C   UNL     1       2.426   2.903  21.335  0.00  0.00    +0.000 C 
ATOM      4  C   UNL     1       2.066   4.377  21.331  0.00  0.00    +0.000 C 
ATOM      5  N   UNL     1       2.533   4.912  20.056  0.00  0.00    +0.000 N 
ATOM      6  C   UNL     1       2.449   6.258  19.721  0.00  0.00    +0.000 C 
ATOM      7  O   UNL     1       2.924   6.714  18.685  0.00  0.00    +0.000 OA
ENDROOT
BRANCH   1   8
ATOM      8  C   UNL     1       3.294   3.926  17.790  0.00  0.00    +0.000 C 
BRANCH   8  13
ATOM      9  C   UNL     1       7.118   4.779  14.624  0.00  0.00    +0.000 C 
ATOM     10  C   UNL     1       6.277   4.585  15.829  0.00  0.00    +0.000 A 
ATOM     11  C   UNL     1       6.681   4.612  17.181  0.00  0.00    +0.000 A 
ATOM     12  N   UNL     1       5.672   4.387  18.026  0.00  0.00    +0.000 NA
ATOM     13  N   UNL     1       4.606   4.210  17.219  0.00  0.00    +0.000 N 
ATOM     14  C   UNL     1       4.922   4.326  15.893  0.00  0.00    +0.000 A 
ENDBRANCH   8  13
ENDBRANCH   1   8
BRANCH   6  15
ATOM     15  C   UNL     1       1.721   7.136  20.737  0.00  0.00    +0.000 C 
BRANCH  15  16
ATOM     16  C   UNL     1       1.329   8.514  20.211  0.00  0.00    +0.000 C 
BRANCH  16  17
ATOM     17  C   UNL     1       0.533   9.265  21.227  0.00  0.00    +0.000 A 
ATOM     18  C   UNL     1      -0.259   8.889  22.293  0.00  0.00    +0.000 A 
ATOM     19  C   UNL     1      -0.740  10.088  22.880  0.00  0.00    +0.000 A 
ATOM     20  C   UNL     1      -0.220  11.114  22.134  0.00  0.00    +0.000 A 
ATOM     21  O   UNL     1       0.550  10.627  21.125  0.00  0.00    +0.000 OA
ENDBRANCH  16  17
ENDBRANCH  15  16
ENDBRANCH   6  15
TORSDOF 5
ENDMDL
MODEL 8
REMARK VINA RESULT:      -6.7      4.094      5.769
REMARK  Name = 
REMARK  6 active torsions:
REMARK  status: ('A' for Active; 'I' for Inactive)
REMARK    1  A    between atoms: C_1  and  C_2
REMARK    2  A    between atoms: N_5  and  C_6
REMARK    3  A    between atoms: C_6  and  C_7
REMARK    4  A    between atoms: C_12  and  C_14
REMARK    5  A    between atoms: C_14  and  C_15
REMARK    6  A    between atoms: C_15  and  C_16
REMARK                            x       y       z     vdW  Elec       q    Type
REMARK                         _______ _______ _______ _____ _____    ______ ____
ROOT
ATOM      1  C   UNL     1       5.172   4.517  17.476  0.00  0.00    +0.000 C 
ATOM      2  C   UNL     1       5.185   3.879  16.077  0.00  0.00    +0.000 C 
ATOM      3  C   UNL     1       5.697   4.981  15.166  0.00  0.00    +0.000 C 
ATOM      4  C   UNL     1       6.637   5.789  16.040  0.00  0.00    +0.000 C 
ATOM      5  N   UNL     1       6.355   5.401  17.418  0.00  0.00    +0.000 N 
ATOM      6  C   UNL     1       6.970   5.992  18.515  0.00  0.00    +0.000 C 
ATOM      7  O   UNL     1       6.664   5.722  19.672  0.00  0.00    +0.000 OA
ENDROOT
BRANCH   1   8
ATOM      8  C   UNL     1       5.109   3.461  18.588  0.00  0.00    +0.000 C 
BRANCH   8  13
ATOM      9  C   UNL     1       1.304   2.716  21.803  0.00  0.00    +0.000 C 
ATOM     10  C   UNL     1       2.289   3.310  20.869  0.00  0.00    +0.000 A 
ATOM     11  C   UNL     1       2.362   4.646  20.421  0.00  0.00    +0.000 A 
ATOM     12  N   UNL     1       3.369   4.851  19.568  0.00  0.00    +0.000 NA
ATOM     13  N   UNL     1       3.953   3.640  19.460  0.00  0.00    +0.000 N 
ATOM     14  C   UNL     1       3.342   2.687  20.228  0.00  0.00    +0.000 A 
ENDBRANCH   8  13
ENDBRANCH   1   8
BRANCH   6  15
ATOM     15  C   UNL     1       8.061   7.008  18.178  0.00  0.00    +0.000 C 
BRANCH  15  16
ATOM     16  C   UNL     1       7.538   8.344  17.658  0.00  0.00    +0.000 C 
BRANCH  16  17
ATOM     17  C   UNL     1       8.344   9.478  18.200  0.00  0.00    +0.000 A 
ATOM     18  C   UNL     1       9.188   9.623  19.283  0.00  0.00    +0.000 A 
ATOM     19  C   UNL     1       9.657  10.961  19.250  0.00  0.00    +0.000 A 
ATOM     20  C   UNL     1       9.068  11.548  18.160  0.00  0.00    +0.000 A 
ATOM     21  O   UNL     1       8.265  10.658  17.518  0.00  0.00    +0.000 OA
ENDBRANCH  16  17
ENDBRANCH  15  16
ENDBRANCH   6  15
TORSDOF 5
ENDMDL
MODEL 9
REMARK VINA RESULT:      -6.7      1.913      2.820
REMARK  Name = 
REMARK  6 active torsions:
REMARK  status: ('A' for Active; 'I' for Inactive)
REMARK    1  A    between atoms: C_1  and  C_2
REMARK    2  A    between atoms: N_5  and  C_6
REMARK    3  A    between atoms: C_6  and  C_7
REMARK    4  A    between atoms: C_12  and  C_14
REMARK    5  A    between atoms: C_14  and  C_15
REMARK    6  A    between atoms: C_15  and  C_16
REMARK                            x       y       z     vdW  Elec       q    Type
REMARK                         _______ _______ _______ _____ _____    ______ ____
ROOT
ATOM      1  C   UNL     1       2.203   5.429  18.757  0.00  0.00    +0.000 C 
ATOM      2  C   UNL     1       1.658   4.118  19.345  0.00  0.00    +0.000 C 
ATOM      3  C   UNL     1       1.647   3.154  18.171  0.00  0.00    +0.000 C 
ATOM      4  C   UNL     1       2.811   3.599  17.305  0.00  0.00    +0.000 C 
ATOM      5  N   UNL     1       3.178   4.935  17.763  0.00  0.00    +0.000 N 
ATOM      6  C   UNL     1       4.161   5.703  17.151  0.00  0.00    +0.000 C 
ATOM      7  O   UNL     1       4.404   6.859  17.486  0.00  0.00    +0.000 OA
ENDROOT
BRANCH   1   8
ATOM      8  C   UNL     1       2.701   6.385  19.850  0.00  0.00    +0.000 C 
BRANCH   8  13
ATOM      9  C   UNL     1       0.455  10.757  18.750  0.00  0.00    +0.000 C 
ATOM     10  C   UNL     1       0.936   9.528  19.424  0.00  0.00    +0.000 A 
ATOM     11  C   UNL     1       0.693   9.117  20.752  0.00  0.00    +0.000 A 
ATOM     12  N   UNL     1       1.286   7.958  21.050  0.00  0.00    +0.000 NA
ATOM     13  N   UNL     1       1.919   7.615  19.911  0.00  0.00    +0.000 N 
ATOM     14  C   UNL     1       1.732   8.525  18.906  0.00  0.00    +0.000 A 
ENDBRANCH   8  13
ENDBRANCH   1   8
BRANCH   6  15
ATOM     15  C   UNL     1       4.925   5.006  16.026  0.00  0.00    +0.000 C 
BRANCH  15  16
ATOM     16  C   UNL     1       6.237   4.360  16.462  0.00  0.00    +0.000 C 
BRANCH  16  17
ATOM     17  C   UNL     1       6.961   5.231  17.435  0.00  0.00    +0.000 A 
ATOM     18  C   UNL     1       7.554   6.475  17.351  0.00  0.00    +0.000 A 
ATOM     19  C   UNL     1       8.074   6.761  18.640  0.00  0.00    +0.000 A 
ATOM     20  C   UNL     1       7.773   5.676  19.423  0.00  0.00    +0.000 A 
ATOM     21  O   UNL     1       7.102   4.740  18.701  0.00  0.00    +0.000 OA
ENDBRANCH  16  17
ENDBRANCH  15  16
ENDBRANCH   6  15
TORSDOF 5
ENDMDL
