MODEL 1
REMARK VINA RESULT:      -7.2      0.000      0.000
REMARK  Name = 
REMARK  2 active torsions:
REMARK  status: ('A' for Active; 'I' for Inactive)
REMARK    1  A    between atoms: C_2  and  C_10
REMARK    2  A    between atoms: N_3  and  C_4
REMARK                            x       y       z     vdW  Elec       q    Type
REMARK                         _______ _______ _______ _____ _____    ______ ____
ROOT
ATOM      1  O   UNL     1       5.542   3.478  19.407  0.00  0.00    +0.000 OA
ATOM      2  C   UNL     1       4.476   3.719  18.846  0.00  0.00    +0.000 C 
ATOM      3  N   UNL     1       4.344   4.235  17.572  0.00  0.00    +0.000 N 
ATOM      4  H   UNL     1       3.405   4.462  17.265  0.00  0.00    +0.000 HD
ENDROOT
BRANCH   2   5
ATOM      5  C   UNL     1       3.213   3.433  19.596  0.00  0.00    +0.000 A 
ATOM      6  C   UNL     1       3.374   2.838  20.864  0.00  0.00    +0.000 A 
ATOM      7  C   UNL     1       2.273   2.547  21.669  0.00  0.00    +0.000 A 
ATOM      8  C   UNL     1       0.990   2.847  21.227  0.00  0.00    +0.000 A 
ATOM      9  C   UNL     1       0.811   3.440  19.976  0.00  0.00    +0.000 A 
ATOM     10  C   UNL     1       1.913   3.735  19.160  0.00  0.00    +0.000 A 
ATOM     11 CL   UNL     1       1.546   4.509  17.657  0.00  0.00    +0.000 Cl
ENDBRANCH   2   5
BRANCH   3  12
ATOM     12  C   UNL     1       5.383   4.640  16.709  0.00  0.00    +0.000 A 
ATOM     13  C   UNL     1       5.711   3.985  15.529  0.00  0.00    +0.000 A 
ATOM     14  C   UNL     1       6.781   4.459  14.786  0.00  0.00    +0.000 A 
ATOM     15  N   UNL     1       7.532   5.524  15.141  0.00  0.00    +0.000 NA
ATOM     16  C   UNL     1       7.187   6.149  16.285  0.00  0.00    +0.000 A 
ATOM     17  C   UNL     1       6.126   5.760  17.085  0.00  0.00    +0.000 A 
ENDBRANCH   3  12
TORSDOF 2
ENDMDL
MODEL 2
REMARK VINA RESULT:      -7.0      2.261      6.306
REMARK  Name = 
REMARK  2 active torsions:
REMARK  status: ('A' for Active; 'I' for Inactive)
REMARK    1  A    between atoms: C_2  and  C_10
REMARK    2  A    between atoms: N_3  and  C_4
REMARK                            x       y       z     vdW  Elec       q    Type
REMARK                         _______ _______ _______ _____ _____    ______ ____
ROOT
ATOM      1  O   UNL     1       4.375   5.744  18.588  0.00  0.00    +0.000 OA
ATOM      2  C   UNL     1       4.466   4.703  17.940  0.00  0.00    +0.000 C 
ATOM      3  N   UNL     1       3.769   3.540  18.200  0.00  0.00    +0.000 N 
ATOM      4  H   UNL     1       4.004   2.731  17.635  0.00  0.00    +0.000 HD
ENDROOT
BRANCH   2   5
ATOM      5  C   UNL     1       5.405   4.686  16.775  0.00  0.00    +0.000 A 
ATOM      6  C   UNL     1       4.827   4.377  15.527  0.00  0.00    +0.000 A 
ATOM      7  C   UNL     1       5.594   4.356  14.362  0.00  0.00    +0.000 A 
ATOM      8  C   UNL     1       6.951   4.647  14.419  0.00  0.00    +0.000 A 
ATOM      9  C   UNL     1       7.541   4.960  15.645  0.00  0.00    +0.000 A 
ATOM     10  C   UNL     1       6.776   4.983  16.821  0.00  0.00    +0.000 A 
ATOM     11 CL   UNL     1       7.627   5.430  18.259  0.00  0.00    +0.000 Cl
ENDBRANCH   2   5
BRANCH   3  12
ATOM     12  C   UNL     1       2.887   3.301  19.273  0.00  0.00    +0.000 A 
ATOM     13  C   UNL     1       1.532   3.606  19.245  0.00  0.00    +0.000 A 
ATOM     14  C   UNL     1       0.777   3.358  20.381  0.00  0.00    +0.000 A 
ATOM     15  N   UNL     1       1.279   2.837  21.522  0.00  0.00    +0.000 NA
ATOM     16  C   UNL     1       2.594   2.540  21.520  0.00  0.00    +0.000 A 
ATOM     17  C   UNL     1       3.425   2.736  20.430  0.00  0.00    +0.000 A 
ENDBRANCH   3  12
TORSDOF 2
ENDMDL
MODEL 3
REMARK VINA RESULT:      -7.0      1.040      1.065
REMARK  Name = 
REMARK  2 active torsions:
REMARK  status: ('A' for Active; 'I' for Inactive)
REMARK    1  A    between atoms: C_2  and  C_10
REMARK    2  A    between atoms: N_3  and  C_4
REMARK                            x       y       z     vdW  Elec       q    Type
REMARK                         _______ _______ _______ _____ _____    ______ ____
ROOT
ATOM      1  O   UNL     1       5.573   3.858  19.208  0.00  0.00    +0.000 OA
ATOM      2  C   UNL     1       4.508   4.050  18.626  0.00  0.00    +0.000 C 
ATOM      3  N   UNL     1       4.378   4.427  17.305  0.00  0.00    +0.000 N 
ATOM      4  H   UNL     1       3.441   4.631  16.977  0.00  0.00    +0.000 HD
ENDROOT
BRANCH   2   5
ATOM      5  C   UNL     1       3.243   3.861  19.405  0.00  0.00    +0.000 A 
ATOM      6  C   UNL     1       2.921   2.529  19.738  0.00  0.00    +0.000 A 
ATOM      7  C   UNL     1       1.782   2.228  20.484  0.00  0.00    +0.000 A 
ATOM      8  C   UNL     1       0.944   3.249  20.916  0.00  0.00    +0.000 A 
ATOM      9  C   UNL     1       1.249   4.574  20.600  0.00  0.00    +0.000 A 
ATOM     10  C   UNL     1       2.393   4.885  19.850  0.00  0.00    +0.000 A 
ATOM     11 CL   UNL     1       2.670   6.570  19.571  0.00  0.00    +0.000 Cl
ENDBRANCH   2   5
BRANCH   3  12
ATOM     12  C   UNL     1       5.420   4.724  16.402  0.00  0.00    +0.000 A 
ATOM     13  C   UNL     1       5.654   4.017  15.228  0.00  0.00    +0.000 A 
ATOM     14  C   UNL     1       6.735   4.384  14.443  0.00  0.00    +0.000 A 
ATOM     15  N   UNL     1       7.583   5.390  14.748  0.00  0.00    +0.000 NA
ATOM     16  C   UNL     1       7.327   6.067  15.886  0.00  0.00    +0.000 A 
ATOM     17  C   UNL     1       6.264   5.786  16.726  0.00  0.00    +0.000 A 
ENDBRANCH   3  12
TORSDOF 2
ENDMDL
MODEL 4
REMARK VINA RESULT:      -6.9      0.855      1.280
REMARK  Name = 
REMARK  2 active torsions:
REMARK  status: ('A' for Active; 'I' for Inactive)
REMARK    1  A    between atoms: C_2  and  C_10
REMARK    2  A    between atoms: N_3  and  C_4
REMARK                            x       y       z     vdW  Elec       q    Type
REMARK                         _______ _______ _______ _____ _____    ______ ____
ROOT
ATOM      1  O   UNL     1       4.778   5.456  19.159  0.00  0.00    +0.000 OA
ATOM      2  C   UNL     1       4.244   4.447  18.704  0.00  0.00    +0.000 C 
ATOM      3  N   UNL     1       4.606   3.815  17.531  0.00  0.00    +0.000 N 
ATOM      4  H   UNL     1       4.026   3.039  17.231  0.00  0.00    +0.000 HD
ENDROOT
BRANCH   2   5
ATOM      5  C   UNL     1       3.111   3.847  19.476  0.00  0.00    +0.000 A 
ATOM      6  C   UNL     1       3.442   3.325  20.743  0.00  0.00    +0.000 A 
ATOM      7  C   UNL     1       2.468   2.763  21.568  0.00  0.00    +0.000 A 
ATOM      8  C   UNL     1       1.144   2.715  21.147  0.00  0.00    +0.000 A 
ATOM      9  C   UNL     1       0.797   3.231  19.898  0.00  0.00    +0.000 A 
ATOM     10  C   UNL     1       1.771   3.797  19.062  0.00  0.00    +0.000 A 
ATOM     11 CL   UNL     1       1.191   4.437  17.563  0.00  0.00    +0.000 Cl
ENDBRANCH   2   5
BRANCH   3  12
ATOM     12  C   UNL     1       5.591   4.231  16.612  0.00  0.00    +0.000 A 
ATOM     13  C   UNL     1       6.890   4.570  16.969  0.00  0.00    +0.000 A 
ATOM     14  C   UNL     1       7.755   5.003  15.976  0.00  0.00    +0.000 A 
ATOM     15  N   UNL     1       7.413   5.118  14.675  0.00  0.00    +0.000 NA
ATOM     16  C   UNL     1       6.150   4.773  14.352  0.00  0.00    +0.000 A 
ATOM     17  C   UNL     1       5.219   4.315  15.269  0.00  0.00    +0.000 A 
ENDBRANCH   3  12
TORSDOF 2
ENDMDL
MODEL 5
REMARK VINA RESULT:      -6.9      1.295      1.851
REMARK  Name = 
REMARK  2 active torsions:
REMARK  status: ('A' for Active; 'I' for Inactive)
REMARK    1  A    between atoms: C_2  and  C_10
REMARK    2  A    between atoms: N_3  and  C_4
REMARK                            x       y       z     vdW  Elec       q    Type
REMARK                         _______ _______ _______ _____ _____    ______ ____
ROOT
ATOM      1  O   UNL     1       5.798   4.029  19.264  0.00  0.00    +0.000 OA
ATOM      2  C   UNL     1       4.734   4.081  18.651  0.00  0.00    +0.000 C 
ATOM      3  N   UNL     1       4.602   4.386  17.310  0.00  0.00    +0.000 N 
ATOM      4  H   UNL     1       3.658   4.475  16.953  0.00  0.00    +0.000 HD
ENDROOT
BRANCH   2   5
ATOM      5  C   UNL     1       3.476   3.792  19.408  0.00  0.00    +0.000 A 
ATOM      6  C   UNL     1       2.928   4.877  20.123  0.00  0.00    +0.000 A 
ATOM      7  C   UNL     1       1.744   4.739  20.846  0.00  0.00    +0.000 A 
ATOM      8  C   UNL     1       1.080   3.518  20.867  0.00  0.00    +0.000 A 
ATOM      9  C   UNL     1       1.605   2.434  20.161  0.00  0.00    +0.000 A 
ATOM     10  C   UNL     1       2.796   2.565  19.432  0.00  0.00    +0.000 A 
ATOM     11 CL   UNL     1       3.305   1.154  18.570  0.00  0.00    +0.000 Cl
ENDBRANCH   2   5
BRANCH   3  12
ATOM     12  C   UNL     1       5.631   4.754  16.419  0.00  0.00    +0.000 A 
ATOM     13  C   UNL     1       6.488   5.828  16.625  0.00  0.00    +0.000 A 
ATOM     14  C   UNL     1       7.435   6.111  15.654  0.00  0.00    +0.000 A 
ATOM     15  N   UNL     1       7.578   5.406  14.511  0.00  0.00    +0.000 NA
ATOM     16  C   UNL     1       6.742   4.362  14.340  0.00  0.00    +0.000 A 
ATOM     17  C   UNL     1       5.776   3.991  15.259  0.00  0.00    +0.000 A 
ENDBRANCH   3  12
TORSDOF 2
ENDMDL
MODEL 6
REMARK VINA RESULT:      -6.9      1.298      1.445
REMARK  Name = 
REMARK  2 active torsions:
REMARK  status: ('A' for Active; 'I' for Inactive)
REMARK    1  A    between atoms: C_2  and  C_10
REMARK    2  A    between atoms: N_3  and  C_4
REMARK                            x       y       z     vdW  Elec       q    Type
REMARK                         _______ _______ _______ _____ _____    ______ ____
ROOT
ATOM      1  O   UNL     1       5.805   4.037  19.183  0.00  0.00    +0.000 OA
ATOM      2  C   UNL     1       4.727   4.079  18.595  0.00  0.00    +0.000 C 
ATOM      3  N   UNL     1       4.562   4.367  17.254  0.00  0.00    +0.000 N 
ATOM      4  H   UNL     1       3.609   4.448  16.919  0.00  0.00    +0.000 HD
ENDROOT
BRANCH   2   5
ATOM      5  C   UNL     1       3.489   3.795  19.385  0.00  0.00    +0.000 A 
ATOM      6  C   UNL     1       2.944   4.891  20.085  0.00  0.00    +0.000 A 
ATOM      7  C   UNL     1       1.776   4.759  20.837  0.00  0.00    +0.000 A 
ATOM      8  C   UNL     1       1.128   3.531  20.902  0.00  0.00    +0.000 A 
ATOM      9  C   UNL     1       1.649   2.436  20.212  0.00  0.00    +0.000 A 
ATOM     10  C   UNL     1       2.823   2.561  19.454  0.00  0.00    +0.000 A 
ATOM     11 CL   UNL     1       3.330   1.135  18.617  0.00  0.00    +0.000 Cl
ENDBRANCH   2   5
BRANCH   3  12
ATOM     12  C   UNL     1       5.567   4.727  16.334  0.00  0.00    +0.000 A 
ATOM     13  C   UNL     1       5.819   4.040  15.152  0.00  0.00    +0.000 A 
ATOM     14  C   UNL     1       6.863   4.472  14.349  0.00  0.00    +0.000 A 
ATOM     15  N   UNL     1       7.658   5.523  14.645  0.00  0.00    +0.000 NA
ATOM     16  C   UNL     1       7.386   6.179  15.791  0.00  0.00    +0.000 A 
ATOM     17  C   UNL     1       6.356   5.834  16.649  0.00  0.00    +0.000 A 
ENDBRANCH   3  12
TORSDOF 2
ENDMDL
MODEL 7
REMARK VINA RESULT:      -6.9      2.367      6.010
REMARK  Name = 
REMARK  2 active torsions:
REMARK  status: ('A' for Active; 'I' for Inactive)
REMARK    1  A    between atoms: C_2  and  C_10
REMARK    2  A    between atoms: N_3  and  C_4
REMARK                            x       y       z     vdW  Elec       q    Type
REMARK                         _______ _______ _______ _____ _____    ______ ____
ROOT
ATOM      1  O   UNL     1       5.516   3.481  19.046  0.00  0.00    +0.000 OA
ATOM      2  C   UNL     1       5.110   4.636  18.945  0.00  0.00    +0.000 C 
ATOM      3  N   UNL     1       3.808   5.045  19.155  0.00  0.00    +0.000 N 
ATOM      4  H   UNL     1       3.596   6.016  18.956  0.00  0.00    +0.000 HD
ENDROOT
BRANCH   2   5
ATOM      5  C   UNL     1       6.100   5.693  18.565  0.00  0.00    +0.000 A 
ATOM      6  C   UNL     1       7.269   5.748  19.350  0.00  0.00    +0.000 A 
ATOM      7  C   UNL     1       8.278   6.672  19.078  0.00  0.00    +0.000 A 
ATOM      8  C   UNL     1       8.141   7.557  18.015  0.00  0.00    +0.000 A 
ATOM      9  C   UNL     1       6.992   7.515  17.224  0.00  0.00    +0.000 A 
ATOM     10  C   UNL     1       5.973   6.588  17.491  0.00  0.00    +0.000 A 
ATOM     11 CL   UNL     1       4.628   6.619  16.403  0.00  0.00    +0.000 Cl
ENDBRANCH   2   5
BRANCH   3  12
ATOM     12  C   UNL     1       2.700   4.226  19.455  0.00  0.00    +0.000 A 
ATOM     13  C   UNL     1       2.259   3.959  20.745  0.00  0.00    +0.000 A 
ATOM     14  C   UNL     1       1.180   3.106  20.909  0.00  0.00    +0.000 A 
ATOM     15  N   UNL     1       0.526   2.510  19.888  0.00  0.00    +0.000 NA
ATOM     16  C   UNL     1       0.967   2.794  18.646  0.00  0.00    +0.000 A 
ATOM     17  C   UNL     1       2.025   3.645  18.380  0.00  0.00    +0.000 A 
ENDBRANCH   3  12
TORSDOF 2
ENDMDL
MODEL 8
REMARK VINA RESULT:      -6.8      2.263      6.355
REMARK  Name = 
REMARK  2 active torsions:
REMARK  status: ('A' for Active; 'I' for Inactive)
REMARK    1  A    between atoms: C_2  and  C_10
REMARK    2  A    between atoms: N_3  and  C_4
REMARK                            x       y       z     vdW  Elec       q    Type
REMARK                         _______ _______ _______ _____ _____    ______ ____
ROOT
ATOM      1  O   UNL     1       3.863   5.818  18.009  0.00  0.00    +0.000 OA
ATOM      2  C   UNL     1       4.282   4.723  17.639  0.00  0.00    +0.000 C 
ATOM      3  N   UNL     1       3.898   3.505  18.163  0.00  0.00    +0.000 N 
ATOM      4  H   UNL     1       4.385   2.685  17.820  0.00  0.00    +0.000 HD
ENDROOT
BRANCH   2   5
ATOM      5  C   UNL     1       5.288   4.698  16.532  0.00  0.00    +0.000 A 
ATOM      6  C   UNL     1       4.799   4.310  15.268  0.00  0.00    +0.000 A 
ATOM      7  C   UNL     1       5.635   4.273  14.152  0.00  0.00    +0.000 A 
ATOM      8  C   UNL     1       6.973   4.626  14.274  0.00  0.00    +0.000 A 
ATOM      9  C   UNL     1       7.475   5.017  15.516  0.00  0.00    +0.000 A 
ATOM     10  C   UNL     1       6.641   5.056  16.644  0.00  0.00    +0.000 A 
ATOM     11 CL   UNL     1       7.385   5.602  18.107  0.00  0.00    +0.000 Cl
ENDBRANCH   2   5
BRANCH   3  12
ATOM     12  C   UNL     1       3.021   3.286  19.245  0.00  0.00    +0.000 A 
ATOM     13  C   UNL     1       3.439   2.935  20.523  0.00  0.00    +0.000 A 
ATOM     14  C   UNL     1       2.475   2.709  21.493  0.00  0.00    +0.000 A 
ATOM     15  N   UNL     1       1.146   2.807  21.274  0.00  0.00    +0.000 NA
ATOM     16  C   UNL     1       0.767   3.160  20.029  0.00  0.00    +0.000 A 
ATOM     17  C   UNL     1       1.654   3.421  18.999  0.00  0.00    +0.000 A 
ENDBRANCH   3  12
TORSDOF 2
ENDMDL
MODEL 9
REMARK VINA RESULT:      -6.8      1.837      1.948
REMARK  Name = 
REMARK  2 active torsions:
REMARK  status: ('A' for Active; 'I' for Inactive)
REMARK    1  A    between atoms: C_2  and  C_10
REMARK    2  A    between atoms: N_3  and  C_4
REMARK                            x       y       z     vdW  Elec       q    Type
REMARK                         _______ _______ _______ _____ _____    ______ ____
ROOT
ATOM      1  O   UNL     1       3.393   6.112  17.417  0.00  0.00    +0.000 OA
ATOM      2  C   UNL     1       3.465   4.898  17.592  0.00  0.00    +0.000 C 
ATOM      3  N   UNL     1       4.430   4.071  17.052  0.00  0.00    +0.000 N 
ATOM      4  H   UNL     1       4.320   3.076  17.212  0.00  0.00    +0.000 HD
ENDROOT
BRANCH   2   5
ATOM      5  C   UNL     1       2.430   4.255  18.461  0.00  0.00    +0.000 A 
ATOM      6  C   UNL     1       2.001   2.974  18.057  0.00  0.00    +0.000 A 
ATOM      7  C   UNL     1       1.058   2.262  18.799  0.00  0.00    +0.000 A 
ATOM      8  C   UNL     1       0.528   2.812  19.960  0.00  0.00    +0.000 A 
ATOM      9  C   UNL     1       0.944   4.078  20.378  0.00  0.00    +0.000 A 
ATOM     10  C   UNL     1       1.891   4.800  19.637  0.00  0.00    +0.000 A 
ATOM     11 CL   UNL     1       2.346   6.333  20.296  0.00  0.00    +0.000 Cl
ENDBRANCH   2   5
BRANCH   3  12
ATOM     12  C   UNL     1       5.458   4.437  16.159  0.00  0.00    +0.000 A 
ATOM     13  C   UNL     1       5.415   4.204  14.790  0.00  0.00    +0.000 A 
ATOM     14  C   UNL     1       6.508   4.578  14.024  0.00  0.00    +0.000 A 
ATOM     15  N   UNL     1       7.620   5.156  14.526  0.00  0.00    +0.000 NA
ATOM     16  C   UNL     1       7.632   5.382  15.855  0.00  0.00    +0.000 A 
ATOM     17  C   UNL     1       6.584   5.059  16.700  0.00  0.00    +0.000 A 
ENDBRANCH   3  12
TORSDOF 2
ENDMDL
