MODEL 1
REMARK VINA RESULT:      -7.1      0.000      0.000
REMARK  Name = 
REMARK  9 active torsions:
REMARK  status: ('A' for Active; 'I' for Inactive)
REMARK    1  A    between atoms: C_1  and  C_2
REMARK    2  A    between atoms: C_2  and  C_3
REMARK    3  A    between atoms: C_2  and  C_4
REMARK    4  A    between atoms: C_2  and  C_5
REMARK    5  A    between atoms: C_5  and  C_7
REMARK    6  A    between atoms: C_7  and  O_8
REMARK    7  A    between atoms: O_8  and  C_9
REMARK    8  A    between atoms: C_9  and  C_11
REMARK    9  A    between atoms: C_16  and  O_17
REMARK                            x       y       z     vdW  Elec       q    Type
REMARK                         _______ _______ _______ _____ _____    ______ ____
ROOT
ATOM      1  C   UNL     1       5.959   5.204  19.130  0.00  0.00    +0.000 C 
ATOM      2  O   UNL     1       6.929   5.291  19.872  0.00  0.00    +0.000 OA
ENDROOT
BRANCH   1   3
ATOM      3  C   UNL     1       6.090   5.127  17.653  0.00  0.00    +0.000 A 
ATOM      4  C   UNL     1       5.036   5.677  16.905  0.00  0.00    +0.000 A 
ATOM      5  C   UNL     1       5.080   5.678  15.509  0.00  0.00    +0.000 A 
ATOM      6  C   UNL     1       6.175   5.126  14.851  0.00  0.00    +0.000 A 
ATOM      7  C   UNL     1       7.230   4.576  15.585  0.00  0.00    +0.000 A 
ATOM      8  C   UNL     1       7.187   4.575  16.983  0.00  0.00    +0.000 A 
BRANCH   8   9
ATOM      9  O   UNL     1       8.218   4.011  17.678  0.00  0.00    +0.000 OA
ATOM     10  H   UNL     1       7.941   3.155  18.041  0.00  0.00    +0.000 HD
ENDBRANCH   8   9
ENDBRANCH   1   3
BRANCH   1  11
ATOM     11  O   UNL     1       4.692   4.919  19.510  0.00  0.00    +0.000 OA
BRANCH  11  12
ATOM     12  C   UNL     1       4.401   3.535  19.685  0.00  0.00    +0.000 C 
BRANCH  12  13
ATOM     13  C   UNL     1       3.326   2.941  18.767  0.00  0.00    +0.000 C 
ATOM     14  O   UNL     1       3.591   2.046  17.959  0.00  0.00    +0.000 OA
BRANCH  13  16
ATOM     15  C   UNL     1       0.867   2.360  18.671  0.00  0.00    +0.000 C 
ATOM     16  C   UNL     1       1.882   3.493  18.912  0.00  0.00    +0.000 C 
ATOM     17  C   UNL     1       1.626   4.601  17.882  0.00  0.00    +0.000 C 
ATOM     18  C   UNL     1       1.659   4.044  20.327  0.00  0.00    +0.000 C 
ENDBRANCH  13  16
ENDBRANCH  12  13
ENDBRANCH  11  12
ENDBRANCH   1  11
TORSDOF 6
ENDMDL
MODEL 2
REMARK VINA RESULT:      -7.0      0.839      1.182
REMARK  Name = 
REMARK  9 active torsions:
REMARK  status: ('A' for Active; 'I' for Inactive)
REMARK    1  A    between atoms: C_1  and  C_2
REMARK    2  A    between atoms: C_2  and  C_3
REMARK    3  A    between atoms: C_2  and  C_4
REMARK    4  A    between atoms: C_2  and  C_5
REMARK    5  A    between atoms: C_5  and  C_7
REMARK    6  A    between atoms: C_7  and  O_8
REMARK    7  A    between atoms: O_8  and  C_9
REMARK    8  A    between atoms: C_9  and  C_11
REMARK    9  A    between atoms: C_16  and  O_17
REMARK                            x       y       z     vdW  Elec       q    Type
REMARK                         _______ _______ _______ _____ _____    ______ ____
ROOT
ATOM      1  C   UNL     1       6.247   5.394  19.272  0.00  0.00    +0.000 C 
ATOM      2  O   UNL     1       7.277   5.446  19.931  0.00  0.00    +0.000 OA
ENDROOT
BRANCH   1   3
ATOM      3  C   UNL     1       6.251   5.330  17.789  0.00  0.00    +0.000 A 
ATOM      4  C   UNL     1       5.216   6.018  17.133  0.00  0.00    +0.000 A 
ATOM      5  C   UNL     1       5.150   6.041  15.739  0.00  0.00    +0.000 A 
ATOM      6  C   UNL     1       6.115   5.372  14.990  0.00  0.00    +0.000 A 
ATOM      7  C   UNL     1       7.148   4.684  15.631  0.00  0.00    +0.000 A 
ATOM      8  C   UNL     1       7.216   4.662  17.028  0.00  0.00    +0.000 A 
BRANCH   8   9
ATOM      9  O   UNL     1       8.221   3.963  17.633  0.00  0.00    +0.000 OA
ATOM     10  H   UNL     1       8.974   3.878  17.027  0.00  0.00    +0.000 HD
ENDBRANCH   8   9
ENDBRANCH   1   3
BRANCH   1  11
ATOM     11  O   UNL     1       5.008   5.139  19.756  0.00  0.00    +0.000 OA
BRANCH  11  12
ATOM     12  C   UNL     1       4.562   3.792  19.619  0.00  0.00    +0.000 C 
BRANCH  12  13
ATOM     13  C   UNL     1       3.132   3.594  19.104  0.00  0.00    +0.000 C 
ATOM     14  O   UNL     1       2.897   3.423  17.903  0.00  0.00    +0.000 OA
BRANCH  13  16
ATOM     15  C   UNL     1       2.453   2.851  21.423  0.00  0.00    +0.000 C 
ATOM     16  C   UNL     1       1.990   3.593  20.156  0.00  0.00    +0.000 C 
ATOM     17  C   UNL     1       0.750   2.880  19.601  0.00  0.00    +0.000 C 
ATOM     18  C   UNL     1       1.623   5.031  20.549  0.00  0.00    +0.000 C 
ENDBRANCH  13  16
ENDBRANCH  12  13
ENDBRANCH  11  12
ENDBRANCH   1  11
TORSDOF 6
ENDMDL
MODEL 3
REMARK VINA RESULT:      -6.9      1.906      5.428
REMARK  Name = 
REMARK  9 active torsions:
REMARK  status: ('A' for Active; 'I' for Inactive)
REMARK    1  A    between atoms: C_1  and  C_2
REMARK    2  A    between atoms: C_2  and  C_3
REMARK    3  A    between atoms: C_2  and  C_4
REMARK    4  A    between atoms: C_2  and  C_5
REMARK    5  A    between atoms: C_5  and  C_7
REMARK    6  A    between atoms: C_7  and  O_8
REMARK    7  A    between atoms: O_8  and  C_9
REMARK    8  A    between atoms: C_9  and  C_11
REMARK    9  A    between atoms: C_16  and  O_17
REMARK                            x       y       z     vdW  Elec       q    Type
REMARK                         _______ _______ _______ _____ _____    ______ ____
ROOT
ATOM      1  C   UNL     1       3.406   3.999  17.701  0.00  0.00    +0.000 C 
ATOM      2  O   UNL     1       4.149   3.272  17.055  0.00  0.00    +0.000 OA
ENDROOT
BRANCH   1   3
ATOM      3  C   UNL     1       2.881   3.619  19.036  0.00  0.00    +0.000 A 
ATOM      4  C   UNL     1       1.571   4.030  19.332  0.00  0.00    +0.000 A 
ATOM      5  C   UNL     1       0.979   3.697  20.552  0.00  0.00    +0.000 A 
ATOM      6  C   UNL     1       1.693   2.953  21.487  0.00  0.00    +0.000 A 
ATOM      7  C   UNL     1       2.997   2.538  21.204  0.00  0.00    +0.000 A 
ATOM      8  C   UNL     1       3.591   2.871  19.982  0.00  0.00    +0.000 A 
BRANCH   8   9
ATOM      9  O   UNL     1       4.875   2.475  19.738  0.00  0.00    +0.000 OA
ATOM     10  H   UNL     1       4.917   1.995  18.896  0.00  0.00    +0.000 HD
ENDBRANCH   8   9
ENDBRANCH   1   3
BRANCH   1  11
ATOM     11  O   UNL     1       3.153   5.304  17.445  0.00  0.00    +0.000 OA
BRANCH  11  12
ATOM     12  C   UNL     1       4.134   6.222  17.923  0.00  0.00    +0.000 C 
BRANCH  12  13
ATOM     13  C   UNL     1       5.427   6.327  17.106  0.00  0.00    +0.000 C 
ATOM     14  O   UNL     1       5.423   6.739  15.942  0.00  0.00    +0.000 OA
BRANCH  13  16
ATOM     15  C   UNL     1       6.453   5.486  19.259  0.00  0.00    +0.000 C 
ATOM     16  C   UNL     1       6.749   5.917  17.811  0.00  0.00    +0.000 C 
ATOM     17  C   UNL     1       7.727   7.100  17.847  0.00  0.00    +0.000 C 
ATOM     18  C   UNL     1       7.400   4.734  17.081  0.00  0.00    +0.000 C 
ENDBRANCH  13  16
ENDBRANCH  12  13
ENDBRANCH  11  12
ENDBRANCH   1  11
TORSDOF 6
ENDMDL
MODEL 4
REMARK VINA RESULT:      -6.9      1.910      5.429
REMARK  Name = 
REMARK  9 active torsions:
REMARK  status: ('A' for Active; 'I' for Inactive)
REMARK    1  A    between atoms: C_1  and  C_2
REMARK    2  A    between atoms: C_2  and  C_3
REMARK    3  A    between atoms: C_2  and  C_4
REMARK    4  A    between atoms: C_2  and  C_5
REMARK    5  A    between atoms: C_5  and  C_7
REMARK    6  A    between atoms: C_7  and  O_8
REMARK    7  A    between atoms: O_8  and  C_9
REMARK    8  A    between atoms: C_9  and  C_11
REMARK    9  A    between atoms: C_16  and  O_17
REMARK                            x       y       z     vdW  Elec       q    Type
REMARK                         _______ _______ _______ _____ _____    ______ ____
ROOT
ATOM      1  C   UNL     1       3.454   3.982  17.723  0.00  0.00    +0.000 C 
ATOM      2  O   UNL     1       4.224   3.261  17.101  0.00  0.00    +0.000 OA
ENDROOT
BRANCH   1   3
ATOM      3  C   UNL     1       2.910   3.607  19.052  0.00  0.00    +0.000 A 
ATOM      4  C   UNL     1       1.601   4.035  19.333  0.00  0.00    +0.000 A 
ATOM      5  C   UNL     1       0.991   3.708  20.545  0.00  0.00    +0.000 A 
ATOM      6  C   UNL     1       1.685   2.955  21.488  0.00  0.00    +0.000 A 
ATOM      7  C   UNL     1       2.987   2.523  21.220  0.00  0.00    +0.000 A 
ATOM      8  C   UNL     1       3.599   2.849  20.005  0.00  0.00    +0.000 A 
BRANCH   8   9
ATOM      9  O   UNL     1       4.880   2.436  19.775  0.00  0.00    +0.000 OA
ATOM     10  H   UNL     1       5.493   3.177  19.903  0.00  0.00    +0.000 HD
ENDBRANCH   8   9
ENDBRANCH   1   3
BRANCH   1  11
ATOM     11  O   UNL     1       3.184   5.279  17.447  0.00  0.00    +0.000 OA
BRANCH  11  12
ATOM     12  C   UNL     1       4.149   6.219  17.913  0.00  0.00    +0.000 C 
BRANCH  12  13
ATOM     13  C   UNL     1       5.456   6.307  17.117  0.00  0.00    +0.000 C 
ATOM     14  O   UNL     1       5.472   6.693  15.944  0.00  0.00    +0.000 OA
BRANCH  13  16
ATOM     15  C   UNL     1       7.444   4.745  17.116  0.00  0.00    +0.000 C 
ATOM     16  C   UNL     1       6.767   5.915  17.853  0.00  0.00    +0.000 C 
ATOM     17  C   UNL     1       6.462   5.473  19.290  0.00  0.00    +0.000 C 
ATOM     18  C   UNL     1       7.743   7.098  17.874  0.00  0.00    +0.000 C 
ENDBRANCH  13  16
ENDBRANCH  12  13
ENDBRANCH  11  12
ENDBRANCH   1  11
TORSDOF 6
ENDMDL
MODEL 5
REMARK VINA RESULT:      -6.9      1.253      4.578
REMARK  Name = 
REMARK  9 active torsions:
REMARK  status: ('A' for Active; 'I' for Inactive)
REMARK    1  A    between atoms: C_1  and  C_2
REMARK    2  A    between atoms: C_2  and  C_3
REMARK    3  A    between atoms: C_2  and  C_4
REMARK    4  A    between atoms: C_2  and  C_5
REMARK    5  A    between atoms: C_5  and  C_7
REMARK    6  A    between atoms: C_7  and  O_8
REMARK    7  A    between atoms: O_8  and  C_9
REMARK    8  A    between atoms: C_9  and  C_11
REMARK    9  A    between atoms: C_16  and  O_17
REMARK                            x       y       z     vdW  Elec       q    Type
REMARK                         _______ _______ _______ _____ _____    ______ ____
ROOT
ATOM      1  C   UNL     1       5.562   5.098  19.044  0.00  0.00    +0.000 C 
ATOM      2  O   UNL     1       6.311   4.807  19.968  0.00  0.00    +0.000 OA
ENDROOT
BRANCH   1   3
ATOM      3  C   UNL     1       4.303   4.360  18.775  0.00  0.00    +0.000 A 
ATOM      4  C   UNL     1       3.274   5.089  18.156  0.00  0.00    +0.000 A 
ATOM      5  C   UNL     1       2.061   4.475  17.836  0.00  0.00    +0.000 A 
ATOM      6  C   UNL     1       1.866   3.130  18.137  0.00  0.00    +0.000 A 
ATOM      7  C   UNL     1       2.882   2.395  18.753  0.00  0.00    +0.000 A 
ATOM      8  C   UNL     1       4.098   3.008  19.073  0.00  0.00    +0.000 A 
BRANCH   8   9
ATOM      9  O   UNL     1       5.068   2.276  19.696  0.00  0.00    +0.000 OA
ATOM     10  H   UNL     1       5.283   2.676  20.553  0.00  0.00    +0.000 HD
ENDBRANCH   8   9
ENDBRANCH   1   3
BRANCH   1  11
ATOM     11  O   UNL     1       5.615   6.233  18.309  0.00  0.00    +0.000 OA
BRANCH  11  12
ATOM     12  C   UNL     1       6.761   6.369  17.473  0.00  0.00    +0.000 C 
BRANCH  12  13
ATOM     13  C   UNL     1       7.129   5.154  16.614  0.00  0.00    +0.000 C 
ATOM     14  O   UNL     1       8.052   4.396  16.930  0.00  0.00    +0.000 OA
BRANCH  13  16
ATOM     15  C   UNL     1       5.528   3.560  15.478  0.00  0.00    +0.000 C 
ATOM     16  C   UNL     1       6.277   4.898  15.340  0.00  0.00    +0.000 C 
ATOM     17  C   UNL     1       7.177   4.825  14.100  0.00  0.00    +0.000 C 
ATOM     18  C   UNL     1       5.239   6.013  15.158  0.00  0.00    +0.000 C 
ENDBRANCH  13  16
ENDBRANCH  12  13
ENDBRANCH  11  12
ENDBRANCH   1  11
TORSDOF 6
ENDMDL
MODEL 6
REMARK VINA RESULT:      -6.8      1.289      4.703
REMARK  Name = 
REMARK  9 active torsions:
REMARK  status: ('A' for Active; 'I' for Inactive)
REMARK    1  A    between atoms: C_1  and  C_2
REMARK    2  A    between atoms: C_2  and  C_3
REMARK    3  A    between atoms: C_2  and  C_4
REMARK    4  A    between atoms: C_2  and  C_5
REMARK    5  A    between atoms: C_5  and  C_7
REMARK    6  A    between atoms: C_7  and  O_8
REMARK    7  A    between atoms: O_8  and  C_9
REMARK    8  A    between atoms: C_9  and  C_11
REMARK    9  A    between atoms: C_16  and  O_17
REMARK                            x       y       z     vdW  Elec       q    Type
REMARK                         _______ _______ _______ _____ _____    ______ ____
ROOT
ATOM      1  C   UNL     1       5.477   4.881  19.062  0.00  0.00    +0.000 C 
ATOM      2  O   UNL     1       6.219   4.620  20.000  0.00  0.00    +0.000 OA
ENDROOT
BRANCH   1   3
ATOM      3  C   UNL     1       4.247   4.100  18.777  0.00  0.00    +0.000 A 
ATOM      4  C   UNL     1       3.212   4.785  18.119  0.00  0.00    +0.000 A 
ATOM      5  C   UNL     1       2.026   4.129  17.783  0.00  0.00    +0.000 A 
ATOM      6  C   UNL     1       1.865   2.785  18.105  0.00  0.00    +0.000 A 
ATOM      7  C   UNL     1       2.887   2.092  18.759  0.00  0.00    +0.000 A 
ATOM      8  C   UNL     1       4.075   2.748  19.095  0.00  0.00    +0.000 A 
BRANCH   8   9
ATOM      9  O   UNL     1       5.051   2.058  19.756  0.00  0.00    +0.000 OA
ATOM     10  H   UNL     1       5.923   2.409  19.517  0.00  0.00    +0.000 HD
ENDBRANCH   8   9
ENDBRANCH   1   3
BRANCH   1  11
ATOM     11  O   UNL     1       5.504   6.012  18.320  0.00  0.00    +0.000 OA
BRANCH  11  12
ATOM     12  C   UNL     1       6.700   6.227  17.574  0.00  0.00    +0.000 C 
BRANCH  12  13
ATOM     13  C   UNL     1       7.125   5.101  16.625  0.00  0.00    +0.000 C 
ATOM     14  O   UNL     1       8.100   4.383  16.870  0.00  0.00    +0.000 OA
BRANCH  13  16
ATOM     15  C   UNL     1       5.253   6.032  15.203  0.00  0.00    +0.000 C 
ATOM     16  C   UNL     1       6.265   4.881  15.350  0.00  0.00    +0.000 C 
ATOM     17  C   UNL     1       5.488   3.561  15.449  0.00  0.00    +0.000 C 
ATOM     18  C   UNL     1       7.155   4.861  14.101  0.00  0.00    +0.000 C 
ENDBRANCH  13  16
ENDBRANCH  12  13
ENDBRANCH  11  12
ENDBRANCH   1  11
TORSDOF 6
ENDMDL
MODEL 7
REMARK VINA RESULT:      -6.8      1.193      1.322
REMARK  Name = 
REMARK  9 active torsions:
REMARK  status: ('A' for Active; 'I' for Inactive)
REMARK    1  A    between atoms: C_1  and  C_2
REMARK    2  A    between atoms: C_2  and  C_3
REMARK    3  A    between atoms: C_2  and  C_4
REMARK    4  A    between atoms: C_2  and  C_5
REMARK    5  A    between atoms: C_5  and  C_7
REMARK    6  A    between atoms: C_7  and  O_8
REMARK    7  A    between atoms: O_8  and  C_9
REMARK    8  A    between atoms: C_9  and  C_11
REMARK    9  A    between atoms: C_16  and  O_17
REMARK                            x       y       z     vdW  Elec       q    Type
REMARK                         _______ _______ _______ _____ _____    ______ ____
ROOT
ATOM      1  C   UNL     1       5.413   4.715  18.972  0.00  0.00    +0.000 C 
ATOM      2  O   UNL     1       5.320   5.704  19.687  0.00  0.00    +0.000 OA
ENDROOT
BRANCH   1   3
ATOM      3  C   UNL     1       5.811   4.798  17.544  0.00  0.00    +0.000 A 
ATOM      4  C   UNL     1       4.825   5.243  16.648  0.00  0.00    +0.000 A 
ATOM      5  C   UNL     1       5.111   5.381  15.288  0.00  0.00    +0.000 A 
ATOM      6  C   UNL     1       6.382   5.071  14.814  0.00  0.00    +0.000 A 
ATOM      7  C   UNL     1       7.371   4.628  15.696  0.00  0.00    +0.000 A 
ATOM      8  C   UNL     1       7.086   4.491  17.058  0.00  0.00    +0.000 A 
BRANCH   8   9
ATOM      9  O   UNL     1       8.061   4.033  17.898  0.00  0.00    +0.000 OA
ATOM     10  H   UNL     1       8.870   4.555  17.779  0.00  0.00    +0.000 HD
ENDBRANCH   8   9
ENDBRANCH   1   3
BRANCH   1  11
ATOM     11  O   UNL     1       5.422   3.429  19.394  0.00  0.00    +0.000 OA
BRANCH  11  12
ATOM     12  C   UNL     1       4.189   2.728  19.247  0.00  0.00    +0.000 C 
BRANCH  12  13
ATOM     13  C   UNL     1       3.120   2.994  20.313  0.00  0.00    +0.000 C 
ATOM     14  O   UNL     1       3.237   2.563  21.464  0.00  0.00    +0.000 OA
BRANCH  13  16
ATOM     15  C   UNL     1       0.597   3.149  20.343  0.00  0.00    +0.000 C 
ATOM     16  C   UNL     1       1.893   3.848  19.894  0.00  0.00    +0.000 C 
ATOM     17  C   UNL     1       1.851   4.015  18.369  0.00  0.00    +0.000 C 
ATOM     18  C   UNL     1       1.949   5.229  20.561  0.00  0.00    +0.000 C 
ENDBRANCH  13  16
ENDBRANCH  12  13
ENDBRANCH  11  12
ENDBRANCH   1  11
TORSDOF 6
ENDMDL
MODEL 8
REMARK VINA RESULT:      -6.8      1.438      5.499
REMARK  Name = 
REMARK  9 active torsions:
REMARK  status: ('A' for Active; 'I' for Inactive)
REMARK    1  A    between atoms: C_1  and  C_2
REMARK    2  A    between atoms: C_2  and  C_3
REMARK    3  A    between atoms: C_2  and  C_4
REMARK    4  A    between atoms: C_2  and  C_5
REMARK    5  A    between atoms: C_5  and  C_7
REMARK    6  A    between atoms: C_7  and  O_8
REMARK    7  A    between atoms: O_8  and  C_9
REMARK    8  A    between atoms: C_9  and  C_11
REMARK    9  A    between atoms: C_16  and  O_17
REMARK                            x       y       z     vdW  Elec       q    Type
REMARK                         _______ _______ _______ _____ _____    ______ ____
ROOT
ATOM      1  C   UNL     1       4.611   2.482  19.871  0.00  0.00    +0.000 C 
ATOM      2  O   UNL     1       5.173   1.858  20.761  0.00  0.00    +0.000 OA
ENDROOT
BRANCH   1   3
ATOM      3  C   UNL     1       3.138   2.662  19.832  0.00  0.00    +0.000 A 
ATOM      4  C   UNL     1       2.551   3.249  20.965  0.00  0.00    +0.000 A 
ATOM      5  C   UNL     1       1.175   3.486  21.012  0.00  0.00    +0.000 A 
ATOM      6  C   UNL     1       0.376   3.134  19.928  0.00  0.00    +0.000 A 
ATOM      7  C   UNL     1       0.948   2.549  18.795  0.00  0.00    +0.000 A 
ATOM      8  C   UNL     1       2.326   2.313  18.747  0.00  0.00    +0.000 A 
BRANCH   8   9
ATOM      9  O   UNL     1       2.860   1.719  17.639  0.00  0.00    +0.000 OA
ATOM     10  H   UNL     1       3.329   2.379  17.105  0.00  0.00    +0.000 HD
ENDBRANCH   8   9
ENDBRANCH   1   3
BRANCH   1  11
ATOM     11  O   UNL     1       5.212   3.287  18.964  0.00  0.00    +0.000 OA
BRANCH  11  12
ATOM     12  C   UNL     1       5.317   4.659  19.337  0.00  0.00    +0.000 C 
BRANCH  12  13
ATOM     13  C   UNL     1       6.609   5.380  18.938  0.00  0.00    +0.000 C 
ATOM     14  O   UNL     1       7.609   5.361  19.662  0.00  0.00    +0.000 OA
BRANCH  13  16
ATOM     15  C   UNL     1       5.197   6.592  17.226  0.00  0.00    +0.000 C 
ATOM     16  C   UNL     1       6.620   6.117  17.570  0.00  0.00    +0.000 C 
ATOM     17  C   UNL     1       7.099   5.175  16.458  0.00  0.00    +0.000 C 
ATOM     18  C   UNL     1       7.535   7.347  17.633  0.00  0.00    +0.000 C 
ENDBRANCH  13  16
ENDBRANCH  12  13
ENDBRANCH  11  12
ENDBRANCH   1  11
TORSDOF 6
ENDMDL
MODEL 9
REMARK VINA RESULT:      -6.7      1.671      5.403
REMARK  Name = 
REMARK  9 active torsions:
REMARK  status: ('A' for Active; 'I' for Inactive)
REMARK    1  A    between atoms: C_1  and  C_2
REMARK    2  A    between atoms: C_2  and  C_3
REMARK    3  A    between atoms: C_2  and  C_4
REMARK    4  A    between atoms: C_2  and  C_5
REMARK    5  A    between atoms: C_5  and  C_7
REMARK    6  A    between atoms: C_7  and  O_8
REMARK    7  A    between atoms: O_8  and  C_9
REMARK    8  A    between atoms: C_9  and  C_11
REMARK    9  A    between atoms: C_16  and  O_17
REMARK                            x       y       z     vdW  Elec       q    Type
REMARK                         _______ _______ _______ _____ _____    ______ ____
ROOT
ATOM      1  C   UNL     1       3.183   3.323  17.489  0.00  0.00    +0.000 C 
ATOM      2  O   UNL     1       2.360   3.252  16.586  0.00  0.00    +0.000 OA
ENDROOT
BRANCH   1   3
ATOM      3  C   UNL     1       2.799   3.280  18.922  0.00  0.00    +0.000 A 
ATOM      4  C   UNL     1       1.584   3.898  19.261  0.00  0.00    +0.000 A 
ATOM      5  C   UNL     1       1.123   3.885  20.579  0.00  0.00    +0.000 A 
ATOM      6  C   UNL     1       1.875   3.259  21.569  0.00  0.00    +0.000 A 
ATOM      7  C   UNL     1       3.085   2.640  21.244  0.00  0.00    +0.000 A 
ATOM      8  C   UNL     1       3.547   2.651  19.924  0.00  0.00    +0.000 A 
BRANCH   8   9
ATOM      9  O   UNL     1       4.745   2.061  19.634  0.00  0.00    +0.000 OA
ATOM     10  H   UNL     1       4.827   1.937  18.676  0.00  0.00    +0.000 HD
ENDBRANCH   8   9
ENDBRANCH   1   3
BRANCH   1  11
ATOM     11  O   UNL     1       4.524   3.203  17.352  0.00  0.00    +0.000 OA
BRANCH  11  12
ATOM     12  C   UNL     1       5.114   4.025  16.347  0.00  0.00    +0.000 C 
BRANCH  12  13
ATOM     13  C   UNL     1       6.373   4.800  16.751  0.00  0.00    +0.000 C 
ATOM     14  O   UNL     1       7.481   4.516  16.287  0.00  0.00    +0.000 OA
BRANCH  13  16
ATOM     15  C   UNL     1       7.363   6.968  17.595  0.00  0.00    +0.000 C 
ATOM     16  C   UNL     1       6.196   5.976  17.750  0.00  0.00    +0.000 C 
ATOM     17  C   UNL     1       6.188   5.456  19.194  0.00  0.00    +0.000 C 
ATOM     18  C   UNL     1       4.887   6.726  17.467  0.00  0.00    +0.000 C 
ENDBRANCH  13  16
ENDBRANCH  12  13
ENDBRANCH  11  12
ENDBRANCH   1  11
TORSDOF 6
ENDMDL
