MODEL 1
REMARK VINA RESULT:      -7.4      0.000      0.000
REMARK  Name = 
REMARK  4 active torsions:
REMARK  status: ('A' for Active; 'I' for Inactive)
REMARK    1  A    between atoms: C_1  and  C_2
REMARK    2  A    between atoms: C_2  and  C_3
REMARK    3  A    between atoms: N_5  and  S_6
REMARK    4  A    between atoms: S_6  and  C_9
REMARK                            x       y       z     vdW  Elec       q    Type
REMARK                         _______ _______ _______ _____ _____    ______ ____
ROOT
ATOM      1  S   UNL     1       2.694   5.195  18.874  0.00  0.00    +0.000 S 
ATOM      2  O   UNL     1       2.494   4.870  17.479  0.00  0.00    +0.000 OA
ATOM      3  O   UNL     1       2.046   4.395  19.895  0.00  0.00    +0.000 OA
ENDROOT
BRANCH   1   4
ATOM      4  C   UNL     1       2.197   6.873  19.141  0.00  0.00    +0.000 A 
ATOM      5  C   UNL     1       2.191   7.789  18.087  0.00  0.00    +0.000 A 
ATOM      6  C   UNL     1       1.720   9.088  18.310  0.00  0.00    +0.000 A 
ATOM      7  C   UNL     1       1.252   9.475  19.578  0.00  0.00    +0.000 A 
ATOM      8  C   UNL     1       0.765  10.772  19.818  0.00  0.00    +0.000 A 
ATOM      9  C   UNL     1       0.294  11.135  21.080  0.00  0.00    +0.000 A 
ATOM     10  C   UNL     1       0.295  10.209  22.119  0.00  0.00    +0.000 A 
ATOM     11  C   UNL     1       0.770   8.915  21.901  0.00  0.00    +0.000 A 
ATOM     12  C   UNL     1       1.254   8.537  20.637  0.00  0.00    +0.000 A 
ATOM     13  C   UNL     1       1.726   7.237  20.407  0.00  0.00    +0.000 A 
ENDBRANCH   1   4
BRANCH   1  18
ATOM     14  C   UNL     1       7.085   7.252  17.411  0.00  0.00    +0.000 C 
ATOM     15  C   UNL     1       5.940   6.206  17.448  0.00  0.00    +0.000 C 
ATOM     16  C   UNL     1       4.993   6.599  16.309  0.00  0.00    +0.000 C 
ATOM     17  C   UNL     1       5.303   6.249  18.849  0.00  0.00    +0.000 C 
ATOM     18  N   UNL     1       4.357   5.159  19.199  0.00  0.00    +0.000 NA
ATOM     19  C   UNL     1       4.990   3.817  19.133  0.00  0.00    +0.000 C 
ATOM     20  C   UNL     1       5.398   3.474  17.714  0.00  0.00    +0.000 C 
ATOM     21  S   UNL     1       6.710   4.561  17.096  0.00  0.00    +0.000 S 
ATOM     22  O   UNL     1       7.953   4.384  18.041  0.00  0.00    +0.000 OA
ENDBRANCH   1  18
TORSDOF 2
ENDMDL
MODEL 2
REMARK VINA RESULT:      -7.4      2.290      3.460
REMARK  Name = 
REMARK  4 active torsions:
REMARK  status: ('A' for Active; 'I' for Inactive)
REMARK    1  A    between atoms: C_1  and  C_2
REMARK    2  A    between atoms: C_2  and  C_3
REMARK    3  A    between atoms: N_5  and  S_6
REMARK    4  A    between atoms: S_6  and  C_9
REMARK                            x       y       z     vdW  Elec       q    Type
REMARK                         _______ _______ _______ _____ _____    ______ ____
ROOT
ATOM      1  S   UNL     1       3.808   6.427  18.054  0.00  0.00    +0.000 S 
ATOM      2  O   UNL     1       4.678   6.106  19.164  0.00  0.00    +0.000 OA
ATOM      3  O   UNL     1       4.383   6.869  16.799  0.00  0.00    +0.000 OA
ENDROOT
BRANCH   1   4
ATOM      4  C   UNL     1       2.670   7.681  18.570  0.00  0.00    +0.000 A 
ATOM      5  C   UNL     1       2.149   8.591  17.647  0.00  0.00    +0.000 A 
ATOM      6  C   UNL     1       1.193   9.522  18.069  0.00  0.00    +0.000 A 
ATOM      7  C   UNL     1       0.753   9.548  19.405  0.00  0.00    +0.000 A 
ATOM      8  C   UNL     1      -0.213  10.469  19.843  0.00  0.00    +0.000 A 
ATOM      9  C   UNL     1      -0.646  10.472  21.170  0.00  0.00    +0.000 A 
ATOM     10  C   UNL     1      -0.126   9.553  22.076  0.00  0.00    +0.000 A 
ATOM     11  C   UNL     1       0.831   8.627  21.660  0.00  0.00    +0.000 A 
ATOM     12  C   UNL     1       1.282   8.617  20.328  0.00  0.00    +0.000 A 
ATOM     13  C   UNL     1       2.238   7.685  19.901  0.00  0.00    +0.000 A 
ENDBRANCH   1   4
BRANCH   1  18
ATOM     14  C   UNL     1       0.555   3.193  20.201  0.00  0.00    +0.000 C 
ATOM     15  C   UNL     1       1.927   3.721  19.708  0.00  0.00    +0.000 C 
ATOM     16  C   UNL     1       2.556   4.415  20.921  0.00  0.00    +0.000 C 
ATOM     17  C   UNL     1       1.674   4.649  18.505  0.00  0.00    +0.000 C 
ATOM     18  N   UNL     1       2.857   5.067  17.709  0.00  0.00    +0.000 NA
ATOM     19  C   UNL     1       3.584   3.912  17.126  0.00  0.00    +0.000 C 
ATOM     20  C   UNL     1       4.191   3.043  18.210  0.00  0.00    +0.000 C 
ATOM     21  S   UNL     1       2.928   2.240  19.232  0.00  0.00    +0.000 S 
ATOM     22  O   UNL     1       2.059   1.338  18.284  0.00  0.00    +0.000 OA
ENDBRANCH   1  18
TORSDOF 2
ENDMDL
MODEL 3
REMARK VINA RESULT:      -7.2      1.395      2.018
REMARK  Name = 
REMARK  4 active torsions:
REMARK  status: ('A' for Active; 'I' for Inactive)
REMARK    1  A    between atoms: C_1  and  C_2
REMARK    2  A    between atoms: C_2  and  C_3
REMARK    3  A    between atoms: N_5  and  S_6
REMARK    4  A    between atoms: S_6  and  C_9
REMARK                            x       y       z     vdW  Elec       q    Type
REMARK                         _______ _______ _______ _____ _____    ______ ____
ROOT
ATOM      1  S   UNL     1       3.235   5.988  18.497  0.00  0.00    +0.000 S 
ATOM      2  O   UNL     1       2.302   5.046  17.920  0.00  0.00    +0.000 OA
ATOM      3  O   UNL     1       4.009   5.605  19.661  0.00  0.00    +0.000 OA
ENDROOT
BRANCH   1   4
ATOM      4  C   UNL     1       2.358   7.464  18.924  0.00  0.00    +0.000 A 
ATOM      5  C   UNL     1       2.050   8.416  17.949  0.00  0.00    +0.000 A 
ATOM      6  C   UNL     1       1.289   9.536  18.302  0.00  0.00    +0.000 A 
ATOM      7  C   UNL     1       0.830   9.710  19.620  0.00  0.00    +0.000 A 
ATOM      8  C   UNL     1       0.056  10.823  19.989  0.00  0.00    +0.000 A 
ATOM      9  C   UNL     1      -0.400  10.972  21.299  0.00  0.00    +0.000 A 
ATOM     10  C   UNL     1      -0.095  10.011  22.258  0.00  0.00    +0.000 A 
ATOM     11  C   UNL     1       0.668   8.896  21.911  0.00  0.00    +0.000 A 
ATOM     12  C   UNL     1       1.140   8.736  20.597  0.00  0.00    +0.000 A 
ATOM     13  C   UNL     1       1.902   7.615  20.239  0.00  0.00    +0.000 A 
ENDBRANCH   1   4
BRANCH   1  18
ATOM     14  C   UNL     1       5.655   4.216  14.416  0.00  0.00    +0.000 C 
ATOM     15  C   UNL     1       5.450   4.574  15.911  0.00  0.00    +0.000 C 
ATOM     16  C   UNL     1       4.924   3.293  16.568  0.00  0.00    +0.000 C 
ATOM     17  C   UNL     1       4.483   5.770  15.984  0.00  0.00    +0.000 C 
ATOM     18  N   UNL     1       4.341   6.449  17.298  0.00  0.00    +0.000 NA
ATOM     19  C   UNL     1       5.628   6.997  17.795  0.00  0.00    +0.000 C 
ATOM     20  C   UNL     1       6.618   5.886  18.089  0.00  0.00    +0.000 C 
ATOM     21  S   UNL     1       7.117   4.999  16.590  0.00  0.00    +0.000 S 
ATOM     22  O   UNL     1       7.793   6.042  15.628  0.00  0.00    +0.000 OA
ENDBRANCH   1  18
TORSDOF 2
ENDMDL
MODEL 4
REMARK VINA RESULT:      -7.1      3.655      7.465
REMARK  Name = 
REMARK  4 active torsions:
REMARK  status: ('A' for Active; 'I' for Inactive)
REMARK    1  A    between atoms: C_1  and  C_2
REMARK    2  A    between atoms: C_2  and  C_3
REMARK    3  A    between atoms: N_5  and  S_6
REMARK    4  A    between atoms: S_6  and  C_9
REMARK                            x       y       z     vdW  Elec       q    Type
REMARK                         _______ _______ _______ _____ _____    ______ ____
ROOT
ATOM      1  S   UNL     1       5.016   4.682  18.222  0.00  0.00    +0.000 S 
ATOM      2  O   UNL     1       5.079   5.963  18.892  0.00  0.00    +0.000 OA
ATOM      3  O   UNL     1       5.581   3.511  18.864  0.00  0.00    +0.000 OA
ENDROOT
BRANCH   1   4
ATOM      4  C   UNL     1       5.798   4.831  16.641  0.00  0.00    +0.000 A 
ATOM      5  C   UNL     1       6.977   5.567  16.498  0.00  0.00    +0.000 A 
ATOM      6  C   UNL     1       7.615   5.603  15.252  0.00  0.00    +0.000 A 
ATOM      7  C   UNL     1       7.084   4.907  14.152  0.00  0.00    +0.000 A 
ATOM      8  C   UNL     1       7.717   4.924  12.897  0.00  0.00    +0.000 A 
ATOM      9  C   UNL     1       7.182   4.217  11.819  0.00  0.00    +0.000 A 
ATOM     10  C   UNL     1       6.013   3.480  11.978  0.00  0.00    +0.000 A 
ATOM     11  C   UNL     1       5.372   3.446  13.217  0.00  0.00    +0.000 A 
ATOM     12  C   UNL     1       5.895   4.158  14.310  0.00  0.00    +0.000 A 
ATOM     13  C   UNL     1       5.261   4.124  15.560  0.00  0.00    +0.000 A 
ENDBRANCH   1   4
BRANCH   1  18
ATOM     14  C   UNL     1       0.463   4.446  20.428  0.00  0.00    +0.000 C 
ATOM     15  C   UNL     1       1.825   3.920  19.904  0.00  0.00    +0.000 C 
ATOM     16  C   UNL     1       2.774   3.980  21.106  0.00  0.00    +0.000 C 
ATOM     17  C   UNL     1       2.248   4.802  18.714  0.00  0.00    +0.000 C 
ATOM     18  N   UNL     1       3.392   4.330  17.892  0.00  0.00    +0.000 NA
ATOM     19  C   UNL     1       3.139   3.000  17.282  0.00  0.00    +0.000 C 
ATOM     20  C   UNL     1       3.015   1.925  18.345  0.00  0.00    +0.000 C 
ATOM     21  S   UNL     1       1.556   2.163  19.392  0.00  0.00    +0.000 S 
ATOM     22  O   UNL     1       0.292   2.107  18.460  0.00  0.00    +0.000 OA
ENDBRANCH   1  18
TORSDOF 2
ENDMDL
MODEL 5
REMARK VINA RESULT:      -7.0      2.352      3.308
REMARK  Name = 
REMARK  4 active torsions:
REMARK  status: ('A' for Active; 'I' for Inactive)
REMARK    1  A    between atoms: C_1  and  C_2
REMARK    2  A    between atoms: C_2  and  C_3
REMARK    3  A    between atoms: N_5  and  S_6
REMARK    4  A    between atoms: S_6  and  C_9
REMARK                            x       y       z     vdW  Elec       q    Type
REMARK                         _______ _______ _______ _____ _____    ______ ____
ROOT
ATOM      1  S   UNL     1       2.841   6.321  18.387  0.00  0.00    +0.000 S 
ATOM      2  O   UNL     1       4.097   6.636  17.745  0.00  0.00    +0.000 OA
ATOM      3  O   UNL     1       1.837   5.565  17.664  0.00  0.00    +0.000 OA
ENDROOT
BRANCH   1   4
ATOM      4  C   UNL     1       2.075   7.832  18.904  0.00  0.00    +0.000 A 
ATOM      5  C   UNL     1       1.820   8.850  17.983  0.00  0.00    +0.000 A 
ATOM      6  C   UNL     1       1.144  10.001  18.405  0.00  0.00    +0.000 A 
ATOM      7  C   UNL     1       0.719  10.139  19.738  0.00  0.00    +0.000 A 
ATOM      8  C   UNL     1       0.030  11.283  20.176  0.00  0.00    +0.000 A 
ATOM      9  C   UNL     1      -0.394  11.396  21.501  0.00  0.00    +0.000 A 
ATOM     10  C   UNL     1      -0.143  10.368  22.406  0.00  0.00    +0.000 A 
ATOM     11  C   UNL     1       0.535   9.223  21.989  0.00  0.00    +0.000 A 
ATOM     12  C   UNL     1       0.975   9.097  20.660  0.00  0.00    +0.000 A 
ATOM     13  C   UNL     1       1.651   7.946  20.233  0.00  0.00    +0.000 A 
ENDBRANCH   1   4
BRANCH   1  18
ATOM     14  C   UNL     1       4.661   1.900  20.057  0.00  0.00    +0.000 C 
ATOM     15  C   UNL     1       3.584   2.927  19.619  0.00  0.00    +0.000 C 
ATOM     16  C   UNL     1       3.330   2.643  18.135  0.00  0.00    +0.000 C 
ATOM     17  C   UNL     1       4.127   4.338  19.913  0.00  0.00    +0.000 C 
ATOM     18  N   UNL     1       3.168   5.469  19.815  0.00  0.00    +0.000 NA
ATOM     19  C   UNL     1       2.022   5.323  20.747  0.00  0.00    +0.000 C 
ATOM     20  C   UNL     1       1.172   4.121  20.385  0.00  0.00    +0.000 C 
ATOM     21  S   UNL     1       2.064   2.559  20.607  0.00  0.00    +0.000 S 
ATOM     22  O   UNL     1       2.469   2.459  22.122  0.00  0.00    +0.000 OA
ENDBRANCH   1  18
TORSDOF 2
ENDMDL
MODEL 6
REMARK VINA RESULT:      -6.9      0.859      1.781
REMARK  Name = 
REMARK  4 active torsions:
REMARK  status: ('A' for Active; 'I' for Inactive)
REMARK    1  A    between atoms: C_1  and  C_2
REMARK    2  A    between atoms: C_2  and  C_3
REMARK    3  A    between atoms: N_5  and  S_6
REMARK    4  A    between atoms: S_6  and  C_9
REMARK                            x       y       z     vdW  Elec       q    Type
REMARK                         _______ _______ _______ _____ _____    ______ ____
ROOT
ATOM      1  S   UNL     1       2.809   4.546  18.539  0.00  0.00    +0.000 S 
ATOM      2  O   UNL     1       2.549   4.494  17.117  0.00  0.00    +0.000 OA
ATOM      3  O   UNL     1       2.279   3.509  19.402  0.00  0.00    +0.000 OA
ENDROOT
BRANCH   1   4
ATOM      4  C   UNL     1       2.214   6.091  19.166  0.00  0.00    +0.000 A 
ATOM      5  C   UNL     1       1.839   6.218  20.505  0.00  0.00    +0.000 A 
ATOM      6  C   UNL     1       1.445   7.470  20.991  0.00  0.00    +0.000 A 
ATOM      7  C   UNL     1       1.428   8.596  20.149  0.00  0.00    +0.000 A 
ATOM      8  C   UNL     1       1.046   9.863  20.623  0.00  0.00    +0.000 A 
ATOM      9  C   UNL     1       1.046  10.971  19.774  0.00  0.00    +0.000 A 
ATOM     10  C   UNL     1       1.432  10.833  18.445  0.00  0.00    +0.000 A 
ATOM     11  C   UNL     1       1.819   9.585  17.956  0.00  0.00    +0.000 A 
ATOM     12  C   UNL     1       1.817   8.459  18.796  0.00  0.00    +0.000 A 
ATOM     13  C   UNL     1       2.212   7.202  18.315  0.00  0.00    +0.000 A 
ENDBRANCH   1   4
BRANCH   1  18
ATOM     14  C   UNL     1       6.940   7.253  17.420  0.00  0.00    +0.000 C 
ATOM     15  C   UNL     1       5.879   6.134  17.256  0.00  0.00    +0.000 C 
ATOM     16  C   UNL     1       4.838   6.698  16.283  0.00  0.00    +0.000 C 
ATOM     17  C   UNL     1       5.327   5.796  18.654  0.00  0.00    +0.000 C 
ATOM     18  N   UNL     1       4.486   4.578  18.776  0.00  0.00    +0.000 NA
ATOM     19  C   UNL     1       5.211   3.347  18.369  0.00  0.00    +0.000 C 
ATOM     20  C   UNL     1       5.555   3.379  16.892  0.00  0.00    +0.000 C 
ATOM     21  S   UNL     1       6.744   4.687  16.495  0.00  0.00    +0.000 S 
ATOM     22  O   UNL     1       8.052   4.402  17.317  0.00  0.00    +0.000 OA
ENDBRANCH   1  18
TORSDOF 2
ENDMDL
MODEL 7
REMARK VINA RESULT:      -6.8      3.474      6.594
REMARK  Name = 
REMARK  4 active torsions:
REMARK  status: ('A' for Active; 'I' for Inactive)
REMARK    1  A    between atoms: C_1  and  C_2
REMARK    2  A    between atoms: C_2  and  C_3
REMARK    3  A    between atoms: N_5  and  S_6
REMARK    4  A    between atoms: S_6  and  C_9
REMARK                            x       y       z     vdW  Elec       q    Type
REMARK                         _______ _______ _______ _____ _____    ______ ____
ROOT
ATOM      1  S   UNL     1       2.791   6.024  18.264  0.00  0.00    +0.000 S 
ATOM      2  O   UNL     1       1.709   5.290  17.646  0.00  0.00    +0.000 OA
ATOM      3  O   UNL     1       2.618   7.431  18.570  0.00  0.00    +0.000 OA
ENDROOT
BRANCH   1   4
ATOM      4  C   UNL     1       4.225   5.893  17.234  0.00  0.00    +0.000 A 
ATOM      5  C   UNL     1       5.416   6.530  17.590  0.00  0.00    +0.000 A 
ATOM      6  C   UNL     1       6.555   6.345  16.797  0.00  0.00    +0.000 A 
ATOM      7  C   UNL     1       6.511   5.527  15.654  0.00  0.00    +0.000 A 
ATOM      8  C   UNL     1       7.648   5.323  14.853  0.00  0.00    +0.000 A 
ATOM      9  C   UNL     1       7.588   4.498  13.729  0.00  0.00    +0.000 A 
ATOM     10  C   UNL     1       6.398   3.860  13.392  0.00  0.00    +0.000 A 
ATOM     11  C   UNL     1       5.260   4.047  14.177  0.00  0.00    +0.000 A 
ATOM     12  C   UNL     1       5.302   4.880  15.308  0.00  0.00    +0.000 A 
ATOM     13  C   UNL     1       4.165   5.067  16.106  0.00  0.00    +0.000 A 
ENDBRANCH   1   4
BRANCH   1  18
ATOM     14  C   UNL     1       4.517   1.622  20.079  0.00  0.00    +0.000 C 
ATOM     15  C   UNL     1       3.461   2.680  19.666  0.00  0.00    +0.000 C 
ATOM     16  C   UNL     1       3.056   2.314  18.234  0.00  0.00    +0.000 C 
ATOM     17  C   UNL     1       4.104   4.073  19.809  0.00  0.00    +0.000 C 
ATOM     18  N   UNL     1       3.203   5.250  19.714  0.00  0.00    +0.000 NA
ATOM     19  C   UNL     1       2.142   5.236  20.753  0.00  0.00    +0.000 C 
ATOM     20  C   UNL     1       1.198   4.065  20.554  0.00  0.00    +0.000 C 
ATOM     21  S   UNL     1       2.021   2.471  20.808  0.00  0.00    +0.000 S 
ATOM     22  O   UNL     1       2.559   2.448  22.284  0.00  0.00    +0.000 OA
ENDBRANCH   1  18
TORSDOF 2
ENDMDL
MODEL 8
REMARK VINA RESULT:      -6.7      4.026      7.351
REMARK  Name = 
REMARK  4 active torsions:
REMARK  status: ('A' for Active; 'I' for Inactive)
REMARK    1  A    between atoms: C_1  and  C_2
REMARK    2  A    between atoms: C_2  and  C_3
REMARK    3  A    between atoms: N_5  and  S_6
REMARK    4  A    between atoms: S_6  and  C_9
REMARK                            x       y       z     vdW  Elec       q    Type
REMARK                         _______ _______ _______ _____ _____    ______ ____
ROOT
ATOM      1  S   UNL     1       0.902   8.964  21.276  0.00  0.00    +0.000 S 
ATOM      2  O   UNL     1       1.781   9.249  22.389  0.00  0.00    +0.000 OA
ATOM      3  O   UNL     1      -0.498   8.683  21.525  0.00  0.00    +0.000 OA
ENDROOT
BRANCH   1   4
ATOM      4  C   UNL     1       1.553   7.583  20.380  0.00  0.00    +0.000 A 
ATOM      5  C   UNL     1       2.302   7.779  19.218  0.00  0.00    +0.000 A 
ATOM      6  C   UNL     1       2.869   6.673  18.574  0.00  0.00    +0.000 A 
ATOM      7  C   UNL     1       2.695   5.375  19.085  0.00  0.00    +0.000 A 
ATOM      8  C   UNL     1       3.266   4.254  18.457  0.00  0.00    +0.000 A 
ATOM      9  C   UNL     1       3.092   2.975  18.986  0.00  0.00    +0.000 A 
ATOM     10  C   UNL     1       2.352   2.795  20.151  0.00  0.00    +0.000 A 
ATOM     11  C   UNL     1       1.781   3.895  20.792  0.00  0.00    +0.000 A 
ATOM     12  C   UNL     1       1.942   5.188  20.268  0.00  0.00    +0.000 A 
ATOM     13  C   UNL     1       1.377   6.299  20.910  0.00  0.00    +0.000 A 
ENDBRANCH   1   4
BRANCH   1  18
ATOM     14  C   UNL     1       0.319  13.990  21.076  0.00  0.00    +0.000 C 
ATOM     15  C   UNL     1      -0.094  12.500  20.966  0.00  0.00    +0.000 C 
ATOM     16  C   UNL     1      -0.712  12.147  22.324  0.00  0.00    +0.000 C 
ATOM     17  C   UNL     1       1.162  11.684  20.607  0.00  0.00    +0.000 C 
ATOM     18  N   UNL     1       0.961  10.271  20.199  0.00  0.00    +0.000 NA
ATOM     19  C   UNL     1       0.096  10.146  18.998  0.00  0.00    +0.000 C 
ATOM     20  C   UNL     1      -1.314  10.623  19.287  0.00  0.00    +0.000 C 
ATOM     21  S   UNL     1      -1.377  12.399  19.637  0.00  0.00    +0.000 S 
ATOM     22  O   UNL     1      -0.836  13.150  18.368  0.00  0.00    +0.000 OA
ENDBRANCH   1  18
TORSDOF 2
ENDMDL
MODEL 9
REMARK VINA RESULT:      -6.7      3.289      7.369
REMARK  Name = 
REMARK  4 active torsions:
REMARK  status: ('A' for Active; 'I' for Inactive)
REMARK    1  A    between atoms: C_1  and  C_2
REMARK    2  A    between atoms: C_2  and  C_3
REMARK    3  A    between atoms: N_5  and  S_6
REMARK    4  A    between atoms: S_6  and  C_9
REMARK                            x       y       z     vdW  Elec       q    Type
REMARK                         _______ _______ _______ _____ _____    ______ ____
ROOT
ATOM      1  S   UNL     1       4.682   5.580  17.830  0.00  0.00    +0.000 S 
ATOM      2  O   UNL     1       3.941   6.817  17.724  0.00  0.00    +0.000 OA
ATOM      3  O   UNL     1       5.646   5.413  18.900  0.00  0.00    +0.000 OA
ENDROOT
BRANCH   1   4
ATOM      4  C   UNL     1       5.548   5.308  16.310  0.00  0.00    +0.000 A 
ATOM      5  C   UNL     1       6.869   5.734  16.158  0.00  0.00    +0.000 A 
ATOM      6  C   UNL     1       7.553   5.436  14.974  0.00  0.00    +0.000 A 
ATOM      7  C   UNL     1       6.927   4.714  13.943  0.00  0.00    +0.000 A 
ATOM      8  C   UNL     1       7.603   4.397  12.752  0.00  0.00    +0.000 A 
ATOM      9  C   UNL     1       6.968   3.669  11.744  0.00  0.00    +0.000 A 
ATOM     10  C   UNL     1       5.655   3.241  11.913  0.00  0.00    +0.000 A 
ATOM     11  C   UNL     1       4.968   3.541  13.090  0.00  0.00    +0.000 A 
ATOM     12  C   UNL     1       5.592   4.280  14.110  0.00  0.00    +0.000 A 
ATOM     13  C   UNL     1       4.911   4.579  15.299  0.00  0.00    +0.000 A 
ENDBRANCH   1   4
BRANCH   1  18
ATOM     14  C   UNL     1       0.477   4.179  20.280  0.00  0.00    +0.000 C 
ATOM     15  C   UNL     1       1.999   4.285  20.002  0.00  0.00    +0.000 C 
ATOM     16  C   UNL     1       2.482   5.483  20.827  0.00  0.00    +0.000 C 
ATOM     17  C   UNL     1       2.194   4.440  18.481  0.00  0.00    +0.000 C 
ATOM     18  N   UNL     1       3.576   4.302  17.956  0.00  0.00    +0.000 NA
ATOM     19  C   UNL     1       4.168   2.975  18.261  0.00  0.00    +0.000 C 
ATOM     20  C   UNL     1       4.349   2.787  19.754  0.00  0.00    +0.000 C 
ATOM     21  S   UNL     1       2.766   2.725  20.634  0.00  0.00    +0.000 S 
ATOM     22  O   UNL     1       1.956   1.507  20.061  0.00  0.00    +0.000 OA
ENDBRANCH   1  18
TORSDOF 2
ENDMDL
