MODEL 1
REMARK VINA RESULT:      -6.5      0.000      0.000
REMARK  Name = 
REMARK  8 active torsions:
REMARK  status: ('A' for Active; 'I' for Inactive)
REMARK    1  A    between atoms: O_1  and  C_2
REMARK    2  A    between atoms: C_2  and  C_3
REMARK    3  A    between atoms: C_3  and  N_4
REMARK    4  A    between atoms: N_4  and  C_5
REMARK    5  A    between atoms: C_5  and  C_6
REMARK    6  A    between atoms: C_9  and  O_10
REMARK    7  A    between atoms: O_10  and  C_11
REMARK    8  A    between atoms: C_11  and  C_12
REMARK                            x       y       z     vdW  Elec       q    Type
REMARK                         _______ _______ _______ _____ _____    ______ ____
ROOT
ATOM      1  C   UNL     1       1.459   8.719  19.668  0.00  0.00    +0.000 A 
ATOM      2  C   UNL     1       2.115   8.452  18.456  0.00  0.00    +0.000 A 
ATOM      3  C   UNL     1       2.706   7.204  18.238  0.00  0.00    +0.000 A 
ATOM      4  C   UNL     1       2.664   6.214  19.228  0.00  0.00    +0.000 A 
ATOM      5  C   UNL     1       2.004   6.487  20.443  0.00  0.00    +0.000 A 
ATOM      6  C   UNL     1       1.403   7.728  20.655  0.00  0.00    +0.000 A 
ENDROOT
BRANCH   1   7
ATOM      7  C   UNL     1       0.806  10.058  19.900  0.00  0.00    +0.000 C 
BRANCH   7   8
ATOM      8  N   UNL     1       0.836  10.432  21.321  0.00  0.00    +0.000 NA
ATOM      9  H   UNL     1       1.127   9.583  21.861  0.00  0.00    +0.000 HD
BRANCH   8  10
ATOM     10  C   UNL     1      -0.483  10.868  21.801  0.00  0.00    +0.000 C 
BRANCH  10  11
ATOM     11  C   UNL     1      -0.801  10.211  23.140  0.00  0.00    +0.000 C 
BRANCH  11  12
ATOM     12  O   UNL     1       0.388   9.741  23.714  0.00  0.00    +0.000 OA
ATOM     13  H   UNL     1       1.077  10.431  23.536  0.00  0.00    +0.000 HD
ENDBRANCH  11  12
ENDBRANCH  10  11
ENDBRANCH   8  10
ENDBRANCH   7   8
ENDBRANCH   1   7
BRANCH   4  14
ATOM     14  O   UNL     1       3.267   5.025  18.977  0.00  0.00    +0.000 OA
BRANCH  14  15
ATOM     15  C   UNL     1       4.616   4.766  19.137  0.00  0.00    +0.000 C 
BRANCH  15  16
ATOM     16  C   UNL     1       5.297   4.803  17.798  0.00  0.00    +0.000 A 
ATOM     17  C   UNL     1       4.628   4.316  16.661  0.00  0.00    +0.000 A 
ATOM     18  C   UNL     1       5.248   4.351  15.410  0.00  0.00    +0.000 A 
ATOM     19  C   UNL     1       6.535   4.877  15.278  0.00  0.00    +0.000 A 
ATOM     20 CL   UNL     1       7.306   4.928  13.703  0.00  0.00    +0.000 Cl
ATOM     21  C   UNL     1       7.208   5.368  16.401  0.00  0.00    +0.000 A 
ATOM     22  C   UNL     1       6.600   5.331  17.660  0.00  0.00    +0.000 A 
ATOM     23 CL   UNL     1       7.488   5.973  19.040  0.00  0.00    +0.000 Cl
ENDBRANCH  15  16
ENDBRANCH  14  15
ENDBRANCH   4  14
TORSDOF 8
ENDMDL
MODEL 2
REMARK VINA RESULT:      -6.4      4.540      8.167
REMARK  Name = 
REMARK  8 active torsions:
REMARK  status: ('A' for Active; 'I' for Inactive)
REMARK    1  A    between atoms: O_1  and  C_2
REMARK    2  A    between atoms: C_2  and  C_3
REMARK    3  A    between atoms: C_3  and  N_4
REMARK    4  A    between atoms: N_4  and  C_5
REMARK    5  A    between atoms: C_5  and  C_6
REMARK    6  A    between atoms: C_9  and  O_10
REMARK    7  A    between atoms: O_10  and  C_11
REMARK    8  A    between atoms: C_11  and  C_12
REMARK                            x       y       z     vdW  Elec       q    Type
REMARK                         _______ _______ _______ _____ _____    ______ ____
ROOT
ATOM      1  C   UNL     1       4.045   5.441  18.264  0.00  0.00    +0.000 A 
ATOM      2  C   UNL     1       3.228   5.441  19.405  0.00  0.00    +0.000 A 
ATOM      3  C   UNL     1       2.425   6.548  19.693  0.00  0.00    +0.000 A 
ATOM      4  C   UNL     1       2.439   7.674  18.860  0.00  0.00    +0.000 A 
ATOM      5  C   UNL     1       3.261   7.670  17.716  0.00  0.00    +0.000 A 
ATOM      6  C   UNL     1       4.052   6.559  17.421  0.00  0.00    +0.000 A 
ENDROOT
BRANCH   1   7
ATOM      7  C   UNL     1       4.900   4.241  17.940  0.00  0.00    +0.000 C 
BRANCH   7   8
ATOM      8  N   UNL     1       6.099   4.191  18.788  0.00  0.00    +0.000 NA
ATOM      9  H   UNL     1       5.872   4.693  19.679  0.00  0.00    +0.000 HD
BRANCH   8  10
ATOM     10  C   UNL     1       7.248   4.852  18.153  0.00  0.00    +0.000 C 
BRANCH  10  11
ATOM     11  C   UNL     1       7.803   5.939  19.067  0.00  0.00    +0.000 C 
BRANCH  11  12
ATOM     12  O   UNL     1       7.861   5.450  20.379  0.00  0.00    +0.000 OA
ATOM     13  H   UNL     1       7.697   6.225  20.975  0.00  0.00    +0.000 HD
ENDBRANCH  11  12
ENDBRANCH  10  11
ENDBRANCH   8  10
ENDBRANCH   7   8
ENDBRANCH   1   7
BRANCH   4  14
ATOM     14  O   UNL     1       1.656   8.731  19.193  0.00  0.00    +0.000 OA
BRANCH  14  15
ATOM     15  C   UNL     1       1.546   9.901  18.464  0.00  0.00    +0.000 C 
BRANCH  15  16
ATOM     16  C   UNL     1       0.124  10.385  18.503  0.00  0.00    +0.000 A 
ATOM     17  C   UNL     1      -0.842   9.779  17.680  0.00  0.00    +0.000 A 
ATOM     18  C   UNL     1      -2.168  10.215  17.711  0.00  0.00    +0.000 A 
ATOM     19  C   UNL     1      -2.547  11.252  18.568  0.00  0.00    +0.000 A 
ATOM     20 CL   UNL     1      -4.216  11.790  18.611  0.00  0.00    +0.000 Cl
ATOM     21  C   UNL     1      -1.596  11.859  19.394  0.00  0.00    +0.000 A 
ATOM     22  C   UNL     1      -0.263  11.435  19.365  0.00  0.00    +0.000 A 
ATOM     23 CL   UNL     1       0.893  12.226  20.433  0.00  0.00    +0.000 Cl
ENDBRANCH  15  16
ENDBRANCH  14  15
ENDBRANCH   4  14
TORSDOF 8
ENDMDL
MODEL 3
REMARK VINA RESULT:      -6.4      4.711      6.914
REMARK  Name = 
REMARK  8 active torsions:
REMARK  status: ('A' for Active; 'I' for Inactive)
REMARK    1  A    between atoms: O_1  and  C_2
REMARK    2  A    between atoms: C_2  and  C_3
REMARK    3  A    between atoms: C_3  and  N_4
REMARK    4  A    between atoms: N_4  and  C_5
REMARK    5  A    between atoms: C_5  and  C_6
REMARK    6  A    between atoms: C_9  and  O_10
REMARK    7  A    between atoms: O_10  and  C_11
REMARK    8  A    between atoms: C_11  and  C_12
REMARK                            x       y       z     vdW  Elec       q    Type
REMARK                         _______ _______ _______ _____ _____    ______ ____
ROOT
ATOM      1  C   UNL     1       7.822   7.134  18.264  0.00  0.00    +0.000 A 
ATOM      2  C   UNL     1       7.864   5.849  18.826  0.00  0.00    +0.000 A 
ATOM      3  C   UNL     1       7.102   4.816  18.273  0.00  0.00    +0.000 A 
ATOM      4  C   UNL     1       6.279   5.053  17.165  0.00  0.00    +0.000 A 
ATOM      5  C   UNL     1       6.240   6.345  16.604  0.00  0.00    +0.000 A 
ATOM      6  C   UNL     1       7.010   7.373  17.148  0.00  0.00    +0.000 A 
ENDROOT
BRANCH   1   7
ATOM      7  C   UNL     1       8.656   8.247  18.848  0.00  0.00    +0.000 C 
BRANCH   7   8
ATOM      8  N   UNL     1       8.498   9.494  18.085  0.00  0.00    +0.000 NA
ATOM      9  H   UNL     1       8.989   9.365  17.170  0.00  0.00    +0.000 HD
BRANCH   8  10
ATOM     10  C   UNL     1       9.094  10.643  18.783  0.00  0.00    +0.000 C 
BRANCH  10  11
ATOM     11  C   UNL     1      10.109  11.338  17.882  0.00  0.00    +0.000 C 
BRANCH  11  12
ATOM     12  O   UNL     1       9.770  12.693  17.769  0.00  0.00    +0.000 OA
ATOM     13  H   UNL     1      10.377  13.185  18.380  0.00  0.00    +0.000 HD
ENDBRANCH  11  12
ENDBRANCH  10  11
ENDBRANCH   8  10
ENDBRANCH   7   8
ENDBRANCH   1   7
BRANCH   4  14
ATOM     14  O   UNL     1       5.545   4.023  16.675  0.00  0.00    +0.000 OA
BRANCH  14  15
ATOM     15  C   UNL     1       4.183   4.057  16.438  0.00  0.00    +0.000 C 
BRANCH  15  16
ATOM     16  C   UNL     1       3.444   3.730  17.705  0.00  0.00    +0.000 A 
ATOM     17  C   UNL     1       3.340   2.393  18.127  0.00  0.00    +0.000 A 
ATOM     18  C   UNL     1       2.661   2.077  19.306  0.00  0.00    +0.000 A 
ATOM     19  C   UNL     1       2.086   3.089  20.079  0.00  0.00    +0.000 A 
ATOM     20 CL   UNL     1       1.243   2.688  21.563  0.00  0.00    +0.000 Cl
ATOM     21  C   UNL     1       2.186   4.422  19.670  0.00  0.00    +0.000 A 
ATOM     22  C   UNL     1       2.857   4.750  18.487  0.00  0.00    +0.000 A 
ATOM     23 CL   UNL     1       2.964   6.446  18.024  0.00  0.00    +0.000 Cl
ENDBRANCH  15  16
ENDBRANCH  14  15
ENDBRANCH   4  14
TORSDOF 8
ENDMDL
MODEL 4
REMARK VINA RESULT:      -6.4      2.460      2.867
REMARK  Name = 
REMARK  8 active torsions:
REMARK  status: ('A' for Active; 'I' for Inactive)
REMARK    1  A    between atoms: O_1  and  C_2
REMARK    2  A    between atoms: C_2  and  C_3
REMARK    3  A    between atoms: C_3  and  N_4
REMARK    4  A    between atoms: N_4  and  C_5
REMARK    5  A    between atoms: C_5  and  C_6
REMARK    6  A    between atoms: C_9  and  O_10
REMARK    7  A    between atoms: O_10  and  C_11
REMARK    8  A    between atoms: C_11  and  C_12
REMARK                            x       y       z     vdW  Elec       q    Type
REMARK                         _______ _______ _______ _____ _____    ______ ____
ROOT
ATOM      1  C   UNL     1       1.361   9.101  19.148  0.00  0.00    +0.000 A 
ATOM      2  C   UNL     1       1.985   8.555  18.016  0.00  0.00    +0.000 A 
ATOM      3  C   UNL     1       2.582   7.293  18.084  0.00  0.00    +0.000 A 
ATOM      4  C   UNL     1       2.578   6.568  19.282  0.00  0.00    +0.000 A 
ATOM      5  C   UNL     1       1.951   7.120  20.416  0.00  0.00    +0.000 A 
ATOM      6  C   UNL     1       1.343   8.374  20.345  0.00  0.00    +0.000 A 
ENDROOT
BRANCH   1   7
ATOM      7  C   UNL     1       0.701  10.455  19.074  0.00  0.00    +0.000 C 
BRANCH   7   8
ATOM      8  N   UNL     1      -0.099  10.597  17.849  0.00  0.00    +0.000 NA
ATOM      9  H   UNL     1       0.009  11.584  17.517  0.00  0.00    +0.000 HD
BRANCH   8  10
ATOM     10  C   UNL     1      -1.525  10.335  18.092  0.00  0.00    +0.000 C 
BRANCH  10  11
ATOM     11  C   UNL     1      -2.376  11.453  17.501  0.00  0.00    +0.000 C 
BRANCH  11  12
ATOM     12  O   UNL     1      -1.539  12.507  17.108  0.00  0.00    +0.000 OA
ATOM     13  H   UNL     1      -1.650  12.601  16.126  0.00  0.00    +0.000 HD
ENDBRANCH  11  12
ENDBRANCH  10  11
ENDBRANCH   8  10
ENDBRANCH   7   8
ENDBRANCH   1   7
BRANCH   4  14
ATOM     14  O   UNL     1       3.187   5.355  19.303  0.00  0.00    +0.000 OA
BRANCH  14  15
ATOM     15  C   UNL     1       4.546   5.148  19.445  0.00  0.00    +0.000 C 
BRANCH  15  16
ATOM     16  C   UNL     1       5.188   5.078  18.089  0.00  0.00    +0.000 A 
ATOM     17  C   UNL     1       6.218   5.977  17.757  0.00  0.00    +0.000 A 
ATOM     18  C   UNL     1       6.827   5.918  16.502  0.00  0.00    +0.000 A 
ATOM     19  C   UNL     1       6.424   4.960  15.569  0.00  0.00    +0.000 A 
ATOM     20 CL   UNL     1       7.199   4.884  13.997  0.00  0.00    +0.000 Cl
ATOM     21  C   UNL     1       5.404   4.059  15.889  0.00  0.00    +0.000 A 
ATOM     22  C   UNL     1       4.781   4.114  17.140  0.00  0.00    +0.000 A 
ATOM     23 CL   UNL     1       3.509   2.949  17.497  0.00  0.00    +0.000 Cl
ENDBRANCH  15  16
ENDBRANCH  14  15
ENDBRANCH   4  14
TORSDOF 8
ENDMDL
MODEL 5
REMARK VINA RESULT:      -6.4      2.101      2.490
REMARK  Name = 
REMARK  8 active torsions:
REMARK  status: ('A' for Active; 'I' for Inactive)
REMARK    1  A    between atoms: O_1  and  C_2
REMARK    2  A    between atoms: C_2  and  C_3
REMARK    3  A    between atoms: C_3  and  N_4
REMARK    4  A    between atoms: N_4  and  C_5
REMARK    5  A    between atoms: C_5  and  C_6
REMARK    6  A    between atoms: C_9  and  O_10
REMARK    7  A    between atoms: O_10  and  C_11
REMARK    8  A    between atoms: C_11  and  C_12
REMARK                            x       y       z     vdW  Elec       q    Type
REMARK                         _______ _______ _______ _____ _____    ______ ____
ROOT
ATOM      1  C   UNL     1       1.607   9.071  18.923  0.00  0.00    +0.000 A 
ATOM      2  C   UNL     1       1.546   8.314  20.104  0.00  0.00    +0.000 A 
ATOM      3  C   UNL     1       2.233   7.101  20.196  0.00  0.00    +0.000 A 
ATOM      4  C   UNL     1       2.975   6.619  19.110  0.00  0.00    +0.000 A 
ATOM      5  C   UNL     1       3.033   7.381  17.927  0.00  0.00    +0.000 A 
ATOM      6  C   UNL     1       2.358   8.599  17.839  0.00  0.00    +0.000 A 
ENDROOT
BRANCH   1   7
ATOM      7  C   UNL     1       0.880  10.389  18.827  0.00  0.00    +0.000 C 
BRANCH   7   8
ATOM      8  N   UNL     1      -0.519  10.203  18.419  0.00  0.00    +0.000 NA
ATOM      9  H   UNL     1      -0.569  10.371  17.386  0.00  0.00    +0.000 HD
BRANCH   8  10
ATOM     10  C   UNL     1      -1.418  11.149  19.094  0.00  0.00    +0.000 C 
BRANCH  10  11
ATOM     11  C   UNL     1      -1.208  12.557  18.549  0.00  0.00    +0.000 C 
BRANCH  11  12
ATOM     12  O   UNL     1      -1.376  12.540  17.158  0.00  0.00    +0.000 OA
ATOM     13  H   UNL     1      -1.863  11.703  16.944  0.00  0.00    +0.000 HD
ENDBRANCH  11  12
ENDBRANCH  10  11
ENDBRANCH   8  10
ENDBRANCH   7   8
ENDBRANCH   1   7
BRANCH   4  14
ATOM     14  O   UNL     1       3.609   5.427  19.241  0.00  0.00    +0.000 OA
BRANCH  14  15
ATOM     15  C   UNL     1       4.980   5.247  19.219  0.00  0.00    +0.000 C 
BRANCH  15  16
ATOM     16  C   UNL     1       5.429   4.980  17.810  0.00  0.00    +0.000 A 
ATOM     17  C   UNL     1       4.650   4.161  16.973  0.00  0.00    +0.000 A 
ATOM     18  C   UNL     1       5.053   3.910  15.659  0.00  0.00    +0.000 A 
ATOM     19  C   UNL     1       6.230   4.479  15.165  0.00  0.00    +0.000 A 
ATOM     20 CL   UNL     1       6.727   4.169  13.511  0.00  0.00    +0.000 Cl
ATOM     21  C   UNL     1       7.009   5.298  15.987  0.00  0.00    +0.000 A 
ATOM     22  C   UNL     1       6.620   5.549  17.307  0.00  0.00    +0.000 A 
ATOM     23 CL   UNL     1       7.633   6.597  18.296  0.00  0.00    +0.000 Cl
ENDBRANCH  15  16
ENDBRANCH  14  15
ENDBRANCH   4  14
TORSDOF 8
ENDMDL
MODEL 6
REMARK VINA RESULT:      -6.3      4.665      6.795
REMARK  Name = 
REMARK  8 active torsions:
REMARK  status: ('A' for Active; 'I' for Inactive)
REMARK    1  A    between atoms: O_1  and  C_2
REMARK    2  A    between atoms: C_2  and  C_3
REMARK    3  A    between atoms: C_3  and  N_4
REMARK    4  A    between atoms: N_4  and  C_5
REMARK    5  A    between atoms: C_5  and  C_6
REMARK    6  A    between atoms: C_9  and  O_10
REMARK    7  A    between atoms: O_10  and  C_11
REMARK    8  A    between atoms: C_11  and  C_12
REMARK                            x       y       z     vdW  Elec       q    Type
REMARK                         _______ _______ _______ _____ _____    ______ ____
ROOT
ATOM      1  C   UNL     1       8.121   7.540  18.345  0.00  0.00    +0.000 A 
ATOM      2  C   UNL     1       7.371   7.673  17.166  0.00  0.00    +0.000 A 
ATOM      3  C   UNL     1       6.684   6.574  16.643  0.00  0.00    +0.000 A 
ATOM      4  C   UNL     1       6.748   5.327  17.278  0.00  0.00    +0.000 A 
ATOM      5  C   UNL     1       7.503   5.198  18.461  0.00  0.00    +0.000 A 
ATOM      6  C   UNL     1       8.178   6.299  18.990  0.00  0.00    +0.000 A 
ENDROOT
BRANCH   1   7
ATOM      7  C   UNL     1       8.850   8.728  18.920  0.00  0.00    +0.000 C 
BRANCH   7   8
ATOM      8  N   UNL     1       8.530   9.962  18.188  0.00  0.00    +0.000 NA
ATOM      9  H   UNL     1       8.401   9.703  17.182  0.00  0.00    +0.000 HD
BRANCH   8  10
ATOM     10  C   UNL     1       9.611  10.953  18.285  0.00  0.00    +0.000 C 
BRANCH  10  11
ATOM     11  C   UNL     1       9.117  12.320  17.825  0.00  0.00    +0.000 C 
BRANCH  11  12
ATOM     12  O   UNL     1       9.994  13.307  18.294  0.00  0.00    +0.000 OA
ATOM     13  H   UNL     1      10.107  13.956  17.553  0.00  0.00    +0.000 HD
ENDBRANCH  11  12
ENDBRANCH  10  11
ENDBRANCH   8  10
ENDBRANCH   7   8
ENDBRANCH   1   7
BRANCH   4  14
ATOM     14  O   UNL     1       6.079   4.286  16.723  0.00  0.00    +0.000 OA
BRANCH  14  15
ATOM     15  C   UNL     1       4.760   4.314  16.312  0.00  0.00    +0.000 C 
BRANCH  15  16
ATOM     16  C   UNL     1       3.865   3.972  17.470  0.00  0.00    +0.000 A 
ATOM     17  C   UNL     1       3.672   2.626  17.828  0.00  0.00    +0.000 A 
ATOM     18  C   UNL     1       2.849   2.295  18.907  0.00  0.00    +0.000 A 
ATOM     19  C   UNL     1       2.217   3.300  19.643  0.00  0.00    +0.000 A 
ATOM     20 CL   UNL     1       1.191   2.880  21.002  0.00  0.00    +0.000 Cl
ATOM     21  C   UNL     1       2.404   4.641  19.298  0.00  0.00    +0.000 A 
ATOM     22  C   UNL     1       3.221   4.985  18.215  0.00  0.00    +0.000 A 
ATOM     23 CL   UNL     1       3.432   6.690  17.829  0.00  0.00    +0.000 Cl
ENDBRANCH  15  16
ENDBRANCH  14  15
ENDBRANCH   4  14
TORSDOF 8
ENDMDL
MODEL 7
REMARK VINA RESULT:      -6.3      2.994      3.570
REMARK  Name = 
REMARK  8 active torsions:
REMARK  status: ('A' for Active; 'I' for Inactive)
REMARK    1  A    between atoms: O_1  and  C_2
REMARK    2  A    between atoms: C_2  and  C_3
REMARK    3  A    between atoms: C_3  and  N_4
REMARK    4  A    between atoms: N_4  and  C_5
REMARK    5  A    between atoms: C_5  and  C_6
REMARK    6  A    between atoms: C_9  and  O_10
REMARK    7  A    between atoms: O_10  and  C_11
REMARK    8  A    between atoms: C_11  and  C_12
REMARK                            x       y       z     vdW  Elec       q    Type
REMARK                         _______ _______ _______ _____ _____    ______ ____
ROOT
ATOM      1  C   UNL     1       0.272  10.107  19.589  0.00  0.00    +0.000 A 
ATOM      2  C   UNL     1       0.504   9.300  20.714  0.00  0.00    +0.000 A 
ATOM      3  C   UNL     1       1.377   8.212  20.629  0.00  0.00    +0.000 A 
ATOM      4  C   UNL     1       2.017   7.905  19.422  0.00  0.00    +0.000 A 
ATOM      5  C   UNL     1       1.781   8.718  18.295  0.00  0.00    +0.000 A 
ATOM      6  C   UNL     1       0.919   9.812  18.383  0.00  0.00    +0.000 A 
ENDROOT
BRANCH   1   7
ATOM      7  C   UNL     1      -0.657  11.291  19.682  0.00  0.00    +0.000 C 
BRANCH   7   8
ATOM      8  N   UNL     1      -1.295  11.576  18.389  0.00  0.00    +0.000 NA
ATOM      9  H   UNL     1      -1.442  12.612  18.335  0.00  0.00    +0.000 HD
BRANCH   8  10
ATOM     10  C   UNL     1      -2.598  10.907  18.262  0.00  0.00    +0.000 C 
BRANCH  10  11
ATOM     11  C   UNL     1      -3.323  11.398  17.014  0.00  0.00    +0.000 C 
BRANCH  11  12
ATOM     12  O   UNL     1      -2.406  11.499  15.959  0.00  0.00    +0.000 OA
ATOM     13  H   UNL     1      -2.855  11.121  15.160  0.00  0.00    +0.000 HD
ENDBRANCH  11  12
ENDBRANCH  10  11
ENDBRANCH   8  10
ENDBRANCH   7   8
ENDBRANCH   1   7
BRANCH   4  14
ATOM     14  O   UNL     1       2.841   6.828  19.384  0.00  0.00    +0.000 OA
BRANCH  14  15
ATOM     15  C   UNL     1       2.592   5.658  18.691  0.00  0.00    +0.000 C 
BRANCH  15  16
ATOM     16  C   UNL     1       3.665   5.446  17.661  0.00  0.00    +0.000 A 
ATOM     17  C   UNL     1       4.468   6.528  17.257  0.00  0.00    +0.000 A 
ATOM     18  C   UNL     1       5.473   6.342  16.305  0.00  0.00    +0.000 A 
ATOM     19  C   UNL     1       5.692   5.079  15.752  0.00  0.00    +0.000 A 
ATOM     20 CL   UNL     1       6.962   4.849  14.563  0.00  0.00    +0.000 Cl
ATOM     21  C   UNL     1       4.903   3.995  16.148  0.00  0.00    +0.000 A 
ATOM     22  C   UNL     1       3.888   4.170  17.096  0.00  0.00    +0.000 A 
ATOM     23 CL   UNL     1       2.929   2.771  17.568  0.00  0.00    +0.000 Cl
ENDBRANCH  15  16
ENDBRANCH  14  15
ENDBRANCH   4  14
TORSDOF 8
ENDMDL
MODEL 8
REMARK VINA RESULT:      -6.2      2.545      2.954
REMARK  Name = 
REMARK  8 active torsions:
REMARK  status: ('A' for Active; 'I' for Inactive)
REMARK    1  A    between atoms: O_1  and  C_2
REMARK    2  A    between atoms: C_2  and  C_3
REMARK    3  A    between atoms: C_3  and  N_4
REMARK    4  A    between atoms: N_4  and  C_5
REMARK    5  A    between atoms: C_5  and  C_6
REMARK    6  A    between atoms: C_9  and  O_10
REMARK    7  A    between atoms: O_10  and  C_11
REMARK    8  A    between atoms: C_11  and  C_12
REMARK                            x       y       z     vdW  Elec       q    Type
REMARK                         _______ _______ _______ _____ _____    ______ ____
ROOT
ATOM      1  C   UNL     1       1.185   9.869  19.222  0.00  0.00    +0.000 A 
ATOM      2  C   UNL     1       1.737   9.312  18.057  0.00  0.00    +0.000 A 
ATOM      3  C   UNL     1       2.245   8.011  18.074  0.00  0.00    +0.000 A 
ATOM      4  C   UNL     1       2.226   7.254  19.252  0.00  0.00    +0.000 A 
ATOM      5  C   UNL     1       1.672   7.817  20.420  0.00  0.00    +0.000 A 
ATOM      6  C   UNL     1       1.152   9.111  20.400  0.00  0.00    +0.000 A 
ENDROOT
BRANCH   1   7
ATOM      7  C   UNL     1       0.620  11.267  19.203  0.00  0.00    +0.000 C 
BRANCH   7   8
ATOM      8  N   UNL     1      -0.294  11.462  18.069  0.00  0.00    +0.000 NA
ATOM      9  H   UNL     1      -0.442  12.493  17.962  0.00  0.00    +0.000 HD
BRANCH   8  10
ATOM     10  C   UNL     1      -1.596  10.819  18.297  0.00  0.00    +0.000 C 
BRANCH  10  11
ATOM     11  C   UNL     1      -1.964   9.936  17.110  0.00  0.00    +0.000 C 
BRANCH  11  12
ATOM     12  O   UNL     1      -3.320   9.592  17.197  0.00  0.00    +0.000 OA
ATOM     13  H   UNL     1      -3.798  10.174  16.552  0.00  0.00    +0.000 HD
ENDBRANCH  11  12
ENDBRANCH  10  11
ENDBRANCH   8  10
ENDBRANCH   7   8
ENDBRANCH   1   7
BRANCH   4  14
ATOM     14  O   UNL     1       2.749   6.003  19.223  0.00  0.00    +0.000 OA
BRANCH  14  15
ATOM     15  C   UNL     1       4.093   5.697  19.326  0.00  0.00    +0.000 C 
BRANCH  15  16
ATOM     16  C   UNL     1       4.627   5.316  17.975  0.00  0.00    +0.000 A 
ATOM     17  C   UNL     1       5.264   6.284  17.178  0.00  0.00    +0.000 A 
ATOM     18  C   UNL     1       5.771   5.941  15.922  0.00  0.00    +0.000 A 
ATOM     19  C   UNL     1       5.655   4.630  15.452  0.00  0.00    +0.000 A 
ATOM     20 CL   UNL     1       6.301   4.202  13.879  0.00  0.00    +0.000 Cl
ATOM     21  C   UNL     1       5.027   3.659  16.237  0.00  0.00    +0.000 A 
ATOM     22  C   UNL     1       4.508   3.993  17.493  0.00  0.00    +0.000 A 
ATOM     23 CL   UNL     1       3.736   2.729  18.446  0.00  0.00    +0.000 Cl
ENDBRANCH  15  16
ENDBRANCH  14  15
ENDBRANCH   4  14
TORSDOF 8
ENDMDL
MODEL 9
REMARK VINA RESULT:      -6.2      4.379      8.325
REMARK  Name = 
REMARK  8 active torsions:
REMARK  status: ('A' for Active; 'I' for Inactive)
REMARK    1  A    between atoms: O_1  and  C_2
REMARK    2  A    between atoms: C_2  and  C_3
REMARK    3  A    between atoms: C_3  and  N_4
REMARK    4  A    between atoms: N_4  and  C_5
REMARK    5  A    between atoms: C_5  and  C_6
REMARK    6  A    between atoms: C_9  and  O_10
REMARK    7  A    between atoms: O_10  and  C_11
REMARK    8  A    between atoms: C_11  and  C_12
REMARK                            x       y       z     vdW  Elec       q    Type
REMARK                         _______ _______ _______ _____ _____    ______ ____
ROOT
ATOM      1  C   UNL     1       4.210   5.265  17.777  0.00  0.00    +0.000 A 
ATOM      2  C   UNL     1       4.273   6.520  17.152  0.00  0.00    +0.000 A 
ATOM      3  C   UNL     1       3.458   7.566  17.595  0.00  0.00    +0.000 A 
ATOM      4  C   UNL     1       2.561   7.371  18.653  0.00  0.00    +0.000 A 
ATOM      5  C   UNL     1       2.501   6.109  19.277  0.00  0.00    +0.000 A 
ATOM      6  C   UNL     1       3.323   5.069  18.844  0.00  0.00    +0.000 A 
ENDROOT
BRANCH   1   7
ATOM      7  C   UNL     1       5.099   4.139  17.313  0.00  0.00    +0.000 C 
BRANCH   7   8
ATOM      8  N   UNL     1       6.260   3.970  18.200  0.00  0.00    +0.000 NA
ATOM      9  H   UNL     1       5.970   4.284  19.156  0.00  0.00    +0.000 HD
BRANCH   8  10
ATOM     10  C   UNL     1       7.405   4.782  17.763  0.00  0.00    +0.000 C 
BRANCH  10  11
ATOM     11  C   UNL     1       7.877   5.682  18.899  0.00  0.00    +0.000 C 
BRANCH  11  12
ATOM     12  O   UNL     1       7.125   5.404  20.049  0.00  0.00    +0.000 OA
ATOM     13  H   UNL     1       6.341   6.011  20.024  0.00  0.00    +0.000 HD
ENDBRANCH  11  12
ENDBRANCH  10  11
ENDBRANCH   8  10
ENDBRANCH   7   8
ENDBRANCH   1   7
BRANCH   4  14
ATOM     14  O   UNL     1       1.778   8.411  19.034  0.00  0.00    +0.000 OA
BRANCH  14  15
ATOM     15  C   UNL     1       1.216   9.341  18.179  0.00  0.00    +0.000 C 
BRANCH  15  16
ATOM     16  C   UNL     1       0.318  10.261  18.957  0.00  0.00    +0.000 A 
ATOM     17  C   UNL     1       0.790  10.862  20.138  0.00  0.00    +0.000 A 
ATOM     18  C   UNL     1      -0.032  11.724  20.867  0.00  0.00    +0.000 A 
ATOM     19  C   UNL     1      -1.328  12.001  20.424  0.00  0.00    +0.000 A 
ATOM     20 CL   UNL     1      -2.354  13.092  21.337  0.00  0.00    +0.000 Cl
ATOM     21  C   UNL     1      -1.806  11.412  19.250  0.00  0.00    +0.000 A 
ATOM     22  C   UNL     1      -0.994  10.541  18.516  0.00  0.00    +0.000 A 
ATOM     23 CL   UNL     1      -1.641   9.834  17.038  0.00  0.00    +0.000 Cl
ENDBRANCH  15  16
ENDBRANCH  14  15
ENDBRANCH   4  14
TORSDOF 8
ENDMDL
