MODEL 1
REMARK VINA RESULT:      -8.0      0.000      0.000
REMARK  Name = 
REMARK  9 active torsions:
REMARK  status: ('A' for Active; 'I' for Inactive)
REMARK    1  A    between atoms: C_1  and  C_2
REMARK    2  A    between atoms: C_2  and  C_3
REMARK    3  A    between atoms: C_2  and  C_4
REMARK    4  A    between atoms: C_4  and  C_5
REMARK    5  A    between atoms: C_5  and  C_6
REMARK    6  A    between atoms: C_10  and  C_11
REMARK    7  A    between atoms: N_14  and  O_15
REMARK    8  A    between atoms: C_17  and  C_18
REMARK    9  A    between atoms: C_17  and  O_19
REMARK                            x       y       z     vdW  Elec       q    Type
REMARK                         _______ _______ _______ _____ _____    ______ ____
ROOT
ATOM      1  C   UNL     1       5.876   5.461  16.399  0.00  0.00    +0.000 C 
ATOM      2  O   UNL     1       4.493   5.841  16.621  0.00  0.00    +0.000 OA
ATOM      3  C   UNL     1       4.417   6.427  17.928  0.00  0.00    +0.000 C 
ATOM      4  C   UNL     1       2.989   6.507  18.451  0.00  0.00    +0.000 C 
ATOM      5  C   UNL     1       2.375   5.160  18.837  0.00  0.00    +0.000 C 
ATOM      6  C   UNL     1       1.945   4.340  17.622  0.00  0.00    +0.000 C 
ATOM      7  C   UNL     1       3.308   4.377  19.759  0.00  0.00    +0.000 C 
ATOM      8  C   UNL     1       4.729   4.298  19.216  0.00  0.00    +0.000 C 
ATOM      9  N   UNL     1       5.459   3.219  19.247  0.00  0.00    +0.000 NA
ATOM     10  C   UNL     1       5.387   5.612  18.768  0.00  0.00    +0.000 C 
ATOM     11  C   UNL     1       6.569   5.483  17.789  0.00  0.00    +0.000 C 
ATOM     12  C   UNL     1       7.496   6.707  17.888  0.00  0.00    +0.000 C 
ENDROOT
BRANCH   9  13
ATOM     13  O   UNL     1       4.777   2.127  19.783  0.00  0.00    +0.000 OA
ATOM     14  H   UNL     1       5.496   1.500  19.990  0.00  0.00    +0.000 HD
ENDBRANCH   9  13
BRANCH  11  15
ATOM     15  O   UNL     1       7.435   4.377  18.026  0.00  0.00    +0.000 OA
ATOM     16  H   UNL     1       7.399   4.168  18.982  0.00  0.00    +0.000 HD
ENDBRANCH  11  15
BRANCH   1  17
ATOM     17  C   UNL     1       5.955   4.126  15.649  0.00  0.00    +0.000 C 
BRANCH  17  18
ATOM     18  C   UNL     1       5.435   4.232  14.208  0.00  0.00    +0.000 C 
BRANCH  18  20
ATOM     19  C   UNL     1       5.627   3.066  11.987  0.00  0.00    +0.000 C 
ATOM     20  C   UNL     1       6.414   3.692  13.144  0.00  0.00    +0.000 C 
ATOM     21  C   UNL     1       7.352   4.767  12.591  0.00  0.00    +0.000 C 
ENDBRANCH  18  20
ENDBRANCH  17  18
ENDBRANCH   1  17
TORSDOF 5
ENDMDL
MODEL 2
REMARK VINA RESULT:      -7.3      2.498      4.128
REMARK  Name = 
REMARK  9 active torsions:
REMARK  status: ('A' for Active; 'I' for Inactive)
REMARK    1  A    between atoms: C_1  and  C_2
REMARK    2  A    between atoms: C_2  and  C_3
REMARK    3  A    between atoms: C_2  and  C_4
REMARK    4  A    between atoms: C_4  and  C_5
REMARK    5  A    between atoms: C_5  and  C_6
REMARK    6  A    between atoms: C_10  and  C_11
REMARK    7  A    between atoms: N_14  and  O_15
REMARK    8  A    between atoms: C_17  and  C_18
REMARK    9  A    between atoms: C_17  and  O_19
REMARK                            x       y       z     vdW  Elec       q    Type
REMARK                         _______ _______ _______ _____ _____    ______ ____
ROOT
ATOM      1  C   UNL     1       4.274   5.597  18.382  0.00  0.00    +0.000 C 
ATOM      2  O   UNL     1       4.003   4.333  17.722  0.00  0.00    +0.000 OA
ATOM      3  C   UNL     1       2.582   4.240  17.548  0.00  0.00    +0.000 C 
ATOM      4  C   UNL     1       2.122   2.822  17.239  0.00  0.00    +0.000 C 
ATOM      5  C   UNL     1       2.208   1.852  18.419  0.00  0.00    +0.000 C 
ATOM      6  C   UNL     1       3.637   1.389  18.697  0.00  0.00    +0.000 C 
ATOM      7  C   UNL     1       1.542   2.441  19.661  0.00  0.00    +0.000 C 
ATOM      8  C   UNL     1       2.021   3.856  19.962  0.00  0.00    +0.000 C 
ATOM      9  N   UNL     1       2.302   4.289  21.159  0.00  0.00    +0.000 NA
ATOM     10  C   UNL     1       2.002   4.868  18.806  0.00  0.00    +0.000 C 
ATOM     11  C   UNL     1       2.921   6.094  18.958  0.00  0.00    +0.000 C 
ATOM     12  C   UNL     1       2.401   7.274  18.118  0.00  0.00    +0.000 C 
ENDROOT
BRANCH   9  13
ATOM     13  O   UNL     1       2.168   3.298  22.131  0.00  0.00    +0.000 OA
ATOM     14  H   UNL     1       2.818   3.566  22.808  0.00  0.00    +0.000 HD
ENDBRANCH   9  13
BRANCH  11  15
ATOM     15  O   UNL     1       3.009   6.626  20.277  0.00  0.00    +0.000 OA
ATOM     16  H   UNL     1       2.105   6.871  20.562  0.00  0.00    +0.000 HD
ENDBRANCH  11  15
BRANCH   1  17
ATOM     17  C   UNL     1       5.404   5.439  19.407  0.00  0.00    +0.000 C 
BRANCH  17  18
ATOM     18  C   UNL     1       6.790   5.689  18.794  0.00  0.00    +0.000 C 
BRANCH  18  20
ATOM     19  C   UNL     1       7.698   7.695  17.577  0.00  0.00    +0.000 C 
ATOM     20  C   UNL     1       6.759   6.487  17.474  0.00  0.00    +0.000 C 
ATOM     21  C   UNL     1       7.151   5.648  16.255  0.00  0.00    +0.000 C 
ENDBRANCH  18  20
ENDBRANCH  17  18
ENDBRANCH   1  17
TORSDOF 5
ENDMDL
MODEL 3
REMARK VINA RESULT:      -7.2      2.516      4.079
REMARK  Name = 
REMARK  9 active torsions:
REMARK  status: ('A' for Active; 'I' for Inactive)
REMARK    1  A    between atoms: C_1  and  C_2
REMARK    2  A    between atoms: C_2  and  C_3
REMARK    3  A    between atoms: C_2  and  C_4
REMARK    4  A    between atoms: C_4  and  C_5
REMARK    5  A    between atoms: C_5  and  C_6
REMARK    6  A    between atoms: C_10  and  C_11
REMARK    7  A    between atoms: N_14  and  O_15
REMARK    8  A    between atoms: C_17  and  C_18
REMARK    9  A    between atoms: C_17  and  O_19
REMARK                            x       y       z     vdW  Elec       q    Type
REMARK                         _______ _______ _______ _____ _____    ______ ____
ROOT
ATOM      1  C   UNL     1       4.121   5.763  18.348  0.00  0.00    +0.000 C 
ATOM      2  O   UNL     1       3.861   4.498  17.687  0.00  0.00    +0.000 OA
ATOM      3  C   UNL     1       2.438   4.365  17.568  0.00  0.00    +0.000 C 
ATOM      4  C   UNL     1       2.008   2.936  17.263  0.00  0.00    +0.000 C 
ATOM      5  C   UNL     1       2.169   1.959  18.429  0.00  0.00    +0.000 C 
ATOM      6  C   UNL     1       3.621   1.537  18.647  0.00  0.00    +0.000 C 
ATOM      7  C   UNL     1       1.535   2.517  19.702  0.00  0.00    +0.000 C 
ATOM      8  C   UNL     1       1.984   3.943  19.998  0.00  0.00    +0.000 C 
ATOM      9  N   UNL     1       2.299   4.373  21.187  0.00  0.00    +0.000 NA
ATOM     10  C   UNL     1       1.890   4.964  18.854  0.00  0.00    +0.000 C 
ATOM     11  C   UNL     1       2.777   6.215  18.982  0.00  0.00    +0.000 C 
ATOM     12  C   UNL     1       2.190   7.387  18.175  0.00  0.00    +0.000 C 
ENDROOT
BRANCH   9  13
ATOM     13  O   UNL     1       2.233   3.371  22.154  0.00  0.00    +0.000 OA
ATOM     14  H   UNL     1       1.641   2.711  21.745  0.00  0.00    +0.000 HD
ENDBRANCH   9  13
BRANCH  11  15
ATOM     15  O   UNL     1       2.902   6.738  20.302  0.00  0.00    +0.000 OA
ATOM     16  H   UNL     1       2.275   7.486  20.388  0.00  0.00    +0.000 HD
ENDBRANCH  11  15
BRANCH   1  17
ATOM     17  C   UNL     1       5.294   5.630  19.327  0.00  0.00    +0.000 C 
BRANCH  17  18
ATOM     18  C   UNL     1       6.282   4.529  18.911  0.00  0.00    +0.000 C 
BRANCH  18  20
ATOM     19  C   UNL     1       7.253   4.682  16.596  0.00  0.00    +0.000 C 
ATOM     20  C   UNL     1       7.472   5.037  18.071  0.00  0.00    +0.000 C 
ATOM     21  C   UNL     1       7.695   6.546  18.197  0.00  0.00    +0.000 C 
ENDBRANCH  18  20
ENDBRANCH  17  18
ENDBRANCH   1  17
TORSDOF 5
ENDMDL
MODEL 4
REMARK VINA RESULT:      -7.0      2.190      5.404
REMARK  Name = 
REMARK  9 active torsions:
REMARK  status: ('A' for Active; 'I' for Inactive)
REMARK    1  A    between atoms: C_1  and  C_2
REMARK    2  A    between atoms: C_2  and  C_3
REMARK    3  A    between atoms: C_2  and  C_4
REMARK    4  A    between atoms: C_4  and  C_5
REMARK    5  A    between atoms: C_5  and  C_6
REMARK    6  A    between atoms: C_10  and  C_11
REMARK    7  A    between atoms: N_14  and  O_15
REMARK    8  A    between atoms: C_17  and  C_18
REMARK    9  A    between atoms: C_17  and  O_19
REMARK                            x       y       z     vdW  Elec       q    Type
REMARK                         _______ _______ _______ _____ _____    ______ ____
ROOT
ATOM      1  C   UNL     1       3.265   4.426  18.560  0.00  0.00    +0.000 C 
ATOM      2  O   UNL     1       3.597   5.403  17.540  0.00  0.00    +0.000 OA
ATOM      3  C   UNL     1       4.615   4.825  16.711  0.00  0.00    +0.000 C 
ATOM      4  C   UNL     1       5.336   5.862  15.860  0.00  0.00    +0.000 C 
ATOM      5  C   UNL     1       6.266   6.792  16.640  0.00  0.00    +0.000 C 
ATOM      6  C   UNL     1       5.507   7.870  17.413  0.00  0.00    +0.000 C 
ATOM      7  C   UNL     1       7.209   5.995  17.540  0.00  0.00    +0.000 C 
ATOM      8  C   UNL     1       6.471   4.970  18.392  0.00  0.00    +0.000 C 
ATOM      9  N   UNL     1       6.732   4.748  19.649  0.00  0.00    +0.000 NA
ATOM     10  C   UNL     1       5.487   4.034  17.674  0.00  0.00    +0.000 C 
ATOM     11  C   UNL     1       4.409   3.375  18.554  0.00  0.00    +0.000 C 
ATOM     12  C   UNL     1       3.908   2.066  17.917  0.00  0.00    +0.000 C 
ENDROOT
BRANCH   9  13
ATOM     13  O   UNL     1       7.726   5.590  20.146  0.00  0.00    +0.000 OA
ATOM     14  H   UNL     1       7.963   6.131  19.369  0.00  0.00    +0.000 HD
ENDBRANCH   9  13
BRANCH  11  15
ATOM     15  O   UNL     1       4.843   2.979  19.852  0.00  0.00    +0.000 OA
ATOM     16  H   UNL     1       5.802   2.786  19.800  0.00  0.00    +0.000 HD
ENDBRANCH  11  15
BRANCH   1  17
ATOM     17  C   UNL     1       3.016   5.114  19.908  0.00  0.00    +0.000 C 
BRANCH  17  18
ATOM     18  C   UNL     1       1.536   5.076  20.320  0.00  0.00    +0.000 C 
BRANCH  18  20
ATOM     19  C   UNL     1       0.722   2.807  19.598  0.00  0.00    +0.000 C 
ATOM     20  C   UNL     1       1.055   3.692  20.805  0.00  0.00    +0.000 C 
ATOM     21  C   UNL     1       2.080   2.976  21.687  0.00  0.00    +0.000 C 
ENDBRANCH  18  20
ENDBRANCH  17  18
ENDBRANCH   1  17
TORSDOF 5
ENDMDL
MODEL 5
REMARK VINA RESULT:      -6.9      1.896      5.224
REMARK  Name = 
REMARK  9 active torsions:
REMARK  status: ('A' for Active; 'I' for Inactive)
REMARK    1  A    between atoms: C_1  and  C_2
REMARK    2  A    between atoms: C_2  and  C_3
REMARK    3  A    between atoms: C_2  and  C_4
REMARK    4  A    between atoms: C_4  and  C_5
REMARK    5  A    between atoms: C_5  and  C_6
REMARK    6  A    between atoms: C_10  and  C_11
REMARK    7  A    between atoms: N_14  and  O_15
REMARK    8  A    between atoms: C_17  and  C_18
REMARK    9  A    between atoms: C_17  and  O_19
REMARK                            x       y       z     vdW  Elec       q    Type
REMARK                         _______ _______ _______ _____ _____    ______ ____
ROOT
ATOM      1  C   UNL     1       2.802   4.131  18.404  0.00  0.00    +0.000 C 
ATOM      2  O   UNL     1       3.272   4.773  17.190  0.00  0.00    +0.000 OA
ATOM      3  C   UNL     1       4.306   3.943  16.643  0.00  0.00    +0.000 C 
ATOM      4  C   UNL     1       5.155   4.671  15.609  0.00  0.00    +0.000 C 
ATOM      5  C   UNL     1       6.086   5.739  16.185  0.00  0.00    +0.000 C 
ATOM      6  C   UNL     1       5.347   7.021  16.565  0.00  0.00    +0.000 C 
ATOM      7  C   UNL     1       6.906   5.181  17.347  0.00  0.00    +0.000 C 
ATOM      8  C   UNL     1       6.041   4.465  18.377  0.00  0.00    +0.000 C 
ATOM      9  N   UNL     1       6.195   4.589  19.666  0.00  0.00    +0.000 NA
ATOM     10  C   UNL     1       5.051   3.412  17.858  0.00  0.00    +0.000 C 
ATOM     11  C   UNL     1       3.871   3.070  18.785  0.00  0.00    +0.000 C 
ATOM     12  C   UNL     1       3.331   1.660  18.487  0.00  0.00    +0.000 C 
ENDROOT
BRANCH   9  13
ATOM     13  O   UNL     1       7.204   5.491  20.000  0.00  0.00    +0.000 OA
ATOM     14  H   UNL     1       8.001   5.081  19.613  0.00  0.00    +0.000 HD
ENDBRANCH   9  13
BRANCH  11  15
ATOM     15  O   UNL     1       4.182   3.031  20.175  0.00  0.00    +0.000 OA
ATOM     16  H   UNL     1       3.976   3.911  20.553  0.00  0.00    +0.000 HD
ENDBRANCH  11  15
BRANCH   1  17
ATOM     17  C   UNL     1       2.503   5.176  19.486  0.00  0.00    +0.000 C 
BRANCH  17  18
ATOM     18  C   UNL     1       3.035   6.570  19.117  0.00  0.00    +0.000 C 
BRANCH  18  20
ATOM     19  C   UNL     1       1.593   8.279  20.270  0.00  0.00    +0.000 C 
ATOM     20  C   UNL     1       1.932   7.632  18.922  0.00  0.00    +0.000 C 
ATOM     21  C   UNL     1       2.322   8.725  17.924  0.00  0.00    +0.000 C 
ENDBRANCH  18  20
ENDBRANCH  17  18
ENDBRANCH   1  17
TORSDOF 5
ENDMDL
MODEL 6
REMARK VINA RESULT:      -6.8      1.366      1.671
REMARK  Name = 
REMARK  9 active torsions:
REMARK  status: ('A' for Active; 'I' for Inactive)
REMARK    1  A    between atoms: C_1  and  C_2
REMARK    2  A    between atoms: C_2  and  C_3
REMARK    3  A    between atoms: C_2  and  C_4
REMARK    4  A    between atoms: C_4  and  C_5
REMARK    5  A    between atoms: C_5  and  C_6
REMARK    6  A    between atoms: C_10  and  C_11
REMARK    7  A    between atoms: N_14  and  O_15
REMARK    8  A    between atoms: C_17  and  C_18
REMARK    9  A    between atoms: C_17  and  O_19
REMARK                            x       y       z     vdW  Elec       q    Type
REMARK                         _______ _______ _______ _____ _____    ______ ____
ROOT
ATOM      1  C   UNL     1       4.803   5.486  17.505  0.00  0.00    +0.000 C 
ATOM      2  O   UNL     1       3.458   5.638  18.026  0.00  0.00    +0.000 OA
ATOM      3  C   UNL     1       3.516   5.386  19.436  0.00  0.00    +0.000 C 
ATOM      4  C   UNL     1       2.144   5.118  20.041  0.00  0.00    +0.000 C 
ATOM      5  C   UNL     1       1.529   3.772  19.657  0.00  0.00    +0.000 C 
ATOM      6  C   UNL     1       0.968   3.765  18.236  0.00  0.00    +0.000 C 
ATOM      7  C   UNL     1       2.519   2.632  19.891  0.00  0.00    +0.000 C 
ATOM      8  C   UNL     1       3.883   2.910  19.271  0.00  0.00    +0.000 C 
ATOM      9  N   UNL     1       4.581   2.020  18.623  0.00  0.00    +0.000 NA
ATOM     10  C   UNL     1       4.535   4.265  19.581  0.00  0.00    +0.000 C 
ATOM     11  C   UNL     1       5.619   4.742  18.597  0.00  0.00    +0.000 C 
ATOM     12  C   UNL     1       6.586   5.724  19.282  0.00  0.00    +0.000 C 
ENDROOT
BRANCH   9  13
ATOM     13  O   UNL     1       3.920   0.798  18.512  0.00  0.00    +0.000 OA
ATOM     14  H   UNL     1       3.111   0.938  19.039  0.00  0.00    +0.000 HD
ENDBRANCH   9  13
BRANCH  11  15
ATOM     15  O   UNL     1       6.471   3.718  18.091  0.00  0.00    +0.000 OA
ATOM     16  H   UNL     1       6.527   3.013  18.769  0.00  0.00    +0.000 HD
ENDBRANCH  11  15
BRANCH   1  17
ATOM     17  C   UNL     1       4.777   4.806  16.130  0.00  0.00    +0.000 C 
BRANCH  17  18
ATOM     18  C   UNL     1       5.725   5.479  15.126  0.00  0.00    +0.000 C 
BRANCH  18  20
ATOM     19  C   UNL     1       5.640   3.714  13.335  0.00  0.00    +0.000 C 
ATOM     20  C   UNL     1       6.559   4.488  14.288  0.00  0.00    +0.000 C 
ATOM     21  C   UNL     1       7.664   5.169  13.477  0.00  0.00    +0.000 C 
ENDBRANCH  18  20
ENDBRANCH  17  18
ENDBRANCH   1  17
TORSDOF 5
ENDMDL
MODEL 7
REMARK VINA RESULT:      -6.8      2.450      4.392
REMARK  Name = 
REMARK  9 active torsions:
REMARK  status: ('A' for Active; 'I' for Inactive)
REMARK    1  A    between atoms: C_1  and  C_2
REMARK    2  A    between atoms: C_2  and  C_3
REMARK    3  A    between atoms: C_2  and  C_4
REMARK    4  A    between atoms: C_4  and  C_5
REMARK    5  A    between atoms: C_5  and  C_6
REMARK    6  A    between atoms: C_10  and  C_11
REMARK    7  A    between atoms: N_14  and  O_15
REMARK    8  A    between atoms: C_17  and  C_18
REMARK    9  A    between atoms: C_17  and  O_19
REMARK                            x       y       z     vdW  Elec       q    Type
REMARK                         _______ _______ _______ _____ _____    ______ ____
ROOT
ATOM      1  C   UNL     1       5.032   4.109  18.478  0.00  0.00    +0.000 C 
ATOM      2  O   UNL     1       4.368   3.015  19.162  0.00  0.00    +0.000 OA
ATOM      3  C   UNL     1       3.113   2.799  18.500  0.00  0.00    +0.000 C 
ATOM      4  C   UNL     1       2.147   1.969  19.334  0.00  0.00    +0.000 C 
ATOM      5  C   UNL     1       1.570   2.692  20.552  0.00  0.00    +0.000 C 
ATOM      6  C   UNL     1       2.569   2.793  21.704  0.00  0.00    +0.000 C 
ATOM      7  C   UNL     1       1.004   4.056  20.161  0.00  0.00    +0.000 C 
ATOM      8  C   UNL     1       1.987   4.878  19.336  0.00  0.00    +0.000 C 
ATOM      9  N   UNL     1       2.192   6.154  19.511  0.00  0.00    +0.000 NA
ATOM     10  C   UNL     1       2.636   4.194  18.124  0.00  0.00    +0.000 C 
ATOM     11  C   UNL     1       3.950   4.813  17.615  0.00  0.00    +0.000 C 
ATOM     12  C   UNL     1       4.173   4.478  16.129  0.00  0.00    +0.000 C 
ENDROOT
BRANCH   9  13
ATOM     13  O   UNL     1       1.453   6.674  20.573  0.00  0.00    +0.000 OA
ATOM     14  H   UNL     1       1.955   6.377  21.355  0.00  0.00    +0.000 HD
ENDBRANCH   9  13
BRANCH  11  15
ATOM     15  O   UNL     1       4.007   6.236  17.657  0.00  0.00    +0.000 OA
ATOM     16  H   UNL     1       4.492   6.493  18.468  0.00  0.00    +0.000 HD
ENDBRANCH  11  15
BRANCH   1  17
ATOM     17  C   UNL     1       5.757   5.013  19.484  0.00  0.00    +0.000 C 
BRANCH  17  18
ATOM     18  C   UNL     1       7.156   5.423  18.999  0.00  0.00    +0.000 C 
BRANCH  18  20
ATOM     19  C   UNL     1       8.251   7.606  18.395  0.00  0.00    +0.000 C 
ATOM     20  C   UNL     1       7.156   6.606  18.007  0.00  0.00    +0.000 C 
ATOM     21  C   UNL     1       7.364   6.170  16.555  0.00  0.00    +0.000 C 
ENDBRANCH  18  20
ENDBRANCH  17  18
ENDBRANCH   1  17
TORSDOF 5
ENDMDL
MODEL 8
REMARK VINA RESULT:      -6.8      1.308      1.556
REMARK  Name = 
REMARK  9 active torsions:
REMARK  status: ('A' for Active; 'I' for Inactive)
REMARK    1  A    between atoms: C_1  and  C_2
REMARK    2  A    between atoms: C_2  and  C_3
REMARK    3  A    between atoms: C_2  and  C_4
REMARK    4  A    between atoms: C_4  and  C_5
REMARK    5  A    between atoms: C_5  and  C_6
REMARK    6  A    between atoms: C_10  and  C_11
REMARK    7  A    between atoms: N_14  and  O_15
REMARK    8  A    between atoms: C_17  and  C_18
REMARK    9  A    between atoms: C_17  and  O_19
REMARK                            x       y       z     vdW  Elec       q    Type
REMARK                         _______ _______ _______ _____ _____    ______ ____
ROOT
ATOM      1  C   UNL     1       4.426   4.937  17.002  0.00  0.00    +0.000 C 
ATOM      2  O   UNL     1       3.069   4.908  17.515  0.00  0.00    +0.000 OA
ATOM      3  C   UNL     1       3.116   5.376  18.870  0.00  0.00    +0.000 C 
ATOM      4  C   UNL     1       1.857   5.029  19.654  0.00  0.00    +0.000 C 
ATOM      5  C   UNL     1       1.706   3.546  19.995  0.00  0.00    +0.000 C 
ATOM      6  C   UNL     1       1.261   2.709  18.797  0.00  0.00    +0.000 C 
ATOM      7  C   UNL     1       2.980   2.999  20.637  0.00  0.00    +0.000 C 
ATOM      8  C   UNL     1       4.229   3.346  19.835  0.00  0.00    +0.000 C 
ATOM      9  N   UNL     1       5.203   2.509  19.612  0.00  0.00    +0.000 NA
ATOM     10  C   UNL     1       4.418   4.813  19.422  0.00  0.00    +0.000 C 
ATOM     11  C   UNL     1       5.362   5.070  18.234  0.00  0.00    +0.000 C 
ATOM     12  C   UNL     1       5.941   6.495  18.294  0.00  0.00    +0.000 C 
ENDROOT
BRANCH   9  13
ATOM     13  O   UNL     1       4.954   1.243  20.140  0.00  0.00    +0.000 OA
ATOM     14  H   UNL     1       4.239   0.904  19.568  0.00  0.00    +0.000 HD
ENDBRANCH   9  13
BRANCH  11  15
ATOM     15  O   UNL     1       6.515   4.234  18.183  0.00  0.00    +0.000 OA
ATOM     16  H   UNL     1       6.522   3.787  17.311  0.00  0.00    +0.000 HD
ENDBRANCH  11  15
BRANCH   1  17
ATOM     17  C   UNL     1       4.691   3.720  16.107  0.00  0.00    +0.000 C 
BRANCH  17  18
ATOM     18  C   UNL     1       4.935   4.112  14.642  0.00  0.00    +0.000 C 
BRANCH  18  20
ATOM     19  C   UNL     1       6.400   3.691  12.640  0.00  0.00    +0.000 C 
ATOM     20  C   UNL     1       6.383   3.879  14.162  0.00  0.00    +0.000 C 
ATOM     21  C   UNL     1       7.332   5.020  14.538  0.00  0.00    +0.000 C 
ENDBRANCH  18  20
ENDBRANCH  17  18
ENDBRANCH   1  17
TORSDOF 5
ENDMDL
MODEL 9
REMARK VINA RESULT:      -6.6      1.970      5.485
REMARK  Name = 
REMARK  9 active torsions:
REMARK  status: ('A' for Active; 'I' for Inactive)
REMARK    1  A    between atoms: C_1  and  C_2
REMARK    2  A    between atoms: C_2  and  C_3
REMARK    3  A    between atoms: C_2  and  C_4
REMARK    4  A    between atoms: C_4  and  C_5
REMARK    5  A    between atoms: C_5  and  C_6
REMARK    6  A    between atoms: C_10  and  C_11
REMARK    7  A    between atoms: N_14  and  O_15
REMARK    8  A    between atoms: C_17  and  C_18
REMARK    9  A    between atoms: C_17  and  O_19
REMARK                            x       y       z     vdW  Elec       q    Type
REMARK                         _______ _______ _______ _____ _____    ______ ____
ROOT
ATOM      1  C   UNL     1       3.230   5.431  17.850  0.00  0.00    +0.000 C 
ATOM      2  O   UNL     1       4.093   5.400  16.684  0.00  0.00    +0.000 OA
ATOM      3  C   UNL     1       4.739   4.120  16.667  0.00  0.00    +0.000 C 
ATOM      4  C   UNL     1       5.953   4.089  15.747  0.00  0.00    +0.000 C 
ATOM      5  C   UNL     1       7.160   4.878  16.256  0.00  0.00    +0.000 C 
ATOM      6  C   UNL     1       6.993   6.386  16.081  0.00  0.00    +0.000 C 
ATOM      7  C   UNL     1       7.492   4.499  17.699  0.00  0.00    +0.000 C 
ATOM      8  C   UNL     1       6.270   4.545  18.607  0.00  0.00    +0.000 C 
ATOM      9  N   UNL     1       6.280   5.041  19.813  0.00  0.00    +0.000 NA
ATOM     10  C   UNL     1       5.009   3.809  18.132  0.00  0.00    +0.000 C 
ATOM     11  C   UNL     1       3.678   4.258  18.764  0.00  0.00    +0.000 C 
ATOM     12  C   UNL     1       2.637   3.127  18.705  0.00  0.00    +0.000 C 
ENDROOT
BRANCH   9  13
ATOM     13  O   UNL     1       7.520   5.575  20.162  0.00  0.00    +0.000 OA
ATOM     14  H   UNL     1       7.300   6.178  20.897  0.00  0.00    +0.000 HD
ENDBRANCH   9  13
BRANCH  11  15
ATOM     15  O   UNL     1       3.746   4.590  20.147  0.00  0.00    +0.000 OA
ATOM     16  H   UNL     1       2.954   5.124  20.366  0.00  0.00    +0.000 HD
ENDBRANCH  11  15
BRANCH   1  17
ATOM     17  C   UNL     1       3.257   6.818  18.505  0.00  0.00    +0.000 C 
BRANCH  17  18
ATOM     18  C   UNL     1       2.247   7.785  17.868  0.00  0.00    +0.000 C 
BRANCH  18  20
ATOM     19  C   UNL     1       0.657   9.714  18.153  0.00  0.00    +0.000 C 
ATOM     20  C   UNL     1       1.820   8.946  18.792  0.00  0.00    +0.000 C 
ATOM     21  C   UNL     1       1.407   8.479  20.189  0.00  0.00    +0.000 C 
ENDBRANCH  18  20
ENDBRANCH  17  18
ENDBRANCH   1  17
TORSDOF 5
ENDMDL
