MODEL 1
REMARK VINA RESULT:      -8.3      0.000      0.000
REMARK  Name = 
REMARK  2 active torsions:
REMARK  status: ('A' for Active; 'I' for Inactive)
REMARK    1  A    between atoms: C_1  and  C_2
REMARK    2  A    between atoms: N_14  and  C_15
REMARK                            x       y       z     vdW  Elec       q    Type
REMARK                         _______ _______ _______ _____ _____    ______ ____
ROOT
ATOM      1  C   UNL     1      -1.958  13.435  23.605  0.00  0.00    +0.000 C 
ATOM      2  C   UNL     1      -1.312  12.808  22.401  0.00  0.00    +0.000 A 
ATOM      3  C   UNL     1      -0.736  11.528  22.488  0.00  0.00    +0.000 A 
ATOM      4  C   UNL     1      -0.137  10.924  21.364  0.00  0.00    +0.000 A 
ATOM      5  C   UNL     1      -0.106  11.581  20.142  0.00  0.00    +0.000 A 
ATOM      6  C   UNL     1      -0.682  12.862  20.063  0.00  0.00    +0.000 A 
ATOM      7  C   UNL     1      -1.275  13.470  21.170  0.00  0.00    +0.000 A 
ATOM      8 CL   UNL     1      -1.954  15.044  20.957  0.00  0.00    +0.000 Cl
ATOM      9  S   UNL     1       0.559  10.987  18.625  0.00  0.00    +0.000 S 
ATOM     10  C   UNL     1       1.289   9.494  19.017  0.00  0.00    +0.000 A 
ATOM     11  N   UNL     1       1.956   8.793  18.132  0.00  0.00    +0.000 NA
ATOM     12  N   UNL     1       2.326   7.622  18.729  0.00  0.00    +0.000 NA
ATOM     13  C   UNL     1       1.877   7.610  19.975  0.00  0.00    +0.000 A 
ATOM     14  N   UNL     1       1.970   6.582  20.861  0.00  0.00    +0.000 N 
ATOM     15  N   UNL     1       1.276   8.826  20.192  0.00  0.00    +0.000 N 
ATOM     16  S   UNL     1       0.515   9.302  21.568  0.00  0.00    +0.000 S 
ATOM     17  O   UNL     1      -0.611   8.405  21.720  0.00  0.00    +0.000 OA
ATOM     18  O   UNL     1       1.568   9.373  22.564  0.00  0.00    +0.000 OA
ATOM     19  H   UNL     1       1.890   6.702  21.867  0.00  0.00    +0.000 HD
ENDROOT
BRANCH  14  20
ATOM     20  C   UNL     1       2.122   5.236  20.446  0.00  0.00    +0.000 A 
ATOM     21  C   UNL     1       1.041   4.347  20.508  0.00  0.00    +0.000 A 
ATOM     22  C   UNL     1       1.211   2.990  20.200  0.00  0.00    +0.000 A 
ATOM     23  C   UNL     1       2.462   2.503  19.821  0.00  0.00    +0.000 A 
ATOM     24  C   UNL     1       3.544   3.370  19.750  0.00  0.00    +0.000 A 
ATOM     25  C   UNL     1       3.372   4.719  20.068  0.00  0.00    +0.000 A 
ENDBRANCH  14  20
TORSDOF 1
ENDMDL
MODEL 2
REMARK VINA RESULT:      -8.2      0.417      1.060
REMARK  Name = 
REMARK  2 active torsions:
REMARK  status: ('A' for Active; 'I' for Inactive)
REMARK    1  A    between atoms: C_1  and  C_2
REMARK    2  A    between atoms: N_14  and  C_15
REMARK                            x       y       z     vdW  Elec       q    Type
REMARK                         _______ _______ _______ _____ _____    ______ ____
ROOT
ATOM      1  C   UNL     1      -1.669  13.367  23.312  0.00  0.00    +0.000 C 
ATOM      2  C   UNL     1      -0.998  12.685  22.151  0.00  0.00    +0.000 A 
ATOM      3  C   UNL     1      -0.504  11.375  22.283  0.00  0.00    +0.000 A 
ATOM      4  C   UNL     1       0.116  10.721  21.200  0.00  0.00    +0.000 A 
ATOM      5  C   UNL     1       0.250  11.358  19.974  0.00  0.00    +0.000 A 
ATOM      6  C   UNL     1      -0.245  12.669  19.849  0.00  0.00    +0.000 A 
ATOM      7  C   UNL     1      -0.858  13.326  20.916  0.00  0.00    +0.000 A 
ATOM      8 CL   UNL     1      -1.431  14.933  20.650  0.00  0.00    +0.000 Cl
ATOM      9  S   UNL     1       0.958  10.704  18.501  0.00  0.00    +0.000 S 
ATOM     10  C   UNL     1       1.577   9.177  18.948  0.00  0.00    +0.000 A 
ATOM     11  N   UNL     1       2.247   8.426  18.109  0.00  0.00    +0.000 NA
ATOM     12  N   UNL     1       2.516   7.243  18.738  0.00  0.00    +0.000 NA
ATOM     13  C   UNL     1       2.002   7.276  19.958  0.00  0.00    +0.000 A 
ATOM     14  N   UNL     1       1.988   6.258  20.859  0.00  0.00    +0.000 N 
ATOM     15  N   UNL     1       1.463   8.528  20.129  0.00  0.00    +0.000 N 
ATOM     16  S   UNL     1       0.660   9.067  21.457  0.00  0.00    +0.000 S 
ATOM     17  O   UNL     1      -0.523   8.239  21.559  0.00  0.00    +0.000 OA
ATOM     18  O   UNL     1       1.662   9.091  22.506  0.00  0.00    +0.000 OA
ATOM     19  H   UNL     1       1.862   6.397  21.859  0.00  0.00    +0.000 HD
ENDROOT
BRANCH  14  20
ATOM     20  C   UNL     1       2.081   4.899  20.469  0.00  0.00    +0.000 A 
ATOM     21  C   UNL     1       3.326   4.328  20.175  0.00  0.00    +0.000 A 
ATOM     22  C   UNL     1       3.415   3.016  19.688  0.00  0.00    +0.000 A 
ATOM     23  C   UNL     1       2.262   2.255  19.490  0.00  0.00    +0.000 A 
ATOM     24  C   UNL     1       1.020   2.804  19.780  0.00  0.00    +0.000 A 
ATOM     25  C   UNL     1       0.935   4.114  20.257  0.00  0.00    +0.000 A 
ENDBRANCH  14  20
TORSDOF 1
ENDMDL
MODEL 3
REMARK VINA RESULT:      -8.0      0.731      1.237
REMARK  Name = 
REMARK  2 active torsions:
REMARK  status: ('A' for Active; 'I' for Inactive)
REMARK    1  A    between atoms: C_1  and  C_2
REMARK    2  A    between atoms: N_14  and  C_15
REMARK                            x       y       z     vdW  Elec       q    Type
REMARK                         _______ _______ _______ _____ _____    ______ ____
ROOT
ATOM      1  C   UNL     1      -2.638  12.827  23.796  0.00  0.00    +0.000 C 
ATOM      2  C   UNL     1      -1.965  12.363  22.534  0.00  0.00    +0.000 A 
ATOM      3  C   UNL     1      -1.172  11.202  22.536  0.00  0.00    +0.000 A 
ATOM      4  C   UNL     1      -0.545  10.749  21.358  0.00  0.00    +0.000 A 
ATOM      5  C   UNL     1      -0.701  11.442  20.166  0.00  0.00    +0.000 A 
ATOM      6  C   UNL     1      -1.493  12.604  20.171  0.00  0.00    +0.000 A 
ATOM      7  C   UNL     1      -2.116  13.062  21.333  0.00  0.00    +0.000 A 
ATOM      8 CL   UNL     1      -3.068  14.498  21.223  0.00  0.00    +0.000 Cl
ATOM      9  S   UNL     1      -0.033  11.024  18.591  0.00  0.00    +0.000 S 
ATOM     10  C   UNL     1       0.966   9.670  18.880  0.00  0.00    +0.000 A 
ATOM     11  N   UNL     1       1.691   9.126  17.933  0.00  0.00    +0.000 NA
ATOM     12  N   UNL     1       2.292   8.018  18.459  0.00  0.00    +0.000 NA
ATOM     13  C   UNL     1       1.926   7.887  19.725  0.00  0.00    +0.000 A 
ATOM     14  N   UNL     1       2.247   6.863  20.560  0.00  0.00    +0.000 N 
ATOM     15  N   UNL     1       1.137   8.971  20.025  0.00  0.00    +0.000 N 
ATOM     16  S   UNL     1       0.388   9.261  21.458  0.00  0.00    +0.000 S 
ATOM     17  O   UNL     1      -0.554   8.175  21.630  0.00  0.00    +0.000 OA
ATOM     18  O   UNL     1       1.470   9.482  22.399  0.00  0.00    +0.000 OA
ATOM     19  H   UNL     1       2.208   6.933  21.573  0.00  0.00    +0.000 HD
ENDROOT
BRANCH  14  20
ATOM     20  C   UNL     1       2.605   5.578  20.081  0.00  0.00    +0.000 A 
ATOM     21  C   UNL     1       3.925   5.301  19.706  0.00  0.00    +0.000 A 
ATOM     22  C   UNL     1       4.264   4.067  19.133  0.00  0.00    +0.000 A 
ATOM     23  C   UNL     1       3.288   3.090  18.930  0.00  0.00    +0.000 A 
ATOM     24  C   UNL     1       1.974   3.346  19.300  0.00  0.00    +0.000 A 
ATOM     25  C   UNL     1       1.640   4.580  19.861  0.00  0.00    +0.000 A 
ENDBRANCH  14  20
TORSDOF 1
ENDMDL
MODEL 4
REMARK VINA RESULT:      -7.7      1.039      1.123
REMARK  Name = 
REMARK  2 active torsions:
REMARK  status: ('A' for Active; 'I' for Inactive)
REMARK    1  A    between atoms: C_1  and  C_2
REMARK    2  A    between atoms: N_14  and  C_15
REMARK                            x       y       z     vdW  Elec       q    Type
REMARK                         _______ _______ _______ _____ _____    ______ ____
ROOT
ATOM      1  C   UNL     1      -3.156  12.641  24.065  0.00  0.00    +0.000 C 
ATOM      2  C   UNL     1      -2.471  12.231  22.791  0.00  0.00    +0.000 A 
ATOM      3  C   UNL     1      -1.575  11.148  22.780  0.00  0.00    +0.000 A 
ATOM      4  C   UNL     1      -0.935  10.747  21.591  0.00  0.00    +0.000 A 
ATOM      5  C   UNL     1      -1.180  11.414  20.399  0.00  0.00    +0.000 A 
ATOM      6  C   UNL     1      -2.076  12.498  20.416  0.00  0.00    +0.000 A 
ATOM      7  C   UNL     1      -2.712  12.905  21.589  0.00  0.00    +0.000 A 
ATOM      8 CL   UNL     1      -3.795  14.247  21.494  0.00  0.00    +0.000 Cl
ATOM      9  S   UNL     1      -0.511  11.048  18.812  0.00  0.00    +0.000 S 
ATOM     10  C   UNL     1       0.615   9.793  19.085  0.00  0.00    +0.000 A 
ATOM     11  N   UNL     1       1.366   9.312  18.125  0.00  0.00    +0.000 NA
ATOM     12  N   UNL     1       2.078   8.268  18.643  0.00  0.00    +0.000 NA
ATOM     13  C   UNL     1       1.754   8.112  19.917  0.00  0.00    +0.000 A 
ATOM     14  N   UNL     1       2.186   7.128  20.750  0.00  0.00    +0.000 N 
ATOM     15  N   UNL     1       0.875   9.122  20.229  0.00  0.00    +0.000 N 
ATOM     16  S   UNL     1       0.133   9.351  21.678  0.00  0.00    +0.000 S 
ATOM     17  O   UNL     1      -0.701   8.185  21.876  0.00  0.00    +0.000 OA
ATOM     18  O   UNL     1       1.211   9.677  22.593  0.00  0.00    +0.000 OA
ATOM     19  H   UNL     1       2.162   7.202  21.763  0.00  0.00    +0.000 HD
ENDROOT
BRANCH  14  20
ATOM     20  C   UNL     1       2.649   5.879  20.269  0.00  0.00    +0.000 A 
ATOM     21  C   UNL     1       1.997   4.692  20.628  0.00  0.00    +0.000 A 
ATOM     22  C   UNL     1       2.512   3.446  20.243  0.00  0.00    +0.000 A 
ATOM     23  C   UNL     1       3.684   3.368  19.490  0.00  0.00    +0.000 A 
ATOM     24  C   UNL     1       4.342   4.534  19.121  0.00  0.00    +0.000 A 
ATOM     25  C   UNL     1       3.831   5.772  19.515  0.00  0.00    +0.000 A 
ENDBRANCH  14  20
TORSDOF 1
ENDMDL
MODEL 5
REMARK VINA RESULT:      -7.4      1.257      1.404
REMARK  Name = 
REMARK  2 active torsions:
REMARK  status: ('A' for Active; 'I' for Inactive)
REMARK    1  A    between atoms: C_1  and  C_2
REMARK    2  A    between atoms: N_14  and  C_15
REMARK                            x       y       z     vdW  Elec       q    Type
REMARK                         _______ _______ _______ _____ _____    ______ ____
ROOT
ATOM      1  C   UNL     1      -0.934  14.201  21.844  0.00  0.00    +0.000 C 
ATOM      2  C   UNL     1      -0.276  13.250  20.882  0.00  0.00    +0.000 A 
ATOM      3  C   UNL     1       0.021  11.933  21.275  0.00  0.00    +0.000 A 
ATOM      4  C   UNL     1       0.627  11.029  20.380  0.00  0.00    +0.000 A 
ATOM      5  C   UNL     1       0.941  11.420  19.086  0.00  0.00    +0.000 A 
ATOM      6  C   UNL     1       0.643  12.740  18.700  0.00  0.00    +0.000 A 
ATOM      7  C   UNL     1       0.046  13.644  19.580  0.00  0.00    +0.000 A 
ATOM      8 CL   UNL     1      -0.278  15.237  18.999  0.00  0.00    +0.000 Cl
ATOM      9  S   UNL     1       1.664  10.437  17.817  0.00  0.00    +0.000 S 
ATOM     10  C   UNL     1       2.030   8.947  18.567  0.00  0.00    +0.000 A 
ATOM     11  N   UNL     1       2.653   7.984  17.933  0.00  0.00    +0.000 NA
ATOM     12  N   UNL     1       2.707   6.906  18.770  0.00  0.00    +0.000 NA
ATOM     13  C   UNL     1       2.110   7.214  19.911  0.00  0.00    +0.000 A 
ATOM     14  N   UNL     1       1.885   6.379  20.960  0.00  0.00    +0.000 N 
ATOM     15  N   UNL     1       1.737   8.534  19.821  0.00  0.00    +0.000 N 
ATOM     16  S   UNL     1       0.915   9.391  20.957  0.00  0.00    +0.000 S 
ATOM     17  O   UNL     1      -0.374   8.745  21.074  0.00  0.00    +0.000 OA
ATOM     18  O   UNL     1       1.827   9.475  22.082  0.00  0.00    +0.000 OA
ATOM     19  H   UNL     1       1.704   6.705  21.906  0.00  0.00    +0.000 HD
ENDROOT
BRANCH  14  20
ATOM     20  C   UNL     1       1.821   4.972  20.808  0.00  0.00    +0.000 A 
ATOM     21  C   UNL     1       0.935   4.396  19.889  0.00  0.00    +0.000 A 
ATOM     22  C   UNL     1       0.790   3.004  19.809  0.00  0.00    +0.000 A 
ATOM     23  C   UNL     1       1.532   2.167  20.643  0.00  0.00    +0.000 A 
ATOM     24  C   UNL     1       2.418   2.720  21.557  0.00  0.00    +0.000 A 
ATOM     25  C   UNL     1       2.552   4.107  21.641  0.00  0.00    +0.000 A 
ENDBRANCH  14  20
TORSDOF 1
ENDMDL
MODEL 6
REMARK VINA RESULT:      -7.3      3.116      7.703
REMARK  Name = 
REMARK  2 active torsions:
REMARK  status: ('A' for Active; 'I' for Inactive)
REMARK    1  A    between atoms: C_1  and  C_2
REMARK    2  A    between atoms: N_14  and  C_15
REMARK                            x       y       z     vdW  Elec       q    Type
REMARK                         _______ _______ _______ _____ _____    ______ ____
ROOT
ATOM      1  C   UNL     1       3.437   5.038  20.012  0.00  0.00    +0.000 C 
ATOM      2  C   UNL     1       2.816   6.340  19.587  0.00  0.00    +0.000 A 
ATOM      3  C   UNL     1       1.972   7.046  20.463  0.00  0.00    +0.000 A 
ATOM      4  C   UNL     1       1.393   8.273  20.082  0.00  0.00    +0.000 A 
ATOM      5  C   UNL     1       1.648   8.814  18.830  0.00  0.00    +0.000 A 
ATOM      6  C   UNL     1       2.492   8.102  17.958  0.00  0.00    +0.000 A 
ATOM      7  C   UNL     1       3.067   6.886  18.325  0.00  0.00    +0.000 A 
ATOM      8 CL   UNL     1       4.089   6.100  17.176  0.00  0.00    +0.000 Cl
ATOM      9  S   UNL     1       1.053  10.339  18.183  0.00  0.00    +0.000 S 
ATOM     10  C   UNL     1      -0.023  10.933  19.369  0.00  0.00    +0.000 A 
ATOM     11  N   UNL     1      -0.716  12.031  19.192  0.00  0.00    +0.000 NA
ATOM     12  N   UNL     1      -1.398  12.280  20.349  0.00  0.00    +0.000 NA
ATOM     13  C   UNL     1      -1.111  11.335  21.232  0.00  0.00    +0.000 A 
ATOM     14  N   UNL     1      -1.526  11.281  22.525  0.00  0.00    +0.000 N 
ATOM     15  N   UNL     1      -0.291  10.433  20.597  0.00  0.00    +0.000 N 
ATOM     16  S   UNL     1       0.388   9.096  21.269  0.00  0.00    +0.000 S 
ATOM     17  O   UNL     1       1.268   9.588  22.307  0.00  0.00    +0.000 OA
ATOM     18  O   UNL     1      -0.735   8.229  21.573  0.00  0.00    +0.000 OA
ATOM     19  H   UNL     1      -1.541  10.425  23.073  0.00  0.00    +0.000 HD
ENDROOT
BRANCH  14  20
ATOM     20  C   UNL     1      -1.914  12.438  23.245  0.00  0.00    +0.000 A 
ATOM     21  C   UNL     1      -3.213  12.555  23.755  0.00  0.00    +0.000 A 
ATOM     22  C   UNL     1      -3.635  13.739  24.376  0.00  0.00    +0.000 A 
ATOM     23  C   UNL     1      -2.764  14.822  24.500  0.00  0.00    +0.000 A 
ATOM     24  C   UNL     1      -1.471  14.722  24.004  0.00  0.00    +0.000 A 
ATOM     25  C   UNL     1      -1.058  13.544  23.378  0.00  0.00    +0.000 A 
ENDBRANCH  14  20
TORSDOF 1
ENDMDL
MODEL 7
REMARK VINA RESULT:      -6.9      3.097      7.734
REMARK  Name = 
REMARK  2 active torsions:
REMARK  status: ('A' for Active; 'I' for Inactive)
REMARK    1  A    between atoms: C_1  and  C_2
REMARK    2  A    between atoms: N_14  and  C_15
REMARK                            x       y       z     vdW  Elec       q    Type
REMARK                         _______ _______ _______ _____ _____    ______ ____
ROOT
ATOM      1  C   UNL     1       3.521   4.597  20.203  0.00  0.00    +0.000 C 
ATOM      2  C   UNL     1       3.033   5.926  19.697  0.00  0.00    +0.000 A 
ATOM      3  C   UNL     1       2.157   6.706  20.473  0.00  0.00    +0.000 A 
ATOM      4  C   UNL     1       1.702   7.959  20.016  0.00  0.00    +0.000 A 
ATOM      5  C   UNL     1       2.113   8.452  18.786  0.00  0.00    +0.000 A 
ATOM      6  C   UNL     1       2.987   7.667  18.014  0.00  0.00    +0.000 A 
ATOM      7  C   UNL     1       3.442   6.424  18.456  0.00  0.00    +0.000 A 
ATOM      8 CL   UNL     1       4.515   5.546  17.427  0.00  0.00    +0.000 Cl
ATOM      9  S   UNL     1       1.687   9.997  18.058  0.00  0.00    +0.000 S 
ATOM     10  C   UNL     1       0.544  10.688  19.122  0.00  0.00    +0.000 A 
ATOM     11  N   UNL     1      -0.054  11.824  18.858  0.00  0.00    +0.000 NA
ATOM     12  N   UNL     1      -0.826  12.144  19.939  0.00  0.00    +0.000 NA
ATOM     13  C   UNL     1      -0.691  11.204  20.861  0.00  0.00    +0.000 A 
ATOM     14  N   UNL     1      -1.232  11.208  22.108  0.00  0.00    +0.000 N 
ATOM     15  N   UNL     1       0.124  10.236  20.325  0.00  0.00    +0.000 N 
ATOM     16  S   UNL     1       0.644   8.874  21.084  0.00  0.00    +0.000 S 
ATOM     17  O   UNL     1       1.450   9.332  22.195  0.00  0.00    +0.000 OA
ATOM     18  O   UNL     1      -0.559   8.089  21.291  0.00  0.00    +0.000 OA
ATOM     19  H   UNL     1      -1.358  10.367  22.667  0.00  0.00    +0.000 HD
ENDROOT
BRANCH  14  20
ATOM     20  C   UNL     1      -1.610  12.404  22.767  0.00  0.00    +0.000 A 
ATOM     21  C   UNL     1      -0.711  13.473  22.869  0.00  0.00    +0.000 A 
ATOM     22  C   UNL     1      -1.041  14.618  23.610  0.00  0.00    +0.000 A 
ATOM     23  C   UNL     1      -2.275  14.711  24.254  0.00  0.00    +0.000 A 
ATOM     24  C   UNL     1      -3.180  13.662  24.160  0.00  0.00    +0.000 A 
ATOM     25  C   UNL     1      -2.844  12.521  23.430  0.00  0.00    +0.000 A 
ENDBRANCH  14  20
TORSDOF 1
ENDMDL
MODEL 8
REMARK VINA RESULT:      -6.8      1.233      1.513
REMARK  Name = 
REMARK  2 active torsions:
REMARK  status: ('A' for Active; 'I' for Inactive)
REMARK    1  A    between atoms: C_1  and  C_2
REMARK    2  A    between atoms: N_14  and  C_15
REMARK                            x       y       z     vdW  Elec       q    Type
REMARK                         _______ _______ _______ _____ _____    ______ ____
ROOT
ATOM      1  C   UNL     1      -1.637  13.992  21.492  0.00  0.00    +0.000 C 
ATOM      2  C   UNL     1      -0.780  13.095  20.642  0.00  0.00    +0.000 A 
ATOM      3  C   UNL     1      -0.494  11.782  21.057  0.00  0.00    +0.000 A 
ATOM      4  C   UNL     1       0.299  10.928  20.264  0.00  0.00    +0.000 A 
ATOM      5  C   UNL     1       0.811  11.365  19.051  0.00  0.00    +0.000 A 
ATOM      6  C   UNL     1       0.522  12.680  18.643  0.00  0.00    +0.000 A 
ATOM      7  C   UNL     1      -0.259  13.534  19.422  0.00  0.00    +0.000 A 
ATOM      8 CL   UNL     1      -0.552  15.127  18.822  0.00  0.00    +0.000 Cl
ATOM      9  S   UNL     1       1.786  10.446  17.909  0.00  0.00    +0.000 S 
ATOM     10  C   UNL     1       2.088   8.955  18.684  0.00  0.00    +0.000 A 
ATOM     11  N   UNL     1       2.854   8.036  18.150  0.00  0.00    +0.000 NA
ATOM     12  N   UNL     1       2.814   6.941  18.965  0.00  0.00    +0.000 NA
ATOM     13  C   UNL     1       2.017   7.194  19.991  0.00  0.00    +0.000 A 
ATOM     14  N   UNL     1       1.656   6.324  20.971  0.00  0.00    +0.000 N 
ATOM     15  N   UNL     1       1.603   8.498  19.861  0.00  0.00    +0.000 N 
ATOM     16  S   UNL     1       0.561   9.290  20.853  0.00  0.00    +0.000 S 
ATOM     17  O   UNL     1      -0.699   8.586  20.735  0.00  0.00    +0.000 OA
ATOM     18  O   UNL     1       1.261   9.385  22.120  0.00  0.00    +0.000 OA
ATOM     19  H   UNL     1       1.300   6.617  21.877  0.00  0.00    +0.000 HD
ENDROOT
BRANCH  14  20
ATOM     20  C   UNL     1       1.684   4.919  20.786  0.00  0.00    +0.000 A 
ATOM     21  C   UNL     1       2.395   4.099  21.671  0.00  0.00    +0.000 A 
ATOM     22  C   UNL     1       2.515   2.722  21.433  0.00  0.00    +0.000 A 
ATOM     23  C   UNL     1       1.921   2.145  20.311  0.00  0.00    +0.000 A 
ATOM     24  C   UNL     1       1.209   2.942  19.425  0.00  0.00    +0.000 A 
ATOM     25  C   UNL     1       1.101   4.314  19.660  0.00  0.00    +0.000 A 
ENDBRANCH  14  20
TORSDOF 1
ENDMDL
MODEL 9
REMARK VINA RESULT:      -6.8      3.118      7.807
REMARK  Name = 
REMARK  2 active torsions:
REMARK  status: ('A' for Active; 'I' for Inactive)
REMARK    1  A    between atoms: C_1  and  C_2
REMARK    2  A    between atoms: N_14  and  C_15
REMARK                            x       y       z     vdW  Elec       q    Type
REMARK                         _______ _______ _______ _____ _____    ______ ____
ROOT
ATOM      1  C   UNL     1       2.602   3.986  20.811  0.00  0.00    +0.000 C 
ATOM      2  C   UNL     1       2.407   5.320  20.144  0.00  0.00    +0.000 A 
ATOM      3  C   UNL     1       1.747   6.363  20.817  0.00  0.00    +0.000 A 
ATOM      4  C   UNL     1       1.568   7.621  20.207  0.00  0.00    +0.000 A 
ATOM      5  C   UNL     1       2.044   7.858  18.925  0.00  0.00    +0.000 A 
ATOM      6  C   UNL     1       2.701   6.809  18.257  0.00  0.00    +0.000 A 
ATOM      7  C   UNL     1       2.881   5.559  18.850  0.00  0.00    +0.000 A 
ATOM      8 CL   UNL     1       3.705   4.346  17.939  0.00  0.00    +0.000 Cl
ATOM      9  S   UNL     1       1.950   9.359  18.010  0.00  0.00    +0.000 S 
ATOM     10  C   UNL     1       1.018  10.410  18.980  0.00  0.00    +0.000 A 
ATOM     11  N   UNL     1       0.679  11.611  18.577  0.00  0.00    +0.000 NA
ATOM     12  N   UNL     1       0.028  12.224  19.609  0.00  0.00    +0.000 NA
ATOM     13  C   UNL     1      -0.023  11.396  20.642  0.00  0.00    +0.000 A 
ATOM     14  N   UNL     1      -0.515  11.672  21.879  0.00  0.00    +0.000 N 
ATOM     15  N   UNL     1       0.543  10.213  20.231  0.00  0.00    +0.000 N 
ATOM     16  S   UNL     1       0.769   8.872  21.153  0.00  0.00    +0.000 S 
ATOM     17  O   UNL     1       1.687   9.270  22.199  0.00  0.00    +0.000 OA
ATOM     18  O   UNL     1      -0.572   8.406  21.456  0.00  0.00    +0.000 OA
ATOM     19  H   UNL     1      -0.808  10.954  22.537  0.00  0.00    +0.000 HD
ENDROOT
BRANCH  14  20
ATOM     20  C   UNL     1      -0.600  12.993  22.383  0.00  0.00    +0.000 A 
ATOM     21  C   UNL     1       0.307  13.974  21.964  0.00  0.00    +0.000 A 
ATOM     22  C   UNL     1       0.294  15.254  22.537  0.00  0.00    +0.000 A 
ATOM     23  C   UNL     1      -0.628  15.572  23.534  0.00  0.00    +0.000 A 
ATOM     24  C   UNL     1      -1.537  14.613  23.960  0.00  0.00    +0.000 A 
ATOM     25  C   UNL     1      -1.515  13.338  23.393  0.00  0.00    +0.000 A 
ENDBRANCH  14  20
TORSDOF 1
ENDMDL
