MODEL 1
REMARK VINA RESULT:      -7.9      0.000      0.000
REMARK  Name = 
REMARK  14 active torsions:
REMARK  status: ('A' for Active; 'I' for Inactive)
REMARK    1  A    between atoms: C_1  and  O_2
REMARK    2  A    between atoms: O_2  and  C_3
REMARK    3  A    between atoms: C_6  and  C_7
REMARK    4  A    between atoms: C_17  and  O_18
REMARK    5  A    between atoms: O_18  and  C_19
REMARK    6  A    between atoms: C_19  and  C_20
REMARK    7  A    between atoms: C_20  and  C_21
REMARK    8  A    between atoms: C_21  and  C_22
REMARK    9  A    between atoms: C_22  and  C_23
REMARK   10  A    between atoms: C_23  and  C_24
REMARK   11  A    between atoms: C_24  and  N_25
REMARK   12  A    between atoms: N_28  and  C_29
REMARK   13  A    between atoms: C_33  and  O_34
REMARK   14  A    between atoms: O_34  and  C_35
REMARK                            x       y       z     vdW  Elec       q    Type
REMARK                         _______ _______ _______ _____ _____    ______ ____
ROOT
ATOM      1  C   UNL     1       5.003   4.227  16.490  0.00  0.00    +0.000 A 
ATOM      2  O   UNL     1       5.196   3.435  15.356  0.00  0.00    +0.000 OA
ATOM      3  C   UNL     1       5.977   3.933  14.343  0.00  0.00    +0.000 A 
ATOM      4  C   UNL     1       5.955   3.302  13.101  0.00  0.00    +0.000 A 
ATOM      5  C   UNL     1       6.793   3.762  12.076  0.00  0.00    +0.000 A 
ATOM      6  C   UNL     1       7.670   4.827  12.292  0.00  0.00    +0.000 A 
ATOM      7  C   UNL     1       7.685   5.460  13.529  0.00  0.00    +0.000 A 
ATOM      8  C   UNL     1       6.819   5.019  14.529  0.00  0.00    +0.000 A 
ATOM      9  C   UNL     1       6.766   5.711  15.801  0.00  0.00    +0.000 A 
ATOM     10  O   UNL     1       7.688   6.463  16.121  0.00  0.00    +0.000 OA
ATOM     11  C   UNL     1       5.596   5.431  16.671  0.00  0.00    +0.000 A 
ENDROOT
BRANCH   1  15
ATOM     12  C   UNL     1       2.486   2.522  19.582  0.00  0.00    +0.000 A 
ATOM     13  C   UNL     1       1.945   3.026  18.396  0.00  0.00    +0.000 A 
ATOM     14  C   UNL     1       2.770   3.533  17.393  0.00  0.00    +0.000 A 
ATOM     15  C   UNL     1       4.164   3.574  17.536  0.00  0.00    +0.000 A 
ATOM     16  C   UNL     1       4.691   3.138  18.761  0.00  0.00    +0.000 A 
ATOM     17  C   UNL     1       3.870   2.623  19.791  0.00  0.00    +0.000 A 
BRANCH  12  19
ATOM     18  C   UNL     1       1.335   2.848  21.626  0.00  0.00    +0.000 C 
ATOM     19  O   UNL     1       1.673   1.982  20.542  0.00  0.00    +0.000 OA
ENDBRANCH  12  19
BRANCH  17  20
ATOM     20  O   UNL     1       4.588   2.272  20.906  0.00  0.00    +0.000 OA
ATOM     21  C   UNL     1       5.225   1.003  20.942  0.00  0.00    +0.000 C 
ENDBRANCH  17  20
ENDBRANCH   1  15
BRANCH  11  22
ATOM     22  O   UNL     1       5.247   6.287  17.696  0.00  0.00    +0.000 OA
BRANCH  22  23
ATOM     23  C   UNL     1       4.231   7.249  17.403  0.00  0.00    +0.000 C 
BRANCH  23  24
ATOM     24  C   UNL     1       3.087   7.032  18.387  0.00  0.00    +0.000 C 
BRANCH  24  25
ATOM     25  C   UNL     1       1.843   7.851  18.012  0.00  0.00    +0.000 C 
BRANCH  25  26
ATOM     26  C   UNL     1       2.083   9.364  17.877  0.00  0.00    +0.000 C 
BRANCH  26  27
ATOM     27  C   UNL     1       1.179  10.226  18.766  0.00  0.00    +0.000 C 
BRANCH  27  28
ATOM     28  C   UNL     1       0.814   9.499  20.067  0.00  0.00    +0.000 C 
BRANCH  28  29
ATOM     29  N   UNL     1      -0.323  10.079  20.794  0.00  0.00    +0.000 NA
ATOM     30  C   UNL     1      -0.705  11.361  20.159  0.00  0.00    +0.000 C 
ATOM     31  C   UNL     1      -1.861  12.071  20.900  0.00  0.00    +0.000 C 
ATOM     32  N   UNL     1      -1.640  12.282  22.345  0.00  0.00    +0.000 NA
ATOM     33  C   UNL     1      -0.688  13.360  22.599  0.00  0.00    +0.000 C 
ATOM     34  C   UNL     1      -1.193  11.012  22.951  0.00  0.00    +0.000 C 
ATOM     35  C   UNL     1      -0.022  10.317  22.220  0.00  0.00    +0.000 C 
ENDBRANCH  28  29
ENDBRANCH  27  28
ENDBRANCH  26  27
ENDBRANCH  25  26
ENDBRANCH  24  25
ENDBRANCH  23  24
ENDBRANCH  22  23
ENDBRANCH  11  22
TORSDOF 11
ENDMDL
MODEL 2
REMARK VINA RESULT:      -7.6      5.247      8.165
REMARK  Name = 
REMARK  14 active torsions:
REMARK  status: ('A' for Active; 'I' for Inactive)
REMARK    1  A    between atoms: C_1  and  O_2
REMARK    2  A    between atoms: O_2  and  C_3
REMARK    3  A    between atoms: C_6  and  C_7
REMARK    4  A    between atoms: C_17  and  O_18
REMARK    5  A    between atoms: O_18  and  C_19
REMARK    6  A    between atoms: C_19  and  C_20
REMARK    7  A    between atoms: C_20  and  C_21
REMARK    8  A    between atoms: C_21  and  C_22
REMARK    9  A    between atoms: C_22  and  C_23
REMARK   10  A    between atoms: C_23  and  C_24
REMARK   11  A    between atoms: C_24  and  N_25
REMARK   12  A    between atoms: N_28  and  C_29
REMARK   13  A    between atoms: C_33  and  O_34
REMARK   14  A    between atoms: O_34  and  C_35
REMARK                            x       y       z     vdW  Elec       q    Type
REMARK                         _______ _______ _______ _____ _____    ______ ____
ROOT
ATOM      1  C   UNL     1       2.914   6.251  18.641  0.00  0.00    +0.000 A 
ATOM      2  O   UNL     1       1.996   5.202  18.735  0.00  0.00    +0.000 OA
ATOM      3  C   UNL     1       2.471   3.916  18.657  0.00  0.00    +0.000 A 
ATOM      4  C   UNL     1       1.568   2.874  18.462  0.00  0.00    +0.000 A 
ATOM      5  C   UNL     1       2.031   1.551  18.441  0.00  0.00    +0.000 A 
ATOM      6  C   UNL     1       3.382   1.263  18.642  0.00  0.00    +0.000 A 
ATOM      7  C   UNL     1       4.283   2.305  18.829  0.00  0.00    +0.000 A 
ATOM      8  C   UNL     1       3.817   3.619  18.808  0.00  0.00    +0.000 A 
ATOM      9  C   UNL     1       4.748   4.722  18.927  0.00  0.00    +0.000 A 
ATOM     10  O   UNL     1       5.880   4.515  19.365  0.00  0.00    +0.000 OA
ATOM     11  C   UNL     1       4.251   6.067  18.541  0.00  0.00    +0.000 A 
ENDROOT
BRANCH   1  15
ATOM     12  C   UNL     1       1.299  10.259  19.006  0.00  0.00    +0.000 A 
ATOM     13  C   UNL     1       1.858   9.804  17.809  0.00  0.00    +0.000 A 
ATOM     14  C   UNL     1       2.335   8.498  17.693  0.00  0.00    +0.000 A 
ATOM     15  C   UNL     1       2.291   7.600  18.769  0.00  0.00    +0.000 A 
ATOM     16  C   UNL     1       1.799   8.091  19.988  0.00  0.00    +0.000 A 
ATOM     17  C   UNL     1       1.313   9.412  20.124  0.00  0.00    +0.000 A 
BRANCH  12  19
ATOM     18  C   UNL     1      -0.559  11.684  18.649  0.00  0.00    +0.000 C 
ATOM     19  O   UNL     1       0.789  11.525  19.096  0.00  0.00    +0.000 OA
ENDBRANCH  12  19
BRANCH  17  20
ATOM     20  O   UNL     1       0.897   9.686  21.403  0.00  0.00    +0.000 OA
ATOM     21  C   UNL     1      -0.276   9.053  21.895  0.00  0.00    +0.000 C 
ENDBRANCH  17  20
ENDBRANCH   1  15
BRANCH  11  22
ATOM     22  O   UNL     1       5.125   7.096  18.253  0.00  0.00    +0.000 OA
BRANCH  22  23
ATOM     23  C   UNL     1       5.781   7.035  16.983  0.00  0.00    +0.000 C 
BRANCH  23  24
ATOM     24  C   UNL     1       7.238   6.662  17.230  0.00  0.00    +0.000 C 
BRANCH  24  25
ATOM     25  C   UNL     1       7.941   7.669  18.153  0.00  0.00    +0.000 C 
BRANCH  25  26
ATOM     26  C   UNL     1       7.932   9.122  17.649  0.00  0.00    +0.000 C 
BRANCH  26  27
ATOM     27  C   UNL     1       8.980  10.024  18.309  0.00  0.00    +0.000 C 
BRANCH  27  28
ATOM     28  C   UNL     1       8.611  11.507  18.172  0.00  0.00    +0.000 C 
BRANCH  28  29
ATOM     29  N   UNL     1       9.696  12.365  17.682  0.00  0.00    +0.000 NA
ATOM     30  C   UNL     1      10.972  11.945  18.306  0.00  0.00    +0.000 C 
ATOM     31  C   UNL     1      12.162  12.838  17.888  0.00  0.00    +0.000 C 
ATOM     32  N   UNL     1      11.962  14.285  18.101  0.00  0.00    +0.000 NA
ATOM     33  C   UNL     1      12.063  14.648  19.512  0.00  0.00    +0.000 C 
ATOM     34  C   UNL     1      10.656  14.676  17.534  0.00  0.00    +0.000 C 
ATOM     35  C   UNL     1       9.464  13.794  17.973  0.00  0.00    +0.000 C 
ENDBRANCH  28  29
ENDBRANCH  27  28
ENDBRANCH  26  27
ENDBRANCH  25  26
ENDBRANCH  24  25
ENDBRANCH  23  24
ENDBRANCH  22  23
ENDBRANCH  11  22
TORSDOF 11
ENDMDL
MODEL 3
REMARK VINA RESULT:      -7.5      0.978      1.048
REMARK  Name = 
REMARK  14 active torsions:
REMARK  status: ('A' for Active; 'I' for Inactive)
REMARK    1  A    between atoms: C_1  and  O_2
REMARK    2  A    between atoms: O_2  and  C_3
REMARK    3  A    between atoms: C_6  and  C_7
REMARK    4  A    between atoms: C_17  and  O_18
REMARK    5  A    between atoms: O_18  and  C_19
REMARK    6  A    between atoms: C_19  and  C_20
REMARK    7  A    between atoms: C_20  and  C_21
REMARK    8  A    between atoms: C_21  and  C_22
REMARK    9  A    between atoms: C_22  and  C_23
REMARK   10  A    between atoms: C_23  and  C_24
REMARK   11  A    between atoms: C_24  and  N_25
REMARK   12  A    between atoms: N_28  and  C_29
REMARK   13  A    between atoms: C_33  and  O_34
REMARK   14  A    between atoms: O_34  and  C_35
REMARK                            x       y       z     vdW  Elec       q    Type
REMARK                         _______ _______ _______ _____ _____    ______ ____
ROOT
ATOM      1  C   UNL     1       4.897   4.265  16.459  0.00  0.00    +0.000 A 
ATOM      2  O   UNL     1       5.100   3.489  15.316  0.00  0.00    +0.000 OA
ATOM      3  C   UNL     1       5.919   3.986  14.332  0.00  0.00    +0.000 A 
ATOM      4  C   UNL     1       5.914   3.379  13.079  0.00  0.00    +0.000 A 
ATOM      5  C   UNL     1       6.789   3.837  12.084  0.00  0.00    +0.000 A 
ATOM      6  C   UNL     1       7.685   4.876  12.342  0.00  0.00    +0.000 A 
ATOM      7  C   UNL     1       7.683   5.486  13.591  0.00  0.00    +0.000 A 
ATOM      8  C   UNL     1       6.781   5.049  14.560  0.00  0.00    +0.000 A 
ATOM      9  C   UNL     1       6.711   5.719  15.842  0.00  0.00    +0.000 A 
ATOM     10  O   UNL     1       7.642   6.442  16.200  0.00  0.00    +0.000 OA
ATOM     11  C   UNL     1       5.512   5.451  16.677  0.00  0.00    +0.000 A 
ENDROOT
BRANCH   1  15
ATOM     12  C   UNL     1       2.257   2.565  19.450  0.00  0.00    +0.000 A 
ATOM     13  C   UNL     1       1.763   3.078  18.249  0.00  0.00    +0.000 A 
ATOM     14  C   UNL     1       2.627   3.583  17.277  0.00  0.00    +0.000 A 
ATOM     15  C   UNL     1       4.016   3.614  17.471  0.00  0.00    +0.000 A 
ATOM     16  C   UNL     1       4.495   3.167  18.712  0.00  0.00    +0.000 A 
ATOM     17  C   UNL     1       3.633   2.654  19.710  0.00  0.00    +0.000 A 
BRANCH  12  19
ATOM     18  C   UNL     1       1.163   2.829  21.534  0.00  0.00    +0.000 C 
ATOM     19  O   UNL     1       1.407   2.026  20.377  0.00  0.00    +0.000 OA
ENDBRANCH  12  19
BRANCH  17  20
ATOM     20  O   UNL     1       4.309   2.293  20.848  0.00  0.00    +0.000 OA
ATOM     21  C   UNL     1       5.231   1.214  20.787  0.00  0.00    +0.000 C 
ENDBRANCH  17  20
ENDBRANCH   1  15
BRANCH  11  22
ATOM     22  O   UNL     1       5.158   6.296  17.709  0.00  0.00    +0.000 OA
BRANCH  22  23
ATOM     23  C   UNL     1       4.067   7.186  17.455  0.00  0.00    +0.000 C 
BRANCH  23  24
ATOM     24  C   UNL     1       2.928   6.805  18.394  0.00  0.00    +0.000 C 
BRANCH  24  25
ATOM     25  C   UNL     1       2.176   8.038  18.916  0.00  0.00    +0.000 C 
BRANCH  25  26
ATOM     26  C   UNL     1       1.814   9.076  17.839  0.00  0.00    +0.000 C 
BRANCH  26  27
ATOM     27  C   UNL     1       1.316  10.414  18.397  0.00  0.00    +0.000 C 
BRANCH  27  28
ATOM     28  C   UNL     1       0.122  10.219  19.340  0.00  0.00    +0.000 C 
BRANCH  28  29
ATOM     29  N   UNL     1      -0.372  11.453  19.964  0.00  0.00    +0.000 NA
ATOM     30  C   UNL     1       0.131  12.620  19.204  0.00  0.00    +0.000 C 
ATOM     31  C   UNL     1      -0.294  13.967  19.832  0.00  0.00    +0.000 C 
ATOM     32  N   UNL     1       0.043  14.126  21.261  0.00  0.00    +0.000 NA
ATOM     33  C   UNL     1       1.468  14.375  21.460  0.00  0.00    +0.000 C 
ATOM     34  C   UNL     1      -0.403  12.924  21.993  0.00  0.00    +0.000 C 
ATOM     35  C   UNL     1       0.044  11.579  21.376  0.00  0.00    +0.000 C 
ENDBRANCH  28  29
ENDBRANCH  27  28
ENDBRANCH  26  27
ENDBRANCH  25  26
ENDBRANCH  24  25
ENDBRANCH  23  24
ENDBRANCH  22  23
ENDBRANCH  11  22
TORSDOF 11
ENDMDL
MODEL 4
REMARK VINA RESULT:      -7.5      0.998      1.568
REMARK  Name = 
REMARK  14 active torsions:
REMARK  status: ('A' for Active; 'I' for Inactive)
REMARK    1  A    between atoms: C_1  and  O_2
REMARK    2  A    between atoms: O_2  and  C_3
REMARK    3  A    between atoms: C_6  and  C_7
REMARK    4  A    between atoms: C_17  and  O_18
REMARK    5  A    between atoms: O_18  and  C_19
REMARK    6  A    between atoms: C_19  and  C_20
REMARK    7  A    between atoms: C_20  and  C_21
REMARK    8  A    between atoms: C_21  and  C_22
REMARK    9  A    between atoms: C_22  and  C_23
REMARK   10  A    between atoms: C_23  and  C_24
REMARK   11  A    between atoms: C_24  and  N_25
REMARK   12  A    between atoms: N_28  and  C_29
REMARK   13  A    between atoms: C_33  and  O_34
REMARK   14  A    between atoms: O_34  and  C_35
REMARK                            x       y       z     vdW  Elec       q    Type
REMARK                         _______ _______ _______ _____ _____    ______ ____
ROOT
ATOM      1  C   UNL     1       4.625   4.399  16.450  0.00  0.00    +0.000 A 
ATOM      2  O   UNL     1       4.857   3.570  15.349  0.00  0.00    +0.000 OA
ATOM      3  C   UNL     1       5.728   4.008  14.382  0.00  0.00    +0.000 A 
ATOM      4  C   UNL     1       5.761   3.348  13.156  0.00  0.00    +0.000 A 
ATOM      5  C   UNL     1       6.687   3.744  12.181  0.00  0.00    +0.000 A 
ATOM      6  C   UNL     1       7.596   4.773  12.434  0.00  0.00    +0.000 A 
ATOM      7  C   UNL     1       7.557   5.435  13.655  0.00  0.00    +0.000 A 
ATOM      8  C   UNL     1       6.605   5.059  14.602  0.00  0.00    +0.000 A 
ATOM      9  C   UNL     1       6.497   5.784  15.852  0.00  0.00    +0.000 A 
ATOM     10  O   UNL     1       7.430   6.501  16.219  0.00  0.00    +0.000 OA
ATOM     11  C   UNL     1       5.259   5.578  16.645  0.00  0.00    +0.000 A 
ENDROOT
BRANCH   1  15
ATOM     12  C   UNL     1       1.844   2.887  19.414  0.00  0.00    +0.000 A 
ATOM     13  C   UNL     1       1.398   3.507  18.244  0.00  0.00    +0.000 A 
ATOM     14  C   UNL     1       2.303   3.950  17.280  0.00  0.00    +0.000 A 
ATOM     15  C   UNL     1       3.688   3.810  17.449  0.00  0.00    +0.000 A 
ATOM     16  C   UNL     1       4.127   3.257  18.661  0.00  0.00    +0.000 A 
ATOM     17  C   UNL     1       3.225   2.804  19.652  0.00  0.00    +0.000 A 
BRANCH  12  19
ATOM     18  C   UNL     1       1.257   2.690  21.700  0.00  0.00    +0.000 C 
ATOM     19  O   UNL     1       0.949   2.411  20.333  0.00  0.00    +0.000 OA
ENDBRANCH  12  19
BRANCH  17  20
ATOM     20  O   UNL     1       3.868   2.316  20.761  0.00  0.00    +0.000 OA
ATOM     21  C   UNL     1       5.072   1.581  20.591  0.00  0.00    +0.000 C 
ENDBRANCH  17  20
ENDBRANCH   1  15
BRANCH  11  22
ATOM     22  O   UNL     1       4.882   6.474  17.625  0.00  0.00    +0.000 OA
BRANCH  22  23
ATOM     23  C   UNL     1       4.119   7.604  17.193  0.00  0.00    +0.000 C 
BRANCH  23  24
ATOM     24  C   UNL     1       2.879   7.693  18.075  0.00  0.00    +0.000 C 
BRANCH  24  25
ATOM     25  C   UNL     1       2.990   6.793  19.315  0.00  0.00    +0.000 C 
BRANCH  25  26
ATOM     26  C   UNL     1       1.742   6.778  20.214  0.00  0.00    +0.000 C 
BRANCH  26  27
ATOM     27  C   UNL     1       1.700   7.906  21.250  0.00  0.00    +0.000 C 
BRANCH  27  28
ATOM     28  C   UNL     1       0.348   8.632  21.235  0.00  0.00    +0.000 C 
BRANCH  28  29
ATOM     29  N   UNL     1       0.418  10.048  20.852  0.00  0.00    +0.000 NA
ATOM     30  C   UNL     1      -0.500  10.831  21.711  0.00  0.00    +0.000 C 
ATOM     31  C   UNL     1      -0.533  12.330  21.334  0.00  0.00    +0.000 C 
ATOM     32  N   UNL     1      -0.825  12.611  19.914  0.00  0.00    +0.000 NA
ATOM     33  C   UNL     1      -2.236  12.403  19.597  0.00  0.00    +0.000 C 
ATOM     34  C   UNL     1       0.049  11.772  19.071  0.00  0.00    +0.000 C 
ATOM     35  C   UNL     1       0.062  10.270  19.436  0.00  0.00    +0.000 C 
ENDBRANCH  28  29
ENDBRANCH  27  28
ENDBRANCH  26  27
ENDBRANCH  25  26
ENDBRANCH  24  25
ENDBRANCH  23  24
ENDBRANCH  22  23
ENDBRANCH  11  22
TORSDOF 11
ENDMDL
MODEL 5
REMARK VINA RESULT:      -7.5      0.757      1.108
REMARK  Name = 
REMARK  14 active torsions:
REMARK  status: ('A' for Active; 'I' for Inactive)
REMARK    1  A    between atoms: C_1  and  O_2
REMARK    2  A    between atoms: O_2  and  C_3
REMARK    3  A    between atoms: C_6  and  C_7
REMARK    4  A    between atoms: C_17  and  O_18
REMARK    5  A    between atoms: O_18  and  C_19
REMARK    6  A    between atoms: C_19  and  C_20
REMARK    7  A    between atoms: C_20  and  C_21
REMARK    8  A    between atoms: C_21  and  C_22
REMARK    9  A    between atoms: C_22  and  C_23
REMARK   10  A    between atoms: C_23  and  C_24
REMARK   11  A    between atoms: C_24  and  N_25
REMARK   12  A    between atoms: N_28  and  C_29
REMARK   13  A    between atoms: C_33  and  O_34
REMARK   14  A    between atoms: O_34  and  C_35
REMARK                            x       y       z     vdW  Elec       q    Type
REMARK                         _______ _______ _______ _____ _____    ______ ____
ROOT
ATOM      1  C   UNL     1       4.753   4.358  16.477  0.00  0.00    +0.000 A 
ATOM      2  O   UNL     1       4.963   3.568  15.344  0.00  0.00    +0.000 OA
ATOM      3  C   UNL     1       5.818   4.037  14.378  0.00  0.00    +0.000 A 
ATOM      4  C   UNL     1       5.828   3.421  13.129  0.00  0.00    +0.000 A 
ATOM      5  C   UNL     1       6.739   3.848  12.153  0.00  0.00    +0.000 A 
ATOM      6  C   UNL     1       7.655   4.865  12.426  0.00  0.00    +0.000 A 
ATOM      7  C   UNL     1       7.639   5.484  13.670  0.00  0.00    +0.000 A 
ATOM      8  C   UNL     1       6.703   5.078  14.620  0.00  0.00    +0.000 A 
ATOM      9  C   UNL     1       6.619   5.759  15.896  0.00  0.00    +0.000 A 
ATOM     10  O   UNL     1       7.560   6.460  16.271  0.00  0.00    +0.000 OA
ATOM     11  C   UNL     1       5.394   5.528  16.703  0.00  0.00    +0.000 A 
ENDROOT
BRANCH   1  15
ATOM     12  C   UNL     1       2.008   2.750  19.425  0.00  0.00    +0.000 A 
ATOM     13  C   UNL     1       1.548   3.341  18.245  0.00  0.00    +0.000 A 
ATOM     14  C   UNL     1       2.443   3.815  17.287  0.00  0.00    +0.000 A 
ATOM     15  C   UNL     1       3.831   3.737  17.472  0.00  0.00    +0.000 A 
ATOM     16  C   UNL     1       4.281   3.213  18.693  0.00  0.00    +0.000 A 
ATOM     17  C   UNL     1       3.389   2.729  19.678  0.00  0.00    +0.000 A 
BRANCH  12  19
ATOM     18  C   UNL     1       1.225   2.777  21.660  0.00  0.00    +0.000 C 
ATOM     19  O   UNL     1       1.125   2.243  20.338  0.00  0.00    +0.000 OA
ENDBRANCH  12  19
BRANCH  17  20
ATOM     20  O   UNL     1       4.040   2.279  20.798  0.00  0.00    +0.000 OA
ATOM     21  C   UNL     1       5.149   1.404  20.644  0.00  0.00    +0.000 C 
ENDBRANCH  17  20
ENDBRANCH   1  15
BRANCH  11  22
ATOM     22  O   UNL     1       5.038   6.390  17.720  0.00  0.00    +0.000 OA
BRANCH  22  23
ATOM     23  C   UNL     1       4.281   7.543  17.340  0.00  0.00    +0.000 C 
BRANCH  23  24
ATOM     24  C   UNL     1       2.813   7.252  17.626  0.00  0.00    +0.000 C 
BRANCH  24  25
ATOM     25  C   UNL     1       2.230   8.210  18.676  0.00  0.00    +0.000 C 
BRANCH  25  26
ATOM     26  C   UNL     1       1.207   9.219  18.130  0.00  0.00    +0.000 C 
BRANCH  26  27
ATOM     27  C   UNL     1       1.538  10.683  18.442  0.00  0.00    +0.000 C 
BRANCH  27  28
ATOM     28  C   UNL     1       0.309  11.437  18.964  0.00  0.00    +0.000 C 
BRANCH  28  29
ATOM     29  N   UNL     1       0.313  11.686  20.411  0.00  0.00    +0.000 NA
ATOM     30  C   UNL     1      -0.372  10.568  21.100  0.00  0.00    +0.000 C 
ATOM     31  C   UNL     1      -0.466  10.779  22.629  0.00  0.00    +0.000 C 
ATOM     32  N   UNL     1      -1.068  12.061  23.047  0.00  0.00    +0.000 NA
ATOM     33  C   UNL     1      -2.517  12.067  22.863  0.00  0.00    +0.000 C 
ATOM     34  C   UNL     1      -0.423  13.159  22.301  0.00  0.00    +0.000 C 
ATOM     35  C   UNL     1      -0.352  12.955  20.771  0.00  0.00    +0.000 C 
ENDBRANCH  28  29
ENDBRANCH  27  28
ENDBRANCH  26  27
ENDBRANCH  25  26
ENDBRANCH  24  25
ENDBRANCH  23  24
ENDBRANCH  22  23
ENDBRANCH  11  22
TORSDOF 11
ENDMDL
MODEL 6
REMARK VINA RESULT:      -7.5      1.682      2.044
REMARK  Name = 
REMARK  14 active torsions:
REMARK  status: ('A' for Active; 'I' for Inactive)
REMARK    1  A    between atoms: C_1  and  O_2
REMARK    2  A    between atoms: O_2  and  C_3
REMARK    3  A    between atoms: C_6  and  C_7
REMARK    4  A    between atoms: C_17  and  O_18
REMARK    5  A    between atoms: O_18  and  C_19
REMARK    6  A    between atoms: C_19  and  C_20
REMARK    7  A    between atoms: C_20  and  C_21
REMARK    8  A    between atoms: C_21  and  C_22
REMARK    9  A    between atoms: C_22  and  C_23
REMARK   10  A    between atoms: C_23  and  C_24
REMARK   11  A    between atoms: C_24  and  N_25
REMARK   12  A    between atoms: N_28  and  C_29
REMARK   13  A    between atoms: C_33  and  O_34
REMARK   14  A    between atoms: O_34  and  C_35
REMARK                            x       y       z     vdW  Elec       q    Type
REMARK                         _______ _______ _______ _____ _____    ______ ____
ROOT
ATOM      1  C   UNL     1       5.065   4.193  16.507  0.00  0.00    +0.000 A 
ATOM      2  O   UNL     1       5.266   3.407  15.369  0.00  0.00    +0.000 OA
ATOM      3  C   UNL     1       6.033   3.921  14.354  0.00  0.00    +0.000 A 
ATOM      4  C   UNL     1       6.016   3.293  13.111  0.00  0.00    +0.000 A 
ATOM      5  C   UNL     1       6.840   3.770  12.082  0.00  0.00    +0.000 A 
ATOM      6  C   UNL     1       7.700   4.850  12.297  0.00  0.00    +0.000 A 
ATOM      7  C   UNL     1       7.710   5.479  13.535  0.00  0.00    +0.000 A 
ATOM      8  C   UNL     1       6.857   5.021  14.539  0.00  0.00    +0.000 A 
ATOM      9  C   UNL     1       6.798   5.709  15.812  0.00  0.00    +0.000 A 
ATOM     10  O   UNL     1       7.708   6.475  16.130  0.00  0.00    +0.000 OA
ATOM     11  C   UNL     1       5.637   5.406  16.688  0.00  0.00    +0.000 A 
ENDROOT
BRANCH   1  15
ATOM     12  C   UNL     1       2.589   2.435  19.603  0.00  0.00    +0.000 A 
ATOM     13  C   UNL     1       2.039   2.904  18.408  0.00  0.00    +0.000 A 
ATOM     14  C   UNL     1       2.852   3.429  17.403  0.00  0.00    +0.000 A 
ATOM     15  C   UNL     1       4.243   3.522  17.555  0.00  0.00    +0.000 A 
ATOM     16  C   UNL     1       4.777   3.120  18.789  0.00  0.00    +0.000 A 
ATOM     17  C   UNL     1       3.967   2.588  19.820  0.00  0.00    +0.000 A 
BRANCH  12  19
ATOM     18  C   UNL     1       1.272   2.782  21.540  0.00  0.00    +0.000 C 
ATOM     19  O   UNL     1       1.790   1.877  20.564  0.00  0.00    +0.000 OA
ENDBRANCH  12  19
BRANCH  17  20
ATOM     20  O   UNL     1       4.690   2.276  20.943  0.00  0.00    +0.000 OA
ATOM     21  C   UNL     1       5.231   0.969  21.073  0.00  0.00    +0.000 C 
ENDBRANCH  17  20
ENDBRANCH   1  15
BRANCH  11  22
ATOM     22  O   UNL     1       5.280   6.253  17.717  0.00  0.00    +0.000 OA
BRANCH  22  23
ATOM     23  C   UNL     1       4.402   7.330  17.377  0.00  0.00    +0.000 C 
BRANCH  23  24
ATOM     24  C   UNL     1       2.995   6.940  17.815  0.00  0.00    +0.000 C 
BRANCH  24  25
ATOM     25  C   UNL     1       2.315   8.054  18.624  0.00  0.00    +0.000 C 
BRANCH  25  26
ATOM     26  C   UNL     1       1.828   9.251  17.790  0.00  0.00    +0.000 C 
BRANCH  26  27
ATOM     27  C   UNL     1       0.464   9.803  18.219  0.00  0.00    +0.000 C 
BRANCH  27  28
ATOM     28  C   UNL     1       0.612  10.908  19.274  0.00  0.00    +0.000 C 
BRANCH  28  29
ATOM     29  N   UNL     1       0.723  12.266  18.726  0.00  0.00    +0.000 NA
ATOM     30  C   UNL     1       2.104  12.762  18.929  0.00  0.00    +0.000 C 
ATOM     31  C   UNL     1       2.293  14.214  18.433  0.00  0.00    +0.000 C 
ATOM     32  N   UNL     1       1.331  15.192  18.980  0.00  0.00    +0.000 NA
ATOM     33  C   UNL     1       1.627  15.528  20.370  0.00  0.00    +0.000 C 
ATOM     34  C   UNL     1      -0.035  14.652  18.833  0.00  0.00    +0.000 C 
ATOM     35  C   UNL     1      -0.226  13.209  19.352  0.00  0.00    +0.000 C 
ENDBRANCH  28  29
ENDBRANCH  27  28
ENDBRANCH  26  27
ENDBRANCH  25  26
ENDBRANCH  24  25
ENDBRANCH  23  24
ENDBRANCH  22  23
ENDBRANCH  11  22
TORSDOF 11
ENDMDL
MODEL 7
REMARK VINA RESULT:      -7.2      1.978      2.380
REMARK  Name = 
REMARK  14 active torsions:
REMARK  status: ('A' for Active; 'I' for Inactive)
REMARK    1  A    between atoms: C_1  and  O_2
REMARK    2  A    between atoms: O_2  and  C_3
REMARK    3  A    between atoms: C_6  and  C_7
REMARK    4  A    between atoms: C_17  and  O_18
REMARK    5  A    between atoms: O_18  and  C_19
REMARK    6  A    between atoms: C_19  and  C_20
REMARK    7  A    between atoms: C_20  and  C_21
REMARK    8  A    between atoms: C_21  and  C_22
REMARK    9  A    between atoms: C_22  and  C_23
REMARK   10  A    between atoms: C_23  and  C_24
REMARK   11  A    between atoms: C_24  and  N_25
REMARK   12  A    between atoms: N_28  and  C_29
REMARK   13  A    between atoms: C_33  and  O_34
REMARK   14  A    between atoms: O_34  and  C_35
REMARK                            x       y       z     vdW  Elec       q    Type
REMARK                         _______ _______ _______ _____ _____    ______ ____
ROOT
ATOM      1  C   UNL     1       4.700   4.410  16.496  0.00  0.00    +0.000 A 
ATOM      2  O   UNL     1       4.907   3.587  15.386  0.00  0.00    +0.000 OA
ATOM      3  C   UNL     1       5.784   4.012  14.419  0.00  0.00    +0.000 A 
ATOM      4  C   UNL     1       5.795   3.363  13.187  0.00  0.00    +0.000 A 
ATOM      5  C   UNL     1       6.727   3.746  12.211  0.00  0.00    +0.000 A 
ATOM      6  C   UNL     1       7.662   4.749  12.470  0.00  0.00    +0.000 A 
ATOM      7  C   UNL     1       7.644   5.401  13.697  0.00  0.00    +0.000 A 
ATOM      8  C   UNL     1       6.688   5.039  14.646  0.00  0.00    +0.000 A 
ATOM      9  C   UNL     1       6.604   5.754  15.902  0.00  0.00    +0.000 A 
ATOM     10  O   UNL     1       7.555   6.444  16.272  0.00  0.00    +0.000 OA
ATOM     11  C   UNL     1       5.364   5.571  16.699  0.00  0.00    +0.000 A 
ENDROOT
BRANCH   1  15
ATOM     12  C   UNL     1       1.903   2.939  19.465  0.00  0.00    +0.000 A 
ATOM     13  C   UNL     1       1.467   3.627  18.330  0.00  0.00    +0.000 A 
ATOM     14  C   UNL     1       2.374   4.057  17.362  0.00  0.00    +0.000 A 
ATOM     15  C   UNL     1       3.753   3.835  17.494  0.00  0.00    +0.000 A 
ATOM     16  C   UNL     1       4.186   3.212  18.674  0.00  0.00    +0.000 A 
ATOM     17  C   UNL     1       3.281   2.771  19.667  0.00  0.00    +0.000 A 
BRANCH  12  19
ATOM     18  C   UNL     1       1.181   2.953  21.721  0.00  0.00    +0.000 C 
ATOM     19  O   UNL     1       1.002   2.477  20.386  0.00  0.00    +0.000 OA
ENDBRANCH  12  19
BRANCH  17  20
ATOM     20  O   UNL     1       3.920   2.207  20.742  0.00  0.00    +0.000 OA
ATOM     21  C   UNL     1       5.089   1.431  20.519  0.00  0.00    +0.000 C 
ENDBRANCH  17  20
ENDBRANCH   1  15
BRANCH  11  22
ATOM     22  O   UNL     1       5.014   6.467  17.690  0.00  0.00    +0.000 OA
BRANCH  22  23
ATOM     23  C   UNL     1       4.143   7.534  17.302  0.00  0.00    +0.000 C 
BRANCH  23  24
ATOM     24  C   UNL     1       2.996   7.585  18.305  0.00  0.00    +0.000 C 
BRANCH  24  25
ATOM     25  C   UNL     1       1.654   7.902  17.627  0.00  0.00    +0.000 C 
BRANCH  25  26
ATOM     26  C   UNL     1       1.163   9.347  17.815  0.00  0.00    +0.000 C 
BRANCH  26  27
ATOM     27  C   UNL     1       1.280   9.870  19.250  0.00  0.00    +0.000 C 
BRANCH  27  28
ATOM     28  C   UNL     1       0.805  11.325  19.358  0.00  0.00    +0.000 C 
BRANCH  28  29
ATOM     29  N   UNL     1       1.883  12.311  19.511  0.00  0.00    +0.000 NA
ATOM     30  C   UNL     1       1.479  13.324  20.512  0.00  0.00    +0.000 C 
ATOM     31  C   UNL     1       2.536  14.438  20.691  0.00  0.00    +0.000 C 
ATOM     32  N   UNL     1       2.950  15.113  19.445  0.00  0.00    +0.000 NA
ATOM     33  C   UNL     1       1.926  16.033  18.958  0.00  0.00    +0.000 C 
ATOM     34  C   UNL     1       3.283  14.090  18.435  0.00  0.00    +0.000 C 
ATOM     35  C   UNL     1       2.213  12.991  18.242  0.00  0.00    +0.000 C 
ENDBRANCH  28  29
ENDBRANCH  27  28
ENDBRANCH  26  27
ENDBRANCH  25  26
ENDBRANCH  24  25
ENDBRANCH  23  24
ENDBRANCH  22  23
ENDBRANCH  11  22
TORSDOF 11
ENDMDL
MODEL 8
REMARK VINA RESULT:      -7.2      0.876      1.198
REMARK  Name = 
REMARK  14 active torsions:
REMARK  status: ('A' for Active; 'I' for Inactive)
REMARK    1  A    between atoms: C_1  and  O_2
REMARK    2  A    between atoms: O_2  and  C_3
REMARK    3  A    between atoms: C_6  and  C_7
REMARK    4  A    between atoms: C_17  and  O_18
REMARK    5  A    between atoms: O_18  and  C_19
REMARK    6  A    between atoms: C_19  and  C_20
REMARK    7  A    between atoms: C_20  and  C_21
REMARK    8  A    between atoms: C_21  and  C_22
REMARK    9  A    between atoms: C_22  and  C_23
REMARK   10  A    between atoms: C_23  and  C_24
REMARK   11  A    between atoms: C_24  and  N_25
REMARK   12  A    between atoms: N_28  and  C_29
REMARK   13  A    between atoms: C_33  and  O_34
REMARK   14  A    between atoms: O_34  and  C_35
REMARK                            x       y       z     vdW  Elec       q    Type
REMARK                         _______ _______ _______ _____ _____    ______ ____
ROOT
ATOM      1  C   UNL     1       4.885   4.283  16.490  0.00  0.00    +0.000 A 
ATOM      2  O   UNL     1       5.079   3.492  15.355  0.00  0.00    +0.000 OA
ATOM      3  C   UNL     1       5.899   3.971  14.364  0.00  0.00    +0.000 A 
ATOM      4  C   UNL     1       5.888   3.350  13.118  0.00  0.00    +0.000 A 
ATOM      5  C   UNL     1       6.764   3.789  12.116  0.00  0.00    +0.000 A 
ATOM      6  C   UNL     1       7.668   4.824  12.360  0.00  0.00    +0.000 A 
ATOM      7  C   UNL     1       7.674   5.449  13.602  0.00  0.00    +0.000 A 
ATOM      8  C   UNL     1       6.771   5.029  14.578  0.00  0.00    +0.000 A 
ATOM      9  C   UNL     1       6.708   5.715  15.853  0.00  0.00    +0.000 A 
ATOM     10  O   UNL     1       7.646   6.434  16.200  0.00  0.00    +0.000 OA
ATOM     11  C   UNL     1       5.510   5.465  16.693  0.00  0.00    +0.000 A 
ENDROOT
BRANCH   1  15
ATOM     12  C   UNL     1       2.241   2.638  19.508  0.00  0.00    +0.000 A 
ATOM     13  C   UNL     1       1.745   3.159  18.310  0.00  0.00    +0.000 A 
ATOM     14  C   UNL     1       2.610   3.646  17.330  0.00  0.00    +0.000 A 
ATOM     15  C   UNL     1       4.001   3.650  17.511  0.00  0.00    +0.000 A 
ATOM     16  C   UNL     1       4.483   3.195  18.748  0.00  0.00    +0.000 A 
ATOM     17  C   UNL     1       3.621   2.700  19.754  0.00  0.00    +0.000 A 
BRANCH  12  19
ATOM     18  C   UNL     1       1.247   2.879  21.644  0.00  0.00    +0.000 C 
ATOM     19  O   UNL     1       1.389   2.117  20.444  0.00  0.00    +0.000 OA
ENDBRANCH  12  19
BRANCH  17  20
ATOM     20  O   UNL     1       4.300   2.326  20.886  0.00  0.00    +0.000 OA
ATOM     21  C   UNL     1       5.166   1.202  20.829  0.00  0.00    +0.000 C 
ENDBRANCH  17  20
ENDBRANCH   1  15
BRANCH  11  22
ATOM     22  O   UNL     1       5.164   6.325  17.716  0.00  0.00    +0.000 OA
BRANCH  22  23
ATOM     23  C   UNL     1       4.495   7.531  17.334  0.00  0.00    +0.000 C 
BRANCH  23  24
ATOM     24  C   UNL     1       3.079   7.474  17.893  0.00  0.00    +0.000 C 
BRANCH  24  25
ATOM     25  C   UNL     1       2.367   8.832  17.794  0.00  0.00    +0.000 C 
BRANCH  25  26
ATOM     26  C   UNL     1       1.001   8.896  18.499  0.00  0.00    +0.000 C 
BRANCH  26  27
ATOM     27  C   UNL     1       0.911   9.957  19.602  0.00  0.00    +0.000 C 
BRANCH  27  28
ATOM     28  C   UNL     1      -0.523  10.478  19.763  0.00  0.00    +0.000 C 
BRANCH  28  29
ATOM     29  N   UNL     1      -0.621  11.908  20.084  0.00  0.00    +0.000 NA
ATOM     30  C   UNL     1       0.403  12.252  21.097  0.00  0.00    +0.000 C 
ATOM     31  C   UNL     1       0.330  13.732  21.538  0.00  0.00    +0.000 C 
ATOM     32  N   UNL     1      -0.998  14.180  22.005  0.00  0.00    +0.000 NA
ATOM     33  C   UNL     1      -1.306  13.669  23.338  0.00  0.00    +0.000 C 
ATOM     34  C   UNL     1      -2.016  13.768  21.019  0.00  0.00    +0.000 C 
ATOM     35  C   UNL     1      -1.954  12.282  20.598  0.00  0.00    +0.000 C 
ENDBRANCH  28  29
ENDBRANCH  27  28
ENDBRANCH  26  27
ENDBRANCH  25  26
ENDBRANCH  24  25
ENDBRANCH  23  24
ENDBRANCH  22  23
ENDBRANCH  11  22
TORSDOF 11
ENDMDL
MODEL 9
REMARK VINA RESULT:      -7.2      1.922      2.351
REMARK  Name = 
REMARK  14 active torsions:
REMARK  status: ('A' for Active; 'I' for Inactive)
REMARK    1  A    between atoms: C_1  and  O_2
REMARK    2  A    between atoms: O_2  and  C_3
REMARK    3  A    between atoms: C_6  and  C_7
REMARK    4  A    between atoms: C_17  and  O_18
REMARK    5  A    between atoms: O_18  and  C_19
REMARK    6  A    between atoms: C_19  and  C_20
REMARK    7  A    between atoms: C_20  and  C_21
REMARK    8  A    between atoms: C_21  and  C_22
REMARK    9  A    between atoms: C_22  and  C_23
REMARK   10  A    between atoms: C_23  and  C_24
REMARK   11  A    between atoms: C_24  and  N_25
REMARK   12  A    between atoms: N_28  and  C_29
REMARK   13  A    between atoms: C_33  and  O_34
REMARK   14  A    between atoms: O_34  and  C_35
REMARK                            x       y       z     vdW  Elec       q    Type
REMARK                         _______ _______ _______ _____ _____    ______ ____
ROOT
ATOM      1  C   UNL     1       4.751   4.398  16.276  0.00  0.00    +0.000 A 
ATOM      2  O   UNL     1       4.980   3.617  15.141  0.00  0.00    +0.000 OA
ATOM      3  C   UNL     1       5.861   4.087  14.199  0.00  0.00    +0.000 A 
ATOM      4  C   UNL     1       5.894   3.482  12.945  0.00  0.00    +0.000 A 
ATOM      5  C   UNL     1       6.830   3.910  11.993  0.00  0.00    +0.000 A 
ATOM      6  C   UNL     1       7.749   4.916  12.297  0.00  0.00    +0.000 A 
ATOM      7  C   UNL     1       7.711   5.524  13.546  0.00  0.00    +0.000 A 
ATOM      8  C   UNL     1       6.749   5.117  14.471  0.00  0.00    +0.000 A 
ATOM      9  C   UNL     1       6.643   5.786  15.751  0.00  0.00    +0.000 A 
ATOM     10  O   UNL     1       7.581   6.475  16.154  0.00  0.00    +0.000 OA
ATOM     11  C   UNL     1       5.398   5.560  16.527  0.00  0.00    +0.000 A 
ENDROOT
BRANCH   1  15
ATOM     12  C   UNL     1       2.004   2.768  19.210  0.00  0.00    +0.000 A 
ATOM     13  C   UNL     1       1.636   3.826  18.375  0.00  0.00    +0.000 A 
ATOM     14  C   UNL     1       2.515   4.312  17.407  0.00  0.00    +0.000 A 
ATOM     15  C   UNL     1       3.801   3.777  17.244  0.00  0.00    +0.000 A 
ATOM     16  C   UNL     1       4.188   2.767  18.138  0.00  0.00    +0.000 A 
ATOM     17  C   UNL     1       3.311   2.264  19.127  0.00  0.00    +0.000 A 
BRANCH  12  19
ATOM     18  C   UNL     1       1.256   2.759  21.457  0.00  0.00    +0.000 C 
ATOM     19  O   UNL     1       1.119   2.265  20.124  0.00  0.00    +0.000 OA
ENDBRANCH  12  19
BRANCH  17  20
ATOM     20  O   UNL     1       3.898   1.295  19.902  0.00  0.00    +0.000 OA
ATOM     21  C   UNL     1       4.900   1.675  20.835  0.00  0.00    +0.000 C 
ENDBRANCH  17  20
ENDBRANCH   1  15
BRANCH  11  22
ATOM     22  O   UNL     1       5.026   6.416  17.545  0.00  0.00    +0.000 OA
BRANCH  22  23
ATOM     23  C   UNL     1       4.324   7.599  17.154  0.00  0.00    +0.000 C 
BRANCH  23  24
ATOM     24  C   UNL     1       2.990   7.614  17.892  0.00  0.00    +0.000 C 
BRANCH  24  25
ATOM     25  C   UNL     1       2.329   9.000  17.857  0.00  0.00    +0.000 C 
BRANCH  25  26
ATOM     26  C   UNL     1       1.296   9.250  18.969  0.00  0.00    +0.000 C 
BRANCH  26  27
ATOM     27  C   UNL     1       0.364  10.437  18.707  0.00  0.00    +0.000 C 
BRANCH  27  28
ATOM     28  C   UNL     1      -0.813  10.039  17.807  0.00  0.00    +0.000 C 
BRANCH  28  29
ATOM     29  N   UNL     1      -2.139  10.312  18.376  0.00  0.00    +0.000 NA
ATOM     30  C   UNL     1      -3.175   9.688  17.521  0.00  0.00    +0.000 C 
ATOM     31  C   UNL     1      -4.610   9.978  18.017  0.00  0.00    +0.000 C 
ATOM     32  N   UNL     1      -4.927  11.407  18.213  0.00  0.00    +0.000 NA
ATOM     33  C   UNL     1      -5.124  12.100  16.943  0.00  0.00    +0.000 C 
ATOM     34  C   UNL     1      -3.850  12.030  19.008  0.00  0.00    +0.000 C 
ATOM     35  C   UNL     1      -2.418  11.757  18.495  0.00  0.00    +0.000 C 
ENDBRANCH  28  29
ENDBRANCH  27  28
ENDBRANCH  26  27
ENDBRANCH  25  26
ENDBRANCH  24  25
ENDBRANCH  23  24
ENDBRANCH  22  23
ENDBRANCH  11  22
TORSDOF 11
ENDMDL
