MODEL 1
REMARK VINA RESULT:      -7.8      0.000      0.000
REMARK  Name = 
REMARK  7 active torsions:
REMARK  status: ('A' for Active; 'I' for Inactive)
REMARK    1  A    between atoms: C_1  and  C_2
REMARK    2  A    between atoms: C_2  and  C_3
REMARK    3  A    between atoms: C_6  and  S_7
REMARK    4  A    between atoms: S_7  and  N_10
REMARK    5  A    between atoms: N_10  and  N_11
REMARK    6  A    between atoms: C_12  and  C_13
REMARK    7  A    between atoms: C_12  and  C_14
REMARK                            x       y       z     vdW  Elec       q    Type
REMARK                         _______ _______ _______ _____ _____    ______ ____
ROOT
ATOM      1  S   UNL     1       6.832   5.560  17.643  0.00  0.00    +0.000 S 
ATOM      2  O   UNL     1       7.596   4.540  18.330  0.00  0.00    +0.000 OA
ATOM      3  O   UNL     1       7.302   6.923  17.513  0.00  0.00    +0.000 OA
ENDROOT
BRANCH   1   7
ATOM      4  C   UNL     1       6.087   3.868  13.456  0.00  0.00    +0.000 A 
ATOM      5  C   UNL     1       7.190   4.700  13.700  0.00  0.00    +0.000 A 
ATOM      6  C   UNL     1       7.404   5.242  14.968  0.00  0.00    +0.000 A 
ATOM      7  C   UNL     1       6.502   4.958  15.997  0.00  0.00    +0.000 A 
ATOM      8  C   UNL     1       5.395   4.135  15.770  0.00  0.00    +0.000 A 
ATOM      9  C   UNL     1       5.190   3.594  14.499  0.00  0.00    +0.000 A 
BRANCH   4  11
ATOM     10  C   UNL     1       4.466   3.300  11.634  0.00  0.00    +0.000 C 
ATOM     11  C   UNL     1       5.911   3.218  12.106  0.00  0.00    +0.000 C 
ENDBRANCH   4  11
ENDBRANCH   1   7
BRANCH   1  12
ATOM     12  N   UNL     1       5.250   5.584  18.294  0.00  0.00    +0.000 N 
ATOM     13  H   UNL     1       4.767   4.686  18.208  0.00  0.00    +0.000 HD
BRANCH  12  14
ATOM     14  N   UNL     1       4.451   6.763  18.057  0.00  0.00    +0.000 NA
ATOM     15  C   UNL     1       3.161   6.679  18.216  0.00  0.00    +0.000 C 
ATOM     16  C   UNL     1       2.357   7.912  17.850  0.00  0.00    +0.000 C 
BRANCH  15  17
ATOM     17  C   UNL     1       2.405   5.504  18.755  0.00  0.00    +0.000 A 
ATOM     18  C   UNL     1       1.988   4.480  17.905  0.00  0.00    +0.000 A 
ATOM     19  C   UNL     1       1.241   3.444  18.433  0.00  0.00    +0.000 A 
ATOM     20  N   UNL     1       0.934   3.341  19.741  0.00  0.00    +0.000 NA
ATOM     21  C   UNL     1       1.400   4.309  20.557  0.00  0.00    +0.000 A 
ATOM     22  C   UNL     1       2.128   5.403  20.118  0.00  0.00    +0.000 A 
ENDBRANCH  15  17
ENDBRANCH  12  14
ENDBRANCH   1  12
TORSDOF 5
ENDMDL
MODEL 2
REMARK VINA RESULT:      -7.7      0.321      1.074
REMARK  Name = 
REMARK  7 active torsions:
REMARK  status: ('A' for Active; 'I' for Inactive)
REMARK    1  A    between atoms: C_1  and  C_2
REMARK    2  A    between atoms: C_2  and  C_3
REMARK    3  A    between atoms: C_6  and  S_7
REMARK    4  A    between atoms: S_7  and  N_10
REMARK    5  A    between atoms: N_10  and  N_11
REMARK    6  A    between atoms: C_12  and  C_13
REMARK    7  A    between atoms: C_12  and  C_14
REMARK                            x       y       z     vdW  Elec       q    Type
REMARK                         _______ _______ _______ _____ _____    ______ ____
ROOT
ATOM      1  S   UNL     1       6.885   5.610  17.291  0.00  0.00    +0.000 S 
ATOM      2  O   UNL     1       7.653   4.600  17.989  0.00  0.00    +0.000 OA
ATOM      3  O   UNL     1       7.371   6.961  17.107  0.00  0.00    +0.000 OA
ENDROOT
BRANCH   1   7
ATOM      4  C   UNL     1       5.988   3.796  13.187  0.00  0.00    +0.000 A 
ATOM      5  C   UNL     1       7.174   4.512  13.402  0.00  0.00    +0.000 A 
ATOM      6  C   UNL     1       7.437   5.093  14.643  0.00  0.00    +0.000 A 
ATOM      7  C   UNL     1       6.502   4.963  15.674  0.00  0.00    +0.000 A 
ATOM      8  C   UNL     1       5.313   4.257  15.475  0.00  0.00    +0.000 A 
ATOM      9  C   UNL     1       5.058   3.677  14.230  0.00  0.00    +0.000 A 
BRANCH   4  11
ATOM     10  C   UNL     1       4.287   3.177  11.456  0.00  0.00    +0.000 C 
ATOM     11  C   UNL     1       5.750   3.099  11.869  0.00  0.00    +0.000 C 
ENDBRANCH   4  11
ENDBRANCH   1   7
BRANCH   1  12
ATOM     12  N   UNL     1       5.322   5.678  17.983  0.00  0.00    +0.000 N 
ATOM     13  H   UNL     1       4.805   4.799  17.895  0.00  0.00    +0.000 HD
BRANCH  12  14
ATOM     14  N   UNL     1       4.559   6.888  17.786  0.00  0.00    +0.000 NA
ATOM     15  C   UNL     1       3.282   6.861  18.035  0.00  0.00    +0.000 C 
ATOM     16  C   UNL     1       2.507   8.125  17.710  0.00  0.00    +0.000 C 
BRANCH  15  17
ATOM     17  C   UNL     1       2.516   5.726  18.640  0.00  0.00    +0.000 A 
ATOM     18  C   UNL     1       2.284   5.681  20.016  0.00  0.00    +0.000 A 
ATOM     19  C   UNL     1       1.625   4.586  20.540  0.00  0.00    +0.000 A 
ATOM     20  N   UNL     1       1.146   3.576  19.788  0.00  0.00    +0.000 NA
ATOM     21  C   UNL     1       1.326   3.668  18.454  0.00  0.00    +0.000 A 
ATOM     22  C   UNL     1       2.001   4.709  17.837  0.00  0.00    +0.000 A 
ENDBRANCH  15  17
ENDBRANCH  12  14
ENDBRANCH   1  12
TORSDOF 5
ENDMDL
MODEL 3
REMARK VINA RESULT:      -7.6      0.143      1.063
REMARK  Name = 
REMARK  7 active torsions:
REMARK  status: ('A' for Active; 'I' for Inactive)
REMARK    1  A    between atoms: C_1  and  C_2
REMARK    2  A    between atoms: C_2  and  C_3
REMARK    3  A    between atoms: C_6  and  S_7
REMARK    4  A    between atoms: S_7  and  N_10
REMARK    5  A    between atoms: N_10  and  N_11
REMARK    6  A    between atoms: C_12  and  C_13
REMARK    7  A    between atoms: C_12  and  C_14
REMARK                            x       y       z     vdW  Elec       q    Type
REMARK                         _______ _______ _______ _____ _____    ______ ____
ROOT
ATOM      1  S   UNL     1       6.824   5.605  17.680  0.00  0.00    +0.000 S 
ATOM      2  O   UNL     1       7.592   4.682  18.489  0.00  0.00    +0.000 OA
ATOM      3  O   UNL     1       7.232   6.979  17.476  0.00  0.00    +0.000 OA
ENDROOT
BRANCH   1   7
ATOM      4  C   UNL     1       6.206   3.841  13.503  0.00  0.00    +0.000 A 
ATOM      5  C   UNL     1       5.420   3.406  14.580  0.00  0.00    +0.000 A 
ATOM      6  C   UNL     1       5.626   3.919  15.862  0.00  0.00    +0.000 A 
ATOM      7  C   UNL     1       6.632   4.868  16.068  0.00  0.00    +0.000 A 
ATOM      8  C   UNL     1       7.427   5.309  15.006  0.00  0.00    +0.000 A 
ATOM      9  C   UNL     1       7.213   4.792  13.727  0.00  0.00    +0.000 A 
BRANCH   4  11
ATOM     10  C   UNL     1       4.439   3.449  11.772  0.00  0.00    +0.000 C 
ATOM     11  C   UNL     1       5.921   3.345  12.107  0.00  0.00    +0.000 C 
ENDBRANCH   4  11
ENDBRANCH   1   7
BRANCH   1  12
ATOM     12  N   UNL     1       5.204   5.590  18.230  0.00  0.00    +0.000 N 
ATOM     13  H   UNL     1       4.738   4.691  18.082  0.00  0.00    +0.000 HD
BRANCH  12  14
ATOM     14  N   UNL     1       4.407   6.768  17.984  0.00  0.00    +0.000 NA
ATOM     15  C   UNL     1       3.119   6.693  18.163  0.00  0.00    +0.000 C 
ATOM     16  C   UNL     1       2.315   7.924  17.788  0.00  0.00    +0.000 C 
BRANCH  15  17
ATOM     17  C   UNL     1       2.366   5.531  18.733  0.00  0.00    +0.000 A 
ATOM     18  C   UNL     1       1.946   4.486  17.909  0.00  0.00    +0.000 A 
ATOM     19  C   UNL     1       1.201   3.464  18.465  0.00  0.00    +0.000 A 
ATOM     20  N   UNL     1       0.899   3.392  19.776  0.00  0.00    +0.000 NA
ATOM     21  C   UNL     1       1.367   4.380  20.567  0.00  0.00    +0.000 A 
ATOM     22  C   UNL     1       2.093   5.463  20.099  0.00  0.00    +0.000 A 
ENDBRANCH  15  17
ENDBRANCH  12  14
ENDBRANCH   1  12
TORSDOF 5
ENDMDL
MODEL 4
REMARK VINA RESULT:      -7.4      0.372      1.552
REMARK  Name = 
REMARK  7 active torsions:
REMARK  status: ('A' for Active; 'I' for Inactive)
REMARK    1  A    between atoms: C_1  and  C_2
REMARK    2  A    between atoms: C_2  and  C_3
REMARK    3  A    between atoms: C_6  and  S_7
REMARK    4  A    between atoms: S_7  and  N_10
REMARK    5  A    between atoms: N_10  and  N_11
REMARK    6  A    between atoms: C_12  and  C_13
REMARK    7  A    between atoms: C_12  and  C_14
REMARK                            x       y       z     vdW  Elec       q    Type
REMARK                         _______ _______ _______ _____ _____    ______ ____
ROOT
ATOM      1  S   UNL     1       6.998   5.396  17.519  0.00  0.00    +0.000 S 
ATOM      2  O   UNL     1       7.759   4.387  18.226  0.00  0.00    +0.000 OA
ATOM      3  O   UNL     1       7.495   6.741  17.318  0.00  0.00    +0.000 OA
ENDROOT
BRANCH   1   7
ATOM      4  C   UNL     1       5.886   3.848  13.359  0.00  0.00    +0.000 A 
ATOM      5  C   UNL     1       5.079   3.550  14.466  0.00  0.00    +0.000 A 
ATOM      6  C   UNL     1       5.430   3.994  15.741  0.00  0.00    +0.000 A 
ATOM      7  C   UNL     1       6.604   4.735  15.911  0.00  0.00    +0.000 A 
ATOM      8  C   UNL     1       7.422   5.037  14.819  0.00  0.00    +0.000 A 
ATOM      9  C   UNL     1       7.062   4.590  13.546  0.00  0.00    +0.000 A 
BRANCH   4  11
ATOM     10  C   UNL     1       5.913   2.023  11.644  0.00  0.00    +0.000 C 
ATOM     11  C   UNL     1       5.455   3.437  11.972  0.00  0.00    +0.000 C 
ENDBRANCH   4  11
ENDBRANCH   1   7
BRANCH   1  12
ATOM     12  N   UNL     1       5.437   5.485  18.216  0.00  0.00    +0.000 N 
ATOM     13  H   UNL     1       4.922   4.603  18.159  0.00  0.00    +0.000 HD
BRANCH  12  14
ATOM     14  N   UNL     1       4.673   6.687  17.982  0.00  0.00    +0.000 NA
ATOM     15  C   UNL     1       3.382   6.641  18.146  0.00  0.00    +0.000 C 
ATOM     16  C   UNL     1       2.613   7.898  17.784  0.00  0.00    +0.000 C 
BRANCH  15  17
ATOM     17  C   UNL     1       2.594   5.489  18.688  0.00  0.00    +0.000 A 
ATOM     18  C   UNL     1       2.308   5.404  20.051  0.00  0.00    +0.000 A 
ATOM     19  C   UNL     1       1.630   4.294  20.517  0.00  0.00    +0.000 A 
ATOM     20  N   UNL     1       1.182   3.307  19.718  0.00  0.00    +0.000 NA
ATOM     21  C   UNL     1       1.414   3.437  18.395  0.00  0.00    +0.000 A 
ATOM     22  C   UNL     1       2.112   4.495  17.836  0.00  0.00    +0.000 A 
ENDBRANCH  15  17
ENDBRANCH  12  14
ENDBRANCH   1  12
TORSDOF 5
ENDMDL
MODEL 5
REMARK VINA RESULT:      -7.3      2.801      6.665
REMARK  Name = 
REMARK  7 active torsions:
REMARK  status: ('A' for Active; 'I' for Inactive)
REMARK    1  A    between atoms: C_1  and  C_2
REMARK    2  A    between atoms: C_2  and  C_3
REMARK    3  A    between atoms: C_6  and  S_7
REMARK    4  A    between atoms: S_7  and  N_10
REMARK    5  A    between atoms: N_10  and  N_11
REMARK    6  A    between atoms: C_12  and  C_13
REMARK    7  A    between atoms: C_12  and  C_14
REMARK                            x       y       z     vdW  Elec       q    Type
REMARK                         _______ _______ _______ _____ _____    ______ ____
ROOT
ATOM      1  S   UNL     1       3.053   3.125  18.236  0.00  0.00    +0.000 S 
ATOM      2  O   UNL     1       2.965   2.172  19.323  0.00  0.00    +0.000 OA
ATOM      3  O   UNL     1       2.271   2.992  17.025  0.00  0.00    +0.000 OA
ENDROOT
BRANCH   1   7
ATOM      4  C   UNL     1       1.991   7.259  19.888  0.00  0.00    +0.000 A 
ATOM      5  C   UNL     1       2.656   7.135  18.659  0.00  0.00    +0.000 A 
ATOM      6  C   UNL     1       3.009   5.878  18.167  0.00  0.00    +0.000 A 
ATOM      7  C   UNL     1       2.702   4.737  18.914  0.00  0.00    +0.000 A 
ATOM      8  C   UNL     1       2.043   4.843  20.142  0.00  0.00    +0.000 A 
ATOM      9  C   UNL     1       1.692   6.105  20.627  0.00  0.00    +0.000 A 
BRANCH   4  11
ATOM     10  C   UNL     1       0.461   8.492  21.441  0.00  0.00    +0.000 C 
ATOM     11  C   UNL     1       1.538   8.615  20.372  0.00  0.00    +0.000 C 
ENDBRANCH   4  11
ENDBRANCH   1   7
BRANCH   1  12
ATOM     12  N   UNL     1       4.699   3.313  17.810  0.00  0.00    +0.000 N 
ATOM     13  H   UNL     1       5.210   3.933  18.444  0.00  0.00    +0.000 HD
BRANCH  12  14
ATOM     14  N   UNL     1       5.012   3.439  16.406  0.00  0.00    +0.000 NA
ATOM     15  C   UNL     1       5.844   4.370  16.039  0.00  0.00    +0.000 C 
ATOM     16  C   UNL     1       6.057   4.530  14.545  0.00  0.00    +0.000 C 
BRANCH  15  17
ATOM     17  C   UNL     1       6.634   5.266  16.942  0.00  0.00    +0.000 A 
ATOM     18  C   UNL     1       7.366   4.733  18.004  0.00  0.00    +0.000 A 
ATOM     19  C   UNL     1       8.031   5.601  18.849  0.00  0.00    +0.000 A 
ATOM     20  N   UNL     1       8.054   6.937  18.676  0.00  0.00    +0.000 NA
ATOM     21  C   UNL     1       7.392   7.427  17.608  0.00  0.00    +0.000 A 
ATOM     22  C   UNL     1       6.669   6.643  16.723  0.00  0.00    +0.000 A 
ENDBRANCH  15  17
ENDBRANCH  12  14
ENDBRANCH   1  12
TORSDOF 5
ENDMDL
MODEL 6
REMARK VINA RESULT:      -7.2      2.863      6.811
REMARK  Name = 
REMARK  7 active torsions:
REMARK  status: ('A' for Active; 'I' for Inactive)
REMARK    1  A    between atoms: C_1  and  C_2
REMARK    2  A    between atoms: C_2  and  C_3
REMARK    3  A    between atoms: C_6  and  S_7
REMARK    4  A    between atoms: S_7  and  N_10
REMARK    5  A    between atoms: N_10  and  N_11
REMARK    6  A    between atoms: C_12  and  C_13
REMARK    7  A    between atoms: C_12  and  C_14
REMARK                            x       y       z     vdW  Elec       q    Type
REMARK                         _______ _______ _______ _____ _____    ______ ____
ROOT
ATOM      1  S   UNL     1       2.853   3.156  18.048  0.00  0.00    +0.000 S 
ATOM      2  O   UNL     1       2.695   2.115  19.042  0.00  0.00    +0.000 OA
ATOM      3  O   UNL     1       2.185   3.107  16.764  0.00  0.00    +0.000 OA
ENDROOT
BRANCH   1   7
ATOM      4  C   UNL     1       1.856   7.117  20.109  0.00  0.00    +0.000 A 
ATOM      5  C   UNL     1       1.519   5.898  20.714  0.00  0.00    +0.000 A 
ATOM      6  C   UNL     1       1.794   4.689  20.075  0.00  0.00    +0.000 A 
ATOM      7  C   UNL     1       2.402   4.700  18.817  0.00  0.00    +0.000 A 
ATOM      8  C   UNL     1       2.741   5.906  18.197  0.00  0.00    +0.000 A 
ATOM      9  C   UNL     1       2.464   7.113  18.845  0.00  0.00    +0.000 A 
BRANCH   4  11
ATOM     10  C   UNL     1       0.221   8.500  21.408  0.00  0.00    +0.000 C 
ATOM     11  C   UNL     1       1.633   8.416  20.844  0.00  0.00    +0.000 C 
ENDBRANCH   4  11
ENDBRANCH   1   7
BRANCH   1  12
ATOM     12  N   UNL     1       4.525   3.408  17.787  0.00  0.00    +0.000 N 
ATOM     13  H   UNL     1       4.918   4.139  18.386  0.00  0.00    +0.000 HD
BRANCH  12  14
ATOM     14  N   UNL     1       4.997   3.379  16.423  0.00  0.00    +0.000 NA
ATOM     15  C   UNL     1       5.909   4.237  16.066  0.00  0.00    +0.000 C 
ATOM     16  C   UNL     1       6.294   4.237  14.598  0.00  0.00    +0.000 C 
BRANCH  15  17
ATOM     17  C   UNL     1       6.636   5.190  16.963  0.00  0.00    +0.000 A 
ATOM     18  C   UNL     1       6.498   6.568  16.793  0.00  0.00    +0.000 A 
ATOM     19  C   UNL     1       7.233   7.411  17.604  0.00  0.00    +0.000 A 
ATOM     20  N   UNL     1       8.042   6.977  18.590  0.00  0.00    +0.000 NA
ATOM     21  C   UNL     1       8.114   5.643  18.780  0.00  0.00    +0.000 A 
ATOM     22  C   UNL     1       7.442   4.716  17.999  0.00  0.00    +0.000 A 
ENDBRANCH  15  17
ENDBRANCH  12  14
ENDBRANCH   1  12
TORSDOF 5
ENDMDL
MODEL 7
REMARK VINA RESULT:      -7.2      2.810      6.642
REMARK  Name = 
REMARK  7 active torsions:
REMARK  status: ('A' for Active; 'I' for Inactive)
REMARK    1  A    between atoms: C_1  and  C_2
REMARK    2  A    between atoms: C_2  and  C_3
REMARK    3  A    between atoms: C_6  and  S_7
REMARK    4  A    between atoms: S_7  and  N_10
REMARK    5  A    between atoms: N_10  and  N_11
REMARK    6  A    between atoms: C_12  and  C_13
REMARK    7  A    between atoms: C_12  and  C_14
REMARK                            x       y       z     vdW  Elec       q    Type
REMARK                         _______ _______ _______ _____ _____    ______ ____
ROOT
ATOM      1  S   UNL     1       3.088   3.085  18.341  0.00  0.00    +0.000 S 
ATOM      2  O   UNL     1       3.011   2.171  19.461  0.00  0.00    +0.000 OA
ATOM      3  O   UNL     1       2.304   2.901  17.137  0.00  0.00    +0.000 OA
ENDROOT
BRANCH   1   7
ATOM      4  C   UNL     1       2.000   7.267  19.844  0.00  0.00    +0.000 A 
ATOM      5  C   UNL     1       2.644   7.102  18.609  0.00  0.00    +0.000 A 
ATOM      6  C   UNL     1       3.005   5.831  18.161  0.00  0.00    +0.000 A 
ATOM      7  C   UNL     1       2.728   4.717  18.959  0.00  0.00    +0.000 A 
ATOM      8  C   UNL     1       2.090   4.864  20.195  0.00  0.00    +0.000 A 
ATOM      9  C   UNL     1       1.731   6.140  20.635  0.00  0.00    +0.000 A 
BRANCH   4  11
ATOM     10  C   UNL     1       0.974   8.606  21.696  0.00  0.00    +0.000 C 
ATOM     11  C   UNL     1       1.538   8.636  20.282  0.00  0.00    +0.000 C 
ENDBRANCH   4  11
ENDBRANCH   1   7
BRANCH   1  12
ATOM     12  N   UNL     1       4.732   3.268  17.902  0.00  0.00    +0.000 N 
ATOM     13  H   UNL     1       5.250   3.882  18.536  0.00  0.00    +0.000 HD
BRANCH  12  14
ATOM     14  N   UNL     1       5.035   3.400  16.497  0.00  0.00    +0.000 NA
ATOM     15  C   UNL     1       5.839   4.353  16.124  0.00  0.00    +0.000 C 
ATOM     16  C   UNL     1       6.040   4.517  14.630  0.00  0.00    +0.000 C 
BRANCH  15  17
ATOM     17  C   UNL     1       6.607   5.273  17.023  0.00  0.00    +0.000 A 
ATOM     18  C   UNL     1       6.643   6.644  16.770  0.00  0.00    +0.000 A 
ATOM     19  C   UNL     1       7.413   7.448  17.588  0.00  0.00    +0.000 A 
ATOM     20  N   UNL     1       8.094   6.987  18.655  0.00  0.00    +0.000 NA
ATOM     21  C   UNL     1       7.997   5.668  18.921  0.00  0.00    +0.000 A 
ATOM     22  C   UNL     1       7.278   4.776  18.141  0.00  0.00    +0.000 A 
ENDBRANCH  15  17
ENDBRANCH  12  14
ENDBRANCH   1  12
TORSDOF 5
ENDMDL
MODEL 8
REMARK VINA RESULT:      -7.2      2.929      6.241
REMARK  Name = 
REMARK  7 active torsions:
REMARK  status: ('A' for Active; 'I' for Inactive)
REMARK    1  A    between atoms: C_1  and  C_2
REMARK    2  A    between atoms: C_2  and  C_3
REMARK    3  A    between atoms: C_6  and  S_7
REMARK    4  A    between atoms: S_7  and  N_10
REMARK    5  A    between atoms: N_10  and  N_11
REMARK    6  A    between atoms: C_12  and  C_13
REMARK    7  A    between atoms: C_12  and  C_14
REMARK                            x       y       z     vdW  Elec       q    Type
REMARK                         _______ _______ _______ _____ _____    ______ ____
ROOT
ATOM      1  S   UNL     1       3.437   2.857  19.293  0.00  0.00    +0.000 S 
ATOM      2  O   UNL     1       3.544   2.500  20.692  0.00  0.00    +0.000 OA
ATOM      3  O   UNL     1       2.683   2.063  18.347  0.00  0.00    +0.000 OA
ENDROOT
BRANCH   1   7
ATOM      4  C   UNL     1       1.961   7.184  19.093  0.00  0.00    +0.000 A 
ATOM      5  C   UNL     1       2.185   6.567  20.332  0.00  0.00    +0.000 A 
ATOM      6  C   UNL     1       2.606   5.238  20.398  0.00  0.00    +0.000 A 
ATOM      7  C   UNL     1       2.795   4.519  19.215  0.00  0.00    +0.000 A 
ATOM      8  C   UNL     1       2.572   5.117  17.971  0.00  0.00    +0.000 A 
ATOM      9  C   UNL     1       2.153   6.448  17.914  0.00  0.00    +0.000 A 
BRANCH   4  11
ATOM     10  C   UNL     1       2.132   9.302  17.767  0.00  0.00    +0.000 C 
ATOM     11  C   UNL     1       1.589   8.645  19.029  0.00  0.00    +0.000 C 
ENDBRANCH   4  11
ENDBRANCH   1   7
BRANCH   1  12
ATOM     12  N   UNL     1       5.014   3.098  18.673  0.00  0.00    +0.000 N 
ATOM     13  H   UNL     1       5.455   2.232  18.351  0.00  0.00    +0.000 HD
BRANCH  12  14
ATOM     14  N   UNL     1       5.869   4.027  19.373  0.00  0.00    +0.000 NA
ATOM     15  C   UNL     1       6.520   4.914  18.676  0.00  0.00    +0.000 C 
ATOM     16  C   UNL     1       7.486   5.795  19.445  0.00  0.00    +0.000 C 
BRANCH  15  17
ATOM     17  C   UNL     1       6.381   5.170  17.208  0.00  0.00    +0.000 A 
ATOM     18  C   UNL     1       5.540   6.181  16.741  0.00  0.00    +0.000 A 
ATOM     19  C   UNL     1       5.395   6.344  15.377  0.00  0.00    +0.000 A 
ATOM     20  N   UNL     1       6.062   5.610  14.465  0.00  0.00    +0.000 NA
ATOM     21  C   UNL     1       6.917   4.679  14.936  0.00  0.00    +0.000 A 
ATOM     22  C   UNL     1       7.107   4.419  16.284  0.00  0.00    +0.000 A 
ENDBRANCH  15  17
ENDBRANCH  12  14
ENDBRANCH   1  12
TORSDOF 5
ENDMDL
MODEL 9
REMARK VINA RESULT:      -7.2      2.942      6.272
REMARK  Name = 
REMARK  7 active torsions:
REMARK  status: ('A' for Active; 'I' for Inactive)
REMARK    1  A    between atoms: C_1  and  C_2
REMARK    2  A    between atoms: C_2  and  C_3
REMARK    3  A    between atoms: C_6  and  S_7
REMARK    4  A    between atoms: S_7  and  N_10
REMARK    5  A    between atoms: N_10  and  N_11
REMARK    6  A    between atoms: C_12  and  C_13
REMARK    7  A    between atoms: C_12  and  C_14
REMARK                            x       y       z     vdW  Elec       q    Type
REMARK                         _______ _______ _______ _____ _____    ______ ____
ROOT
ATOM      1  S   UNL     1       3.242   2.945  19.351  0.00  0.00    +0.000 S 
ATOM      2  O   UNL     1       3.334   2.558  20.743  0.00  0.00    +0.000 OA
ATOM      3  O   UNL     1       2.449   2.204  18.393  0.00  0.00    +0.000 OA
ENDROOT
BRANCH   1   7
ATOM      4  C   UNL     1       1.971   7.339  19.234  0.00  0.00    +0.000 A 
ATOM      5  C   UNL     1       2.164   6.688  20.461  0.00  0.00    +0.000 A 
ATOM      6  C   UNL     1       2.522   5.340  20.502  0.00  0.00    +0.000 A 
ATOM      7  C   UNL     1       2.679   4.636  19.305  0.00  0.00    +0.000 A 
ATOM      8  C   UNL     1       2.487   5.268  18.073  0.00  0.00    +0.000 A 
ATOM      9  C   UNL     1       2.130   6.618  18.041  0.00  0.00    +0.000 A 
BRANCH   4  11
ATOM     10  C   UNL     1       1.789   9.375  17.787  0.00  0.00    +0.000 C 
ATOM     11  C   UNL     1       1.668   8.817  19.198  0.00  0.00    +0.000 C 
ENDBRANCH   4  11
ENDBRANCH   1   7
BRANCH   1  12
ATOM     12  N   UNL     1       4.827   3.122  18.730  0.00  0.00    +0.000 N 
ATOM     13  H   UNL     1       5.235   2.238  18.414  0.00  0.00    +0.000 HD
BRANCH  12  14
ATOM     14  N   UNL     1       5.716   4.022  19.425  0.00  0.00    +0.000 NA
ATOM     15  C   UNL     1       6.408   4.872  18.723  0.00  0.00    +0.000 C 
ATOM     16  C   UNL     1       7.406   5.721  19.488  0.00  0.00    +0.000 C 
BRANCH  15  17
ATOM     17  C   UNL     1       6.289   5.117  17.251  0.00  0.00    +0.000 A 
ATOM     18  C   UNL     1       6.967   4.306  16.340  0.00  0.00    +0.000 A 
ATOM     19  C   UNL     1       6.877   4.604  14.994  0.00  0.00    +0.000 A 
ATOM     20  N   UNL     1       6.126   5.609  14.503  0.00  0.00    +0.000 NA
ATOM     21  C   UNL     1       5.429   6.344  15.395  0.00  0.00    +0.000 A 
ATOM     22  C   UNL     1       5.479   6.144  16.765  0.00  0.00    +0.000 A 
ENDBRANCH  15  17
ENDBRANCH  12  14
ENDBRANCH   1  12
TORSDOF 5
ENDMDL
