MODEL 1
REMARK VINA RESULT:      -9.4      0.000      0.000
REMARK  Name = 
REMARK  7 active torsions:
REMARK  status: ('A' for Active; 'I' for Inactive)
REMARK    1  A    between atoms: O_1  and  C_2
REMARK    2  A    between atoms: C_6  and  C_7
REMARK    3  A    between atoms: C_8  and  C_9
REMARK    4  A    between atoms: C_9  and  C_10
REMARK    5  A    between atoms: C_10  and  N_11
REMARK    6  A    between atoms: C_14  and  C_15
REMARK    7  A    between atoms: C_15  and  C_16
REMARK                            x       y       z     vdW  Elec       q    Type
REMARK                         _______ _______ _______ _____ _____    ______ ____
ROOT
ATOM      1  C   UNL     1       7.536   7.767  17.487  0.00  0.00    +0.000 C 
ENDROOT
BRANCH   1   3
ATOM      2  C   UNL     1       8.888  10.079  18.382  0.00  0.00    +0.000 C 
ATOM      3  C   UNL     1       8.264   9.012  17.968  0.00  0.00    +0.000 C 
BRANCH   2   8
ATOM      4  C   UNL     1      11.291  15.406  18.749  0.00  0.00    +0.000 A 
ATOM      5  N   UNL     1      10.641  14.714  17.853  0.00  0.00    +0.000 NA
ATOM      6  C   UNL     1      10.379  13.510  18.476  0.00  0.00    +0.000 A 
ATOM      7  C   UNL     1       9.708  12.371  17.994  0.00  0.00    +0.000 A 
ATOM      8  C   UNL     1       9.571  11.257  18.840  0.00  0.00    +0.000 A 
ATOM      9  C   UNL     1      10.099  11.285  20.138  0.00  0.00    +0.000 A 
ATOM     10  C   UNL     1      10.774  12.408  20.636  0.00  0.00    +0.000 A 
ATOM     11  C   UNL     1      10.892  13.500  19.772  0.00  0.00    +0.000 A 
ATOM     12  N   UNL     1      11.473  14.735  19.918  0.00  0.00    +0.000 N 
ATOM     13  H   UNL     1      11.952  15.095  20.730  0.00  0.00    +0.000 HD
BRANCH   4  14
ATOM     14  O   UNL     1      11.726  16.630  18.542  0.00  0.00    +0.000 OA
ATOM     15  H   UNL     1      12.683  16.486  18.424  0.00  0.00    +0.000 HD
ENDBRANCH   4  14
ENDBRANCH   2   8
ENDBRANCH   1   3
BRANCH   1  16
ATOM     16  C   UNL     1       7.756   6.599  18.430  0.00  0.00    +0.000 C 
BRANCH  16  17
ATOM     17  N   UNL     1       6.997   5.422  17.985  0.00  0.00    +0.000 NA
ATOM     18  C   UNL     1       6.039   4.979  19.009  0.00  0.00    +0.000 C 
ATOM     19  C   UNL     1       5.253   3.759  18.550  0.00  0.00    +0.000 C 
ATOM     20  C   UNL     1       4.528   4.030  17.234  0.00  0.00    +0.000 C 
ATOM     21  C   UNL     1       5.568   4.497  16.202  0.00  0.00    +0.000 C 
ATOM     22  C   UNL     1       6.356   5.707  16.695  0.00  0.00    +0.000 C 
BRANCH  20  23
ATOM     23  C   UNL     1       3.371   5.038  17.439  0.00  0.00    +0.000 C 
BRANCH  23  24
ATOM     24  C   UNL     1       2.341   4.513  18.403  0.00  0.00    +0.000 A 
ATOM     25  C   UNL     1       2.154   5.151  19.638  0.00  0.00    +0.000 A 
ATOM     26  C   UNL     1       1.339   4.571  20.610  0.00  0.00    +0.000 A 
ATOM     27  C   UNL     1       0.685   3.371  20.343  0.00  0.00    +0.000 A 
ATOM     28  C   UNL     1       0.817   2.764  19.093  0.00  0.00    +0.000 A 
ATOM     29  C   UNL     1       1.642   3.330  18.125  0.00  0.00    +0.000 A 
ENDBRANCH  23  24
ENDBRANCH  20  23
ENDBRANCH  16  17
ENDBRANCH   1  16
TORSDOF 7
ENDMDL
MODEL 2
REMARK VINA RESULT:      -9.0      0.412      1.017
REMARK  Name = 
REMARK  7 active torsions:
REMARK  status: ('A' for Active; 'I' for Inactive)
REMARK    1  A    between atoms: O_1  and  C_2
REMARK    2  A    between atoms: C_6  and  C_7
REMARK    3  A    between atoms: C_8  and  C_9
REMARK    4  A    between atoms: C_9  and  C_10
REMARK    5  A    between atoms: C_10  and  N_11
REMARK    6  A    between atoms: C_14  and  C_15
REMARK    7  A    between atoms: C_15  and  C_16
REMARK                            x       y       z     vdW  Elec       q    Type
REMARK                         _______ _______ _______ _____ _____    ______ ____
ROOT
ATOM      1  C   UNL     1       7.281   7.618  17.333  0.00  0.00    +0.000 C 
ENDROOT
BRANCH   1   3
ATOM      2  C   UNL     1       8.745   9.835  18.289  0.00  0.00    +0.000 C 
ATOM      3  C   UNL     1       8.069   8.811  17.848  0.00  0.00    +0.000 C 
BRANCH   2   8
ATOM      4  C   UNL     1      11.607  14.924  18.733  0.00  0.00    +0.000 A 
ATOM      5  N   UNL     1      10.976  14.264  17.799  0.00  0.00    +0.000 NA
ATOM      6  C   UNL     1      10.545  13.112  18.428  0.00  0.00    +0.000 A 
ATOM      7  C   UNL     1       9.813  12.024  17.916  0.00  0.00    +0.000 A 
ATOM      8  C   UNL     1       9.495  10.959  18.776  0.00  0.00    +0.000 A 
ATOM      9  C   UNL     1       9.905  10.984  20.115  0.00  0.00    +0.000 A 
ATOM     10  C   UNL     1      10.639  12.056  20.643  0.00  0.00    +0.000 A 
ATOM     11  C   UNL     1      10.937  13.100  19.765  0.00  0.00    +0.000 A 
ATOM     12  N   UNL     1      11.619  14.281  19.931  0.00  0.00    +0.000 N 
ATOM     13  H   UNL     1      12.056  14.623  20.774  0.00  0.00    +0.000 HD
BRANCH   4  14
ATOM     14  O   UNL     1      12.175  16.094  18.534  0.00  0.00    +0.000 OA
ATOM     15  H   UNL     1      12.785  16.153  19.292  0.00  0.00    +0.000 HD
ENDBRANCH   4  14
ENDBRANCH   2   8
ENDBRANCH   1   3
BRANCH   1  16
ATOM     16  C   UNL     1       7.665   6.345  18.064  0.00  0.00    +0.000 C 
BRANCH  16  17
ATOM     17  N   UNL     1       6.877   5.206  17.573  0.00  0.00    +0.000 NA
ATOM     18  C   UNL     1       6.035   4.634  18.634  0.00  0.00    +0.000 C 
ATOM     19  C   UNL     1       5.220   3.453  18.127  0.00  0.00    +0.000 C 
ATOM     20  C   UNL     1       4.360   3.847  16.928  0.00  0.00    +0.000 C 
ATOM     21  C   UNL     1       5.284   4.445  15.853  0.00  0.00    +0.000 C 
ATOM     22  C   UNL     1       6.104   5.613  16.393  0.00  0.00    +0.000 C 
BRANCH  20  23
ATOM     23  C   UNL     1       3.219   4.801  17.357  0.00  0.00    +0.000 C 
BRANCH  23  24
ATOM     24  C   UNL     1       2.367   4.196  18.440  0.00  0.00    +0.000 A 
ATOM     25  C   UNL     1       1.715   2.975  18.215  0.00  0.00    +0.000 A 
ATOM     26  C   UNL     1       0.782   2.498  19.136  0.00  0.00    +0.000 A 
ATOM     27  C   UNL     1       0.520   3.221  20.296  0.00  0.00    +0.000 A 
ATOM     28  C   UNL     1       1.211   4.405  20.557  0.00  0.00    +0.000 A 
ATOM     29  C   UNL     1       2.131   4.894  19.633  0.00  0.00    +0.000 A 
ENDBRANCH  23  24
ENDBRANCH  20  23
ENDBRANCH  16  17
ENDBRANCH   1  16
TORSDOF 7
ENDMDL
MODEL 3
REMARK VINA RESULT:      -8.9      1.295      1.454
REMARK  Name = 
REMARK  7 active torsions:
REMARK  status: ('A' for Active; 'I' for Inactive)
REMARK    1  A    between atoms: O_1  and  C_2
REMARK    2  A    between atoms: C_6  and  C_7
REMARK    3  A    between atoms: C_8  and  C_9
REMARK    4  A    between atoms: C_9  and  C_10
REMARK    5  A    between atoms: C_10  and  N_11
REMARK    6  A    between atoms: C_14  and  C_15
REMARK    7  A    between atoms: C_15  and  C_16
REMARK                            x       y       z     vdW  Elec       q    Type
REMARK                         _______ _______ _______ _____ _____    ______ ____
ROOT
ATOM      1  C   UNL     1       8.002   7.574  18.285  0.00  0.00    +0.000 C 
ENDROOT
BRANCH   1   3
ATOM      2  C   UNL     1       8.978  10.217  18.099  0.00  0.00    +0.000 C 
ATOM      3  C   UNL     1       8.528   8.997  18.185  0.00  0.00    +0.000 C 
BRANCH   2   8
ATOM      4  C   UNL     1       9.398  16.056  17.937  0.00  0.00    +0.000 A 
ATOM      5  N   UNL     1       8.448  15.173  18.090  0.00  0.00    +0.000 NA
ATOM      6  C   UNL     1       9.098  13.956  18.017  0.00  0.00    +0.000 A 
ATOM      7  C   UNL     1       8.583  12.650  18.111  0.00  0.00    +0.000 A 
ATOM      8  C   UNL     1       9.469  11.564  18.003  0.00  0.00    +0.000 A 
ATOM      9  C   UNL     1      10.838  11.785  17.801  0.00  0.00    +0.000 A 
ATOM     10  C   UNL     1      11.370  13.077  17.700  0.00  0.00    +0.000 A 
ATOM     11  C   UNL     1      10.466  14.136  17.814  0.00  0.00    +0.000 A 
ATOM     12  N   UNL     1      10.627  15.499  17.767  0.00  0.00    +0.000 N 
ATOM     13  H   UNL     1      11.486  16.010  17.631  0.00  0.00    +0.000 HD
BRANCH   4  14
ATOM     14  O   UNL     1       9.187  17.354  17.946  0.00  0.00    +0.000 OA
ATOM     15  H   UNL     1       8.285  17.409  18.311  0.00  0.00    +0.000 HD
ENDBRANCH   4  14
ENDBRANCH   2   8
ENDBRANCH   1   3
BRANCH   1  16
ATOM     16  C   UNL     1       6.928   7.307  17.247  0.00  0.00    +0.000 C 
BRANCH  16  17
ATOM     17  N   UNL     1       6.518   5.896  17.276  0.00  0.00    +0.000 NA
ATOM     18  C   UNL     1       5.752   5.582  18.492  0.00  0.00    +0.000 C 
ATOM     19  C   UNL     1       5.328   4.121  18.524  0.00  0.00    +0.000 C 
ATOM     20  C   UNL     1       4.520   3.750  17.283  0.00  0.00    +0.000 C 
ATOM     21  C   UNL     1       5.358   4.105  16.043  0.00  0.00    +0.000 C 
ATOM     22  C   UNL     1       5.787   5.569  16.046  0.00  0.00    +0.000 C 
BRANCH  20  23
ATOM     23  C   UNL     1       3.132   4.436  17.303  0.00  0.00    +0.000 C 
BRANCH  23  24
ATOM     24  C   UNL     1       2.298   3.970  18.466  0.00  0.00    +0.000 A 
ATOM     25  C   UNL     1       1.953   4.873  19.482  0.00  0.00    +0.000 A 
ATOM     26  C   UNL     1       1.342   4.414  20.649  0.00  0.00    +0.000 A 
ATOM     27  C   UNL     1       1.044   3.062  20.792  0.00  0.00    +0.000 A 
ATOM     28  C   UNL     1       1.328   2.168  19.758  0.00  0.00    +0.000 A 
ATOM     29  C   UNL     1       1.953   2.618  18.598  0.00  0.00    +0.000 A 
ENDBRANCH  23  24
ENDBRANCH  20  23
ENDBRANCH  16  17
ENDBRANCH   1  16
TORSDOF 7
ENDMDL
MODEL 4
REMARK VINA RESULT:      -8.7      1.284      1.796
REMARK  Name = 
REMARK  7 active torsions:
REMARK  status: ('A' for Active; 'I' for Inactive)
REMARK    1  A    between atoms: O_1  and  C_2
REMARK    2  A    between atoms: C_6  and  C_7
REMARK    3  A    between atoms: C_8  and  C_9
REMARK    4  A    between atoms: C_9  and  C_10
REMARK    5  A    between atoms: C_10  and  N_11
REMARK    6  A    between atoms: C_14  and  C_15
REMARK    7  A    between atoms: C_15  and  C_16
REMARK                            x       y       z     vdW  Elec       q    Type
REMARK                         _______ _______ _______ _____ _____    ______ ____
ROOT
ATOM      1  C   UNL     1       7.657   6.735  18.478  0.00  0.00    +0.000 C 
ENDROOT
BRANCH   1   3
ATOM      2  C   UNL     1       8.881   9.270  18.708  0.00  0.00    +0.000 C 
ATOM      3  C   UNL     1       8.316   8.100  18.602  0.00  0.00    +0.000 C 
BRANCH   2   8
ATOM      4  C   UNL     1      11.627  14.312  17.556  0.00  0.00    +0.000 A 
ATOM      5  N   UNL     1      11.231  13.267  16.881  0.00  0.00    +0.000 NA
ATOM      6  C   UNL     1      10.643  12.452  17.828  0.00  0.00    +0.000 A 
ATOM      7  C   UNL     1      10.040  11.188  17.683  0.00  0.00    +0.000 A 
ATOM      8  C   UNL     1       9.507  10.559  18.821  0.00  0.00    +0.000 A 
ATOM      9  C   UNL     1       9.580  11.181  20.074  0.00  0.00    +0.000 A 
ATOM     10  C   UNL     1      10.179  12.437  20.240  0.00  0.00    +0.000 A 
ATOM     11  C   UNL     1      10.698  13.038  19.091  0.00  0.00    +0.000 A 
ATOM     12  N   UNL     1      11.337  14.236  18.883  0.00  0.00    +0.000 N 
ATOM     13  H   UNL     1      11.561  14.939  19.571  0.00  0.00    +0.000 HD
BRANCH   4  14
ATOM     14  O   UNL     1      12.243  15.337  17.008  0.00  0.00    +0.000 OA
ATOM     15  H   UNL     1      12.980  14.902  16.542  0.00  0.00    +0.000 HD
ENDBRANCH   4  14
ENDBRANCH   2   8
ENDBRANCH   1   3
BRANCH   1  16
ATOM     16  C   UNL     1       7.632   6.264  17.036  0.00  0.00    +0.000 C 
BRANCH  16  17
ATOM     17  N   UNL     1       6.277   5.841  16.653  0.00  0.00    +0.000 NA
ATOM     18  C   UNL     1       6.278   4.487  16.077  0.00  0.00    +0.000 C 
ATOM     19  C   UNL     1       4.876   4.048  15.678  0.00  0.00    +0.000 C 
ATOM     20  C   UNL     1       3.916   4.116  16.863  0.00  0.00    +0.000 C 
ATOM     21  C   UNL     1       3.958   5.544  17.433  0.00  0.00    +0.000 C 
ATOM     22  C   UNL     1       5.376   5.966  17.805  0.00  0.00    +0.000 C 
BRANCH  20  23
ATOM     23  C   UNL     1       4.254   3.026  17.910  0.00  0.00    +0.000 C 
BRANCH  23  24
ATOM     24  C   UNL     1       3.175   2.904  18.952  0.00  0.00    +0.000 A 
ATOM     25  C   UNL     1       1.832   2.816  18.558  0.00  0.00    +0.000 A 
ATOM     26  C   UNL     1       0.816   2.887  19.511  0.00  0.00    +0.000 A 
ATOM     27  C   UNL     1       1.137   3.014  20.860  0.00  0.00    +0.000 A 
ATOM     28  C   UNL     1       2.472   3.038  21.264  0.00  0.00    +0.000 A 
ATOM     29  C   UNL     1       3.490   2.984  20.316  0.00  0.00    +0.000 A 
ENDBRANCH  23  24
ENDBRANCH  20  23
ENDBRANCH  16  17
ENDBRANCH   1  16
TORSDOF 7
ENDMDL
MODEL 5
REMARK VINA RESULT:      -8.7      1.553      2.116
REMARK  Name = 
REMARK  7 active torsions:
REMARK  status: ('A' for Active; 'I' for Inactive)
REMARK    1  A    between atoms: O_1  and  C_2
REMARK    2  A    between atoms: C_6  and  C_7
REMARK    3  A    between atoms: C_8  and  C_9
REMARK    4  A    between atoms: C_9  and  C_10
REMARK    5  A    between atoms: C_10  and  N_11
REMARK    6  A    between atoms: C_14  and  C_15
REMARK    7  A    between atoms: C_15  and  C_16
REMARK                            x       y       z     vdW  Elec       q    Type
REMARK                         _______ _______ _______ _____ _____    ______ ____
ROOT
ATOM      1  C   UNL     1       8.410   8.703  18.390  0.00  0.00    +0.000 C 
ENDROOT
BRANCH   1   3
ATOM      2  C   UNL     1       9.637  11.214  17.986  0.00  0.00    +0.000 C 
ATOM      3  C   UNL     1       9.071  10.055  18.173  0.00  0.00    +0.000 C 
BRANCH   2   8
ATOM      4  C   UNL     1      10.653  16.928  17.212  0.00  0.00    +0.000 A 
ATOM      5  N   UNL     1       9.611  16.161  17.387  0.00  0.00    +0.000 NA
ATOM      6  C   UNL     1      10.139  14.890  17.500  0.00  0.00    +0.000 A 
ATOM      7  C   UNL     1       9.490  13.657  17.698  0.00  0.00    +0.000 A 
ATOM      8  C   UNL     1      10.267  12.489  17.780  0.00  0.00    +0.000 A 
ATOM      9  C   UNL     1      11.661  12.556  17.661  0.00  0.00    +0.000 A 
ATOM     10  C   UNL     1      12.327  13.773  17.459  0.00  0.00    +0.000 A 
ATOM     11  C   UNL     1      11.528  14.917  17.385  0.00  0.00    +0.000 A 
ATOM     12  N   UNL     1      11.829  16.244  17.200  0.00  0.00    +0.000 N 
ATOM     13  H   UNL     1      12.742  16.654  17.076  0.00  0.00    +0.000 HD
BRANCH   4  14
ATOM     14  O   UNL     1      10.574  18.233  17.061  0.00  0.00    +0.000 OA
ATOM     15  H   UNL     1       9.728  18.435  17.500  0.00  0.00    +0.000 HD
ENDBRANCH   4  14
ENDBRANCH   2   8
ENDBRANCH   1   3
BRANCH   1  16
ATOM     16  C   UNL     1       7.220   8.515  17.467  0.00  0.00    +0.000 C 
BRANCH  16  17
ATOM     17  N   UNL     1       7.064   7.100  17.104  0.00  0.00    +0.000 NA
ATOM     18  C   UNL     1       7.612   6.213  18.141  0.00  0.00    +0.000 C 
ATOM     19  C   UNL     1       7.453   4.747  17.766  0.00  0.00    +0.000 C 
ATOM     20  C   UNL     1       5.991   4.399  17.495  0.00  0.00    +0.000 C 
ATOM     21  C   UNL     1       5.464   5.357  16.413  0.00  0.00    +0.000 C 
ATOM     22  C   UNL     1       5.654   6.819  16.805  0.00  0.00    +0.000 C 
BRANCH  20  23
ATOM     23  C   UNL     1       5.164   4.436  18.803  0.00  0.00    +0.000 C 
BRANCH  23  24
ATOM     24  C   UNL     1       3.798   3.833  18.614  0.00  0.00    +0.000 A 
ATOM     25  C   UNL     1       2.654   4.603  18.869  0.00  0.00    +0.000 A 
ATOM     26  C   UNL     1       1.394   4.005  18.875  0.00  0.00    +0.000 A 
ATOM     27  C   UNL     1       1.268   2.647  18.596  0.00  0.00    +0.000 A 
ATOM     28  C   UNL     1       2.395   1.888  18.279  0.00  0.00    +0.000 A 
ATOM     29  C   UNL     1       3.658   2.476  18.288  0.00  0.00    +0.000 A 
ENDBRANCH  23  24
ENDBRANCH  20  23
ENDBRANCH  16  17
ENDBRANCH   1  16
TORSDOF 7
ENDMDL
MODEL 6
REMARK VINA RESULT:      -8.6      1.399      1.910
REMARK  Name = 
REMARK  7 active torsions:
REMARK  status: ('A' for Active; 'I' for Inactive)
REMARK    1  A    between atoms: O_1  and  C_2
REMARK    2  A    between atoms: C_6  and  C_7
REMARK    3  A    between atoms: C_8  and  C_9
REMARK    4  A    between atoms: C_9  and  C_10
REMARK    5  A    between atoms: C_10  and  N_11
REMARK    6  A    between atoms: C_14  and  C_15
REMARK    7  A    between atoms: C_15  and  C_16
REMARK                            x       y       z     vdW  Elec       q    Type
REMARK                         _______ _______ _______ _____ _____    ______ ____
ROOT
ATOM      1  C   UNL     1       7.630   7.466  18.078  0.00  0.00    +0.000 C 
ENDROOT
BRANCH   1   3
ATOM      2  C   UNL     1       8.832  10.022  18.090  0.00  0.00    +0.000 C 
ATOM      3  C   UNL     1       8.278   8.842  18.084  0.00  0.00    +0.000 C 
BRANCH   2   8
ATOM      4  C   UNL     1       9.754  15.802  17.947  0.00  0.00    +0.000 A 
ATOM      5  N   UNL     1       8.726  15.000  17.888  0.00  0.00    +0.000 NA
ATOM      6  C   UNL     1       9.274  13.736  17.985  0.00  0.00    +0.000 A 
ATOM      7  C   UNL     1       8.646  12.476  17.976  0.00  0.00    +0.000 A 
ATOM      8  C   UNL     1       9.441  11.323  18.092  0.00  0.00    +0.000 A 
ATOM      9  C   UNL     1      10.832  11.432  18.210  0.00  0.00    +0.000 A 
ATOM     10  C   UNL     1      11.478  12.676  18.217  0.00  0.00    +0.000 A 
ATOM     11  C   UNL     1      10.661  13.804  18.103  0.00  0.00    +0.000 A 
ATOM     12  N   UNL     1      10.940  15.149  18.075  0.00  0.00    +0.000 N 
ATOM     13  H   UNL     1      11.846  15.587  18.136  0.00  0.00    +0.000 HD
BRANCH   4  14
ATOM     14  O   UNL     1       9.654  17.113  17.889  0.00  0.00    +0.000 OA
ATOM     15  H   UNL     1       8.922  17.230  17.256  0.00  0.00    +0.000 HD
ENDBRANCH   4  14
ENDBRANCH   2   8
ENDBRANCH   1   3
BRANCH   1  16
ATOM     16  C   UNL     1       7.590   6.882  16.678  0.00  0.00    +0.000 C 
BRANCH  16  17
ATOM     17  N   UNL     1       6.281   6.269  16.410  0.00  0.00    +0.000 NA
ATOM     18  C   UNL     1       6.405   4.829  16.139  0.00  0.00    +0.000 C 
ATOM     19  C   UNL     1       5.051   4.193  15.860  0.00  0.00    +0.000 C 
ATOM     20  C   UNL     1       4.079   4.429  17.012  0.00  0.00    +0.000 C 
ATOM     21  C   UNL     1       3.990   5.945  17.261  0.00  0.00    +0.000 C 
ATOM     22  C   UNL     1       5.363   6.560  17.518  0.00  0.00    +0.000 C 
BRANCH  20  23
ATOM     23  C   UNL     1       4.503   3.625  18.266  0.00  0.00    +0.000 C 
BRANCH  23  24
ATOM     24  C   UNL     1       3.318   3.263  19.121  0.00  0.00    +0.000 A 
ATOM     25  C   UNL     1       2.076   3.014  18.521  0.00  0.00    +0.000 A 
ATOM     26  C   UNL     1       0.935   2.860  19.309  0.00  0.00    +0.000 A 
ATOM     27  C   UNL     1       1.036   2.921  20.696  0.00  0.00    +0.000 A 
ATOM     28  C   UNL     1       2.280   3.106  21.302  0.00  0.00    +0.000 A 
ATOM     29  C   UNL     1       3.419   3.278  20.519  0.00  0.00    +0.000 A 
ENDBRANCH  23  24
ENDBRANCH  20  23
ENDBRANCH  16  17
ENDBRANCH   1  16
TORSDOF 7
ENDMDL
MODEL 7
REMARK VINA RESULT:      -8.5      1.050      1.505
REMARK  Name = 
REMARK  7 active torsions:
REMARK  status: ('A' for Active; 'I' for Inactive)
REMARK    1  A    between atoms: O_1  and  C_2
REMARK    2  A    between atoms: C_6  and  C_7
REMARK    3  A    between atoms: C_8  and  C_9
REMARK    4  A    between atoms: C_9  and  C_10
REMARK    5  A    between atoms: C_10  and  N_11
REMARK    6  A    between atoms: C_14  and  C_15
REMARK    7  A    between atoms: C_15  and  C_16
REMARK                            x       y       z     vdW  Elec       q    Type
REMARK                         _______ _______ _______ _____ _____    ______ ____
ROOT
ATOM      1  C   UNL     1       7.898   7.208  18.395  0.00  0.00    +0.000 C 
ENDROOT
BRANCH   1   3
ATOM      2  C   UNL     1       9.015   9.786  18.679  0.00  0.00    +0.000 C 
ATOM      3  C   UNL     1       8.499   8.597  18.548  0.00  0.00    +0.000 C 
BRANCH   2   8
ATOM      4  C   UNL     1      10.811  14.930  20.825  0.00  0.00    +0.000 A 
ATOM      5  N   UNL     1      10.187  13.875  21.276  0.00  0.00    +0.000 NA
ATOM      6  C   UNL     1      10.106  13.034  20.183  0.00  0.00    +0.000 A 
ATOM      7  C   UNL     1       9.535  11.753  20.070  0.00  0.00    +0.000 A 
ATOM      8  C   UNL     1       9.585  11.097  18.828  0.00  0.00    +0.000 A 
ATOM      9  C   UNL     1      10.190  11.714  17.726  0.00  0.00    +0.000 A 
ATOM     10  C   UNL     1      10.761  12.991  17.816  0.00  0.00    +0.000 A 
ATOM     11  C   UNL     1      10.698  13.616  19.063  0.00  0.00    +0.000 A 
ATOM     12  N   UNL     1      11.143  14.837  19.509  0.00  0.00    +0.000 N 
ATOM     13  H   UNL     1      11.625  15.545  18.976  0.00  0.00    +0.000 HD
BRANCH   4  14
ATOM     14  O   UNL     1      11.090  15.978  21.568  0.00  0.00    +0.000 OA
ATOM     15  H   UNL     1      11.319  16.646  20.897  0.00  0.00    +0.000 HD
ENDBRANCH   4  14
ENDBRANCH   2   8
ENDBRANCH   1   3
BRANCH   1  16
ATOM     16  C   UNL     1       7.509   6.930  16.955  0.00  0.00    +0.000 C 
BRANCH  16  17
ATOM     17  N   UNL     1       6.708   5.701  16.862  0.00  0.00    +0.000 NA
ATOM     18  C   UNL     1       6.213   5.280  18.181  0.00  0.00    +0.000 C 
ATOM     19  C   UNL     1       5.384   4.007  18.087  0.00  0.00    +0.000 C 
ATOM     20  C   UNL     1       4.219   4.174  17.116  0.00  0.00    +0.000 C 
ATOM     21  C   UNL     1       4.787   4.622  15.758  0.00  0.00    +0.000 C 
ATOM     22  C   UNL     1       5.629   5.888  15.884  0.00  0.00    +0.000 C 
BRANCH  20  23
ATOM     23  C   UNL     1       3.158   5.146  17.688  0.00  0.00    +0.000 C 
BRANCH  23  24
ATOM     24  C   UNL     1       2.293   4.478  18.722  0.00  0.00    +0.000 A 
ATOM     25  C   UNL     1       2.406   4.847  20.071  0.00  0.00    +0.000 A 
ATOM     26  C   UNL     1       1.747   4.112  21.056  0.00  0.00    +0.000 A 
ATOM     27  C   UNL     1       0.949   3.029  20.698  0.00  0.00    +0.000 A 
ATOM     28  C   UNL     1       0.782   2.695  19.353  0.00  0.00    +0.000 A 
ATOM     29  C   UNL     1       1.450   3.415  18.367  0.00  0.00    +0.000 A 
ENDBRANCH  23  24
ENDBRANCH  20  23
ENDBRANCH  16  17
ENDBRANCH   1  16
TORSDOF 7
ENDMDL
MODEL 8
REMARK VINA RESULT:      -8.4      1.123      1.379
REMARK  Name = 
REMARK  7 active torsions:
REMARK  status: ('A' for Active; 'I' for Inactive)
REMARK    1  A    between atoms: O_1  and  C_2
REMARK    2  A    between atoms: C_6  and  C_7
REMARK    3  A    between atoms: C_8  and  C_9
REMARK    4  A    between atoms: C_9  and  C_10
REMARK    5  A    between atoms: C_10  and  N_11
REMARK    6  A    between atoms: C_14  and  C_15
REMARK    7  A    between atoms: C_15  and  C_16
REMARK                            x       y       z     vdW  Elec       q    Type
REMARK                         _______ _______ _______ _____ _____    ______ ____
ROOT
ATOM      1  C   UNL     1       8.172   8.084  18.174  0.00  0.00    +0.000 C 
ENDROOT
BRANCH   1   3
ATOM      2  C   UNL     1       9.393  10.606  18.532  0.00  0.00    +0.000 C 
ATOM      3  C   UNL     1       8.830   9.442  18.367  0.00  0.00    +0.000 C 
BRANCH   2   8
ATOM      4  C   UNL     1      11.499  16.006  17.702  0.00  0.00    +0.000 A 
ATOM      5  N   UNL     1      10.892  15.100  16.985  0.00  0.00    +0.000 NA
ATOM      6  C   UNL     1      10.693  14.049  17.860  0.00  0.00    +0.000 A 
ATOM      7  C   UNL     1      10.088  12.797  17.645  0.00  0.00    +0.000 A 
ATOM      8  C   UNL     1      10.009  11.891  18.716  0.00  0.00    +0.000 A 
ATOM      9  C   UNL     1      10.530  12.231  19.971  0.00  0.00    +0.000 A 
ATOM     10  C   UNL     1      11.141  13.471  20.205  0.00  0.00    +0.000 A 
ATOM     11  C   UNL     1      11.202  14.351  19.122  0.00  0.00    +0.000 A 
ATOM     12  N   UNL     1      11.714  15.619  18.988  0.00  0.00    +0.000 N 
ATOM     13  H   UNL     1      12.169  16.173  19.698  0.00  0.00    +0.000 HD
BRANCH   4  14
ATOM     14  O   UNL     1      11.868  17.176  17.229  0.00  0.00    +0.000 OA
ATOM     15  H   UNL     1      12.826  17.051  17.105  0.00  0.00    +0.000 HD
ENDBRANCH   4  14
ENDBRANCH   2   8
ENDBRANCH   1   3
BRANCH   1  16
ATOM     16  C   UNL     1       6.986   8.174  17.232  0.00  0.00    +0.000 C 
BRANCH  16  17
ATOM     17  N   UNL     1       6.500   6.832  16.881  0.00  0.00    +0.000 NA
ATOM     18  C   UNL     1       7.285   5.783  17.549  0.00  0.00    +0.000 C 
ATOM     19  C   UNL     1       6.784   4.392  17.185  0.00  0.00    +0.000 C 
ATOM     20  C   UNL     1       5.303   4.232  17.515  0.00  0.00    +0.000 C 
ATOM     21  C   UNL     1       4.529   5.354  16.802  0.00  0.00    +0.000 C 
ATOM     22  C   UNL     1       5.064   6.736  17.169  0.00  0.00    +0.000 C 
BRANCH  20  23
ATOM     23  C   UNL     1       5.078   4.209  19.047  0.00  0.00    +0.000 C 
BRANCH  23  24
ATOM     24  C   UNL     1       3.629   3.996  19.393  0.00  0.00    +0.000 A 
ATOM     25  C   UNL     1       2.917   5.000  20.064  0.00  0.00    +0.000 A 
ATOM     26  C   UNL     1       1.635   4.745  20.551  0.00  0.00    +0.000 A 
ATOM     27  C   UNL     1       1.048   3.500  20.341  0.00  0.00    +0.000 A 
ATOM     28  C   UNL     1       1.725   2.518  19.619  0.00  0.00    +0.000 A 
ATOM     29  C   UNL     1       3.012   2.761  19.145  0.00  0.00    +0.000 A 
ENDBRANCH  23  24
ENDBRANCH  20  23
ENDBRANCH  16  17
ENDBRANCH   1  16
TORSDOF 7
ENDMDL
MODEL 9
REMARK VINA RESULT:      -8.4      1.602      1.992
REMARK  Name = 
REMARK  7 active torsions:
REMARK  status: ('A' for Active; 'I' for Inactive)
REMARK    1  A    between atoms: O_1  and  C_2
REMARK    2  A    between atoms: C_6  and  C_7
REMARK    3  A    between atoms: C_8  and  C_9
REMARK    4  A    between atoms: C_9  and  C_10
REMARK    5  A    between atoms: C_10  and  N_11
REMARK    6  A    between atoms: C_14  and  C_15
REMARK    7  A    between atoms: C_15  and  C_16
REMARK                            x       y       z     vdW  Elec       q    Type
REMARK                         _______ _______ _______ _____ _____    ______ ____
ROOT
ATOM      1  C   UNL     1       8.397   8.373  18.556  0.00  0.00    +0.000 C 
ENDROOT
BRANCH   1   3
ATOM      2  C   UNL     1       9.290  11.013  18.098  0.00  0.00    +0.000 C 
ATOM      3  C   UNL     1       8.877   9.794  18.310  0.00  0.00    +0.000 C 
BRANCH   2   8
ATOM      4  C   UNL     1       9.683  16.845  17.752  0.00  0.00    +0.000 A 
ATOM      5  N   UNL     1       8.794  15.971  18.141  0.00  0.00    +0.000 NA
ATOM      6  C   UNL     1       9.403  14.749  17.933  0.00  0.00    +0.000 A 
ATOM      7  C   UNL     1       8.920  13.448  18.167  0.00  0.00    +0.000 A 
ATOM      8  C   UNL     1       9.750  12.354  17.867  0.00  0.00    +0.000 A 
ATOM      9  C   UNL     1      11.031  12.561  17.341  0.00  0.00    +0.000 A 
ATOM     10  C   UNL     1      11.530  13.848  17.096  0.00  0.00    +0.000 A 
ATOM     11  C   UNL     1      10.682  14.915  17.406  0.00  0.00    +0.000 A 
ATOM     12  N   UNL     1      10.834  16.276  17.302  0.00  0.00    +0.000 N 
ATOM     13  H   UNL     1      11.638  16.778  16.957  0.00  0.00    +0.000 HD
BRANCH   4  14
ATOM     14  O   UNL     1       9.486  18.145  17.791  0.00  0.00    +0.000 OA
ATOM     15  H   UNL     1       8.803  18.224  18.482  0.00  0.00    +0.000 HD
ENDBRANCH   4  14
ENDBRANCH   2   8
ENDBRANCH   1   3
BRANCH   1  16
ATOM     16  C   UNL     1       7.501   7.890  17.431  0.00  0.00    +0.000 C 
BRANCH  16  17
ATOM     17  N   UNL     1       7.291   6.438  17.521  0.00  0.00    +0.000 NA
ATOM     18  C   UNL     1       6.233   6.105  18.488  0.00  0.00    +0.000 C 
ATOM     19  C   UNL     1       6.015   4.603  18.584  0.00  0.00    +0.000 C 
ATOM     20  C   UNL     1       5.690   4.001  17.220  0.00  0.00    +0.000 C 
ATOM     21  C   UNL     1       6.818   4.382  16.246  0.00  0.00    +0.000 C 
ATOM     22  C   UNL     1       7.029   5.892  16.184  0.00  0.00    +0.000 C 
BRANCH  20  23
ATOM     23  C   UNL     1       4.288   4.447  16.739  0.00  0.00    +0.000 C 
BRANCH  23  24
ATOM     24  C   UNL     1       3.193   3.687  17.437  0.00  0.00    +0.000 A 
ATOM     25  C   UNL     1       2.018   4.349  17.820  0.00  0.00    +0.000 A 
ATOM     26  C   UNL     1       1.079   3.704  18.626  0.00  0.00    +0.000 A 
ATOM     27  C   UNL     1       1.295   2.388  19.025  0.00  0.00    +0.000 A 
ATOM     28  C   UNL     1       2.432   1.702  18.595  0.00  0.00    +0.000 A 
ATOM     29  C   UNL     1       3.380   2.346  17.805  0.00  0.00    +0.000 A 
ENDBRANCH  23  24
ENDBRANCH  20  23
ENDBRANCH  16  17
ENDBRANCH   1  16
TORSDOF 7
ENDMDL
