MODEL 1
REMARK VINA RESULT:      -8.8      0.000      0.000
REMARK  Name = 
REMARK  8 active torsions:
REMARK  status: ('A' for Active; 'I' for Inactive)
REMARK    1  A    between atoms: C_2  and  C_3
REMARK    2  A    between atoms: C_3  and  N_4
REMARK    3  A    between atoms: N_4  and  C_5
REMARK    4  A    between atoms: C_5  and  C_6
REMARK    5  A    between atoms: N_12  and  C_13
REMARK    6  A    between atoms: C_21  and  C_22
REMARK    7  A    between atoms: C_25  and  C_26
REMARK    8  A    between atoms: C_29  and  O_30
REMARK                            x       y       z     vdW  Elec       q    Type
REMARK                         _______ _______ _______ _____ _____    ______ ____
ROOT
ATOM      1  C   UNL     1      -0.013  10.801  21.027  0.00  0.00    +0.000 A 
ATOM      2  C   UNL     1      -0.164   9.904  22.110  0.00  0.00    +0.000 A 
ATOM      3  C   UNL     1       0.402   8.629  22.101  0.00  0.00    +0.000 A 
ATOM      4  C   UNL     1       1.106   8.272  20.983  0.00  0.00    +0.000 A 
ATOM      5  C   UNL     1       1.244   9.129  19.858  0.00  0.00    +0.000 A 
ATOM      6  C   UNL     1       0.672  10.393  19.871  0.00  0.00    +0.000 A 
ATOM      7  C   UNL     1       2.058   8.490  18.719  0.00  0.00    +0.000 C 
ATOM      8  C   UNL     1       2.333   7.188  19.389  0.00  0.00    +0.000 A 
ATOM      9  C   UNL     1       3.000   5.973  19.172  0.00  0.00    +0.000 A 
ATOM     10  N   UNL     1       2.894   5.181  20.268  0.00  0.00    +0.000 NA
ATOM     11  N   UNL     1       2.151   5.896  21.149  0.00  0.00    +0.000 N 
ATOM     12  C   UNL     1       1.807   7.090  20.641  0.00  0.00    +0.000 A 
ATOM     13  H   UNL     1       1.944   5.492  22.055  0.00  0.00    +0.000 HD
ENDROOT
BRANCH   9  14
ATOM     14  C   UNL     1       3.757   5.579  17.994  0.00  0.00    +0.000 A 
ATOM     15  C   UNL     1       4.395   6.546  17.219  0.00  0.00    +0.000 A 
ATOM     16  C   UNL     1       5.029   6.181  16.033  0.00  0.00    +0.000 A 
ATOM     17  C   UNL     1       5.085   4.843  15.599  0.00  0.00    +0.000 A 
ATOM     18  C   UNL     1       4.467   3.876  16.405  0.00  0.00    +0.000 A 
ATOM     19  C   UNL     1       3.813   4.240  17.585  0.00  0.00    +0.000 A 
BRANCH  17  20
ATOM     20  C   UNL     1       5.769   4.503  14.334  0.00  0.00    +0.000 A 
ATOM     21  C   UNL     1       5.157   3.632  13.410  0.00  0.00    +0.000 A 
ATOM     22  C   UNL     1       5.812   3.211  12.254  0.00  0.00    +0.000 A 
ATOM     23  C   UNL     1       7.085   3.689  11.986  0.00  0.00    +0.000 A 
ATOM     24  C   UNL     1       7.706   4.580  12.851  0.00  0.00    +0.000 A 
ATOM     25  C   UNL     1       7.051   4.984  14.020  0.00  0.00    +0.000 A 
BRANCH  23  26
ATOM     26  O   UNL     1       7.762   3.297  10.872  0.00  0.00    +0.000 OA
ATOM     27  H   UNL     1       8.210   2.456  11.067  0.00  0.00    +0.000 HD
ENDBRANCH  23  26
ENDBRANCH  17  20
ENDBRANCH   9  14
BRANCH   1  30
ATOM     28  O   UNL     1      -2.039  11.985  19.269  0.00  0.00    +0.000 OA
ATOM     29  C   UNL     1      -1.481  12.619  20.162  0.00  0.00    +0.000 C 
ATOM     30  N   UNL     1      -0.537  12.112  21.056  0.00  0.00    +0.000 N 
ATOM     31  H   UNL     1      -0.348  12.654  21.885  0.00  0.00    +0.000 HD
BRANCH  29  32
ATOM     32  C   UNL     1      -1.862  14.082  20.422  0.00  0.00    +0.000 C 
BRANCH  32  33
ATOM     33  N   UNL     1      -1.226  15.001  19.457  0.00  0.00    +0.000 NA
ATOM     34  H   UNL     1      -1.906  15.712  19.165  0.00  0.00    +0.000 HD
BRANCH  33  35
ATOM     35  C   UNL     1      -0.063  15.667  20.038  0.00  0.00    +0.000 C 
BRANCH  35  36
ATOM     36  C   UNL     1       0.783  16.335  18.986  0.00  0.00    +0.000 A 
ATOM     37  C   UNL     1       0.287  17.413  18.249  0.00  0.00    +0.000 A 
ATOM     38  C   UNL     1       1.115  18.019  17.317  0.00  0.00    +0.000 A 
ATOM     39  N   UNL     1       2.384  17.631  17.074  0.00  0.00    +0.000 NA
ATOM     40  C   UNL     1       2.843  16.583  17.791  0.00  0.00    +0.000 A 
ATOM     41  C   UNL     1       2.094  15.913  18.746  0.00  0.00    +0.000 A 
ENDBRANCH  35  36
ENDBRANCH  33  35
ENDBRANCH  32  33
ENDBRANCH  29  32
ENDBRANCH   1  30
TORSDOF 8
ENDMDL
MODEL 2
REMARK VINA RESULT:      -8.8      3.629     12.555
REMARK  Name = 
REMARK  8 active torsions:
REMARK  status: ('A' for Active; 'I' for Inactive)
REMARK    1  A    between atoms: C_2  and  C_3
REMARK    2  A    between atoms: C_3  and  N_4
REMARK    3  A    between atoms: N_4  and  C_5
REMARK    4  A    between atoms: C_5  and  C_6
REMARK    5  A    between atoms: N_12  and  C_13
REMARK    6  A    between atoms: C_21  and  C_22
REMARK    7  A    between atoms: C_25  and  C_26
REMARK    8  A    between atoms: C_29  and  O_30
REMARK                            x       y       z     vdW  Elec       q    Type
REMARK                         _______ _______ _______ _____ _____    ______ ____
ROOT
ATOM      1  C   UNL     1       2.207   6.573  20.069  0.00  0.00    +0.000 A 
ATOM      2  C   UNL     1       2.524   7.025  18.768  0.00  0.00    +0.000 A 
ATOM      3  C   UNL     1       2.170   8.298  18.320  0.00  0.00    +0.000 A 
ATOM      4  C   UNL     1       1.483   9.094  19.195  0.00  0.00    +0.000 A 
ATOM      5  C   UNL     1       1.109   8.660  20.495  0.00  0.00    +0.000 A 
ATOM      6  C   UNL     1       1.459   7.390  20.932  0.00  0.00    +0.000 A 
ATOM      7  C   UNL     1       0.322   9.726  21.276  0.00  0.00    +0.000 C 
ATOM      8  C   UNL     1       0.332  10.780  20.222  0.00  0.00    +0.000 A 
ATOM      9  C   UNL     1      -0.104  12.094  19.994  0.00  0.00    +0.000 A 
ATOM     10  N   UNL     1       0.293  12.510  18.766  0.00  0.00    +0.000 NA
ATOM     11  N   UNL     1       0.955  11.453  18.233  0.00  0.00    +0.000 N 
ATOM     12  C   UNL     1       0.984  10.415  19.084  0.00  0.00    +0.000 A 
ATOM     13  H   UNL     1       1.348  11.541  17.303  0.00  0.00    +0.000 HD
ENDROOT
BRANCH   9  14
ATOM     14  C   UNL     1      -0.830  12.956  20.914  0.00  0.00    +0.000 A 
ATOM     15  C   UNL     1      -2.190  12.752  21.135  0.00  0.00    +0.000 A 
ATOM     16  C   UNL     1      -2.907  13.641  21.932  0.00  0.00    +0.000 A 
ATOM     17  C   UNL     1      -2.291  14.738  22.566  0.00  0.00    +0.000 A 
ATOM     18  C   UNL     1      -0.915  14.912  22.361  0.00  0.00    +0.000 A 
ATOM     19  C   UNL     1      -0.195  14.033  21.547  0.00  0.00    +0.000 A 
BRANCH  17  20
ATOM     20  C   UNL     1      -3.092  15.655  23.403  0.00  0.00    +0.000 A 
ATOM     21  C   UNL     1      -2.455  16.643  24.181  0.00  0.00    +0.000 A 
ATOM     22  C   UNL     1      -3.167  17.460  25.057  0.00  0.00    +0.000 A 
ATOM     23  C   UNL     1      -4.543  17.324  25.140  0.00  0.00    +0.000 A 
ATOM     24  C   UNL     1      -5.213  16.391  24.360  0.00  0.00    +0.000 A 
ATOM     25  C   UNL     1      -4.491  15.559  23.497  0.00  0.00    +0.000 A 
BRANCH  23  26
ATOM     26  O   UNL     1      -5.276  18.098  25.988  0.00  0.00    +0.000 OA
ATOM     27  H   UNL     1      -5.326  18.994  25.616  0.00  0.00    +0.000 HD
ENDBRANCH  23  26
ENDBRANCH  17  20
ENDBRANCH   9  14
BRANCH   1  30
ATOM     28  O   UNL     1       0.765   4.025  19.910  0.00  0.00    +0.000 OA
ATOM     29  C   UNL     1       1.856   4.138  20.464  0.00  0.00    +0.000 C 
ATOM     30  N   UNL     1       2.613   5.307  20.547  0.00  0.00    +0.000 N 
ATOM     31  H   UNL     1       3.584   5.211  20.799  0.00  0.00    +0.000 HD
BRANCH  29  32
ATOM     32  C   UNL     1       2.540   2.908  21.076  0.00  0.00    +0.000 C 
BRANCH  32  33
ATOM     33  N   UNL     1       3.874   2.667  20.491  0.00  0.00    +0.000 NA
ATOM     34  H   UNL     1       4.290   1.835  20.923  0.00  0.00    +0.000 HD
BRANCH  33  35
ATOM     35  C   UNL     1       3.798   2.463  19.046  0.00  0.00    +0.000 C 
BRANCH  35  36
ATOM     36  C   UNL     1       4.489   3.566  18.288  0.00  0.00    +0.000 A 
ATOM     37  C   UNL     1       5.515   4.306  18.881  0.00  0.00    +0.000 A 
ATOM     38  C   UNL     1       6.147   5.286  18.133  0.00  0.00    +0.000 A 
ATOM     39  N   UNL     1       5.832   5.575  16.853  0.00  0.00    +0.000 NA
ATOM     40  C   UNL     1       4.833   4.854  16.300  0.00  0.00    +0.000 A 
ATOM     41  C   UNL     1       4.143   3.853  16.965  0.00  0.00    +0.000 A 
ENDBRANCH  35  36
ENDBRANCH  33  35
ENDBRANCH  32  33
ENDBRANCH  29  32
ENDBRANCH   1  30
TORSDOF 8
ENDMDL
MODEL 3
REMARK VINA RESULT:      -8.7      1.050      1.322
REMARK  Name = 
REMARK  8 active torsions:
REMARK  status: ('A' for Active; 'I' for Inactive)
REMARK    1  A    between atoms: C_2  and  C_3
REMARK    2  A    between atoms: C_3  and  N_4
REMARK    3  A    between atoms: N_4  and  C_5
REMARK    4  A    between atoms: C_5  and  C_6
REMARK    5  A    between atoms: N_12  and  C_13
REMARK    6  A    between atoms: C_21  and  C_22
REMARK    7  A    between atoms: C_25  and  C_26
REMARK    8  A    between atoms: C_29  and  O_30
REMARK                            x       y       z     vdW  Elec       q    Type
REMARK                         _______ _______ _______ _____ _____    ______ ____
ROOT
ATOM      1  C   UNL     1      -0.030  10.983  20.951  0.00  0.00    +0.000 A 
ATOM      2  C   UNL     1      -0.202  10.097  22.039  0.00  0.00    +0.000 A 
ATOM      3  C   UNL     1       0.351   8.816  22.046  0.00  0.00    +0.000 A 
ATOM      4  C   UNL     1       1.062   8.442  20.938  0.00  0.00    +0.000 A 
ATOM      5  C   UNL     1       1.221   9.288  19.808  0.00  0.00    +0.000 A 
ATOM      6  C   UNL     1       0.663  10.559  19.805  0.00  0.00    +0.000 A 
ATOM      7  C   UNL     1       2.040   8.632  18.683  0.00  0.00    +0.000 C 
ATOM      8  C   UNL     1       2.294   7.332  19.366  0.00  0.00    +0.000 A 
ATOM      9  C   UNL     1       2.951   6.109  19.166  0.00  0.00    +0.000 A 
ATOM     10  N   UNL     1       2.825   5.326  20.266  0.00  0.00    +0.000 NA
ATOM     11  N   UNL     1       2.080   6.056  21.134  0.00  0.00    +0.000 N 
ATOM     12  C   UNL     1       1.754   7.250  20.613  0.00  0.00    +0.000 A 
ATOM     13  H   UNL     1       1.860   5.662  22.041  0.00  0.00    +0.000 HD
ENDROOT
BRANCH   9  14
ATOM     14  C   UNL     1       3.715   5.697  17.998  0.00  0.00    +0.000 A 
ATOM     15  C   UNL     1       4.385   6.649  17.233  0.00  0.00    +0.000 A 
ATOM     16  C   UNL     1       5.029   6.270  16.057  0.00  0.00    +0.000 A 
ATOM     17  C   UNL     1       5.060   4.930  15.623  0.00  0.00    +0.000 A 
ATOM     18  C   UNL     1       4.409   3.978  16.420  0.00  0.00    +0.000 A 
ATOM     19  C   UNL     1       3.746   4.357  17.591  0.00  0.00    +0.000 A 
BRANCH  17  20
ATOM     20  C   UNL     1       5.755   4.575  14.369  0.00  0.00    +0.000 A 
ATOM     21  C   UNL     1       5.144   3.704  13.443  0.00  0.00    +0.000 A 
ATOM     22  C   UNL     1       5.807   3.268  12.297  0.00  0.00    +0.000 A 
ATOM     23  C   UNL     1       7.088   3.730  12.041  0.00  0.00    +0.000 A 
ATOM     24  C   UNL     1       7.709   4.621  12.906  0.00  0.00    +0.000 A 
ATOM     25  C   UNL     1       7.046   5.039  14.065  0.00  0.00    +0.000 A 
BRANCH  23  26
ATOM     26  O   UNL     1       7.774   3.323  10.937  0.00  0.00    +0.000 OA
ATOM     27  H   UNL     1       7.312   2.558  10.556  0.00  0.00    +0.000 HD
ENDBRANCH  23  26
ENDBRANCH  17  20
ENDBRANCH   9  14
BRANCH   1  30
ATOM     28  O   UNL     1      -2.439  12.009  19.632  0.00  0.00    +0.000 OA
ATOM     29  C   UNL     1      -1.681  12.725  20.282  0.00  0.00    +0.000 C 
ATOM     30  N   UNL     1      -0.540  12.299  20.964  0.00  0.00    +0.000 N 
ATOM     31  H   UNL     1      -0.155  12.925  21.655  0.00  0.00    +0.000 HD
BRANCH  29  32
ATOM     32  C   UNL     1      -1.997  14.215  20.465  0.00  0.00    +0.000 C 
BRANCH  32  33
ATOM     33  N   UNL     1      -0.788  15.056  20.355  0.00  0.00    +0.000 NA
ATOM     34  H   UNL     1      -0.061  14.691  20.980  0.00  0.00    +0.000 HD
BRANCH  33  35
ATOM     35  C   UNL     1      -0.272  15.077  18.988  0.00  0.00    +0.000 C 
BRANCH  35  36
ATOM     36  C   UNL     1       1.223  14.900  18.952  0.00  0.00    +0.000 A 
ATOM     37  C   UNL     1       1.794  13.756  18.388  0.00  0.00    +0.000 A 
ATOM     38  C   UNL     1       3.175  13.654  18.343  0.00  0.00    +0.000 A 
ATOM     39  N   UNL     1       4.014  14.600  18.815  0.00  0.00    +0.000 NA
ATOM     40  C   UNL     1       3.444  15.694  19.362  0.00  0.00    +0.000 A 
ATOM     41  C   UNL     1       2.075  15.890  19.451  0.00  0.00    +0.000 A 
ENDBRANCH  35  36
ENDBRANCH  33  35
ENDBRANCH  32  33
ENDBRANCH  29  32
ENDBRANCH   1  30
TORSDOF 8
ENDMDL
MODEL 4
REMARK VINA RESULT:      -8.7      0.908      1.204
REMARK  Name = 
REMARK  8 active torsions:
REMARK  status: ('A' for Active; 'I' for Inactive)
REMARK    1  A    between atoms: C_2  and  C_3
REMARK    2  A    between atoms: C_3  and  N_4
REMARK    3  A    between atoms: N_4  and  C_5
REMARK    4  A    between atoms: C_5  and  C_6
REMARK    5  A    between atoms: N_12  and  C_13
REMARK    6  A    between atoms: C_21  and  C_22
REMARK    7  A    between atoms: C_25  and  C_26
REMARK    8  A    between atoms: C_29  and  O_30
REMARK                            x       y       z     vdW  Elec       q    Type
REMARK                         _______ _______ _______ _____ _____    ______ ____
ROOT
ATOM      1  C   UNL     1      -0.273  10.979  20.790  0.00  0.00    +0.000 A 
ATOM      2  C   UNL     1      -0.421  10.136  21.916  0.00  0.00    +0.000 A 
ATOM      3  C   UNL     1       0.174   8.876  21.981  0.00  0.00    +0.000 A 
ATOM      4  C   UNL     1       0.903   8.479  20.894  0.00  0.00    +0.000 A 
ATOM      5  C   UNL     1       1.040   9.279  19.728  0.00  0.00    +0.000 A 
ATOM      6  C   UNL     1       0.439  10.529  19.667  0.00  0.00    +0.000 A 
ATOM      7  C   UNL     1       1.886   8.602  18.636  0.00  0.00    +0.000 C 
ATOM      8  C   UNL     1       2.180   7.342  19.377  0.00  0.00    +0.000 A 
ATOM      9  C   UNL     1       2.878   6.134  19.233  0.00  0.00    +0.000 A 
ATOM     10  N   UNL     1       2.772   5.397  20.367  0.00  0.00    +0.000 NA
ATOM     11  N   UNL     1       1.999   6.139  21.199  0.00  0.00    +0.000 N 
ATOM     12  C   UNL     1       1.636   7.297  20.624  0.00  0.00    +0.000 A 
ATOM     13  H   UNL     1       1.787   5.777  22.122  0.00  0.00    +0.000 HD
ENDROOT
BRANCH   9  14
ATOM     14  C   UNL     1       3.662   5.697  18.088  0.00  0.00    +0.000 A 
ATOM     15  C   UNL     1       4.409   6.621  17.362  0.00  0.00    +0.000 A 
ATOM     16  C   UNL     1       5.074   6.224  16.204  0.00  0.00    +0.000 A 
ATOM     17  C   UNL     1       5.050   4.890  15.752  0.00  0.00    +0.000 A 
ATOM     18  C   UNL     1       4.321   3.964  16.511  0.00  0.00    +0.000 A 
ATOM     19  C   UNL     1       3.637   4.363  17.662  0.00  0.00    +0.000 A 
BRANCH  17  20
ATOM     20  C   UNL     1       5.770   4.515  14.518  0.00  0.00    +0.000 A 
ATOM     21  C   UNL     1       7.010   5.113  14.211  0.00  0.00    +0.000 A 
ATOM     22  C   UNL     1       7.671   4.859  13.011  0.00  0.00    +0.000 A 
ATOM     23  C   UNL     1       7.114   3.966  12.109  0.00  0.00    +0.000 A 
ATOM     24  C   UNL     1       5.915   3.325  12.392  0.00  0.00    +0.000 A 
ATOM     25  C   UNL     1       5.246   3.599  13.589  0.00  0.00    +0.000 A 
BRANCH  23  26
ATOM     26  O   UNL     1       7.724   3.695  10.921  0.00  0.00    +0.000 OA
ATOM     27  H   UNL     1       8.617   4.076  10.944  0.00  0.00    +0.000 HD
ENDBRANCH  23  26
ENDBRANCH  17  20
ENDBRANCH   9  14
BRANCH   1  30
ATOM     28  O   UNL     1       0.252  13.243  22.578  0.00  0.00    +0.000 OA
ATOM     29  C   UNL     1      -0.554  13.300  21.652  0.00  0.00    +0.000 C 
ATOM     30  N   UNL     1      -0.827  12.277  20.743  0.00  0.00    +0.000 N 
ATOM     31  H   UNL     1      -1.309  12.530  19.894  0.00  0.00    +0.000 HD
BRANCH  29  32
ATOM     32  C   UNL     1      -1.306  14.606  21.365  0.00  0.00    +0.000 C 
BRANCH  32  33
ATOM     33  N   UNL     1      -0.453  15.601  20.685  0.00  0.00    +0.000 NA
ATOM     34  H   UNL     1       0.527  15.302  20.738  0.00  0.00    +0.000 HD
BRANCH  33  35
ATOM     35  C   UNL     1      -0.826  15.756  19.281  0.00  0.00    +0.000 C 
BRANCH  35  36
ATOM     36  C   UNL     1       0.221  16.510  18.504  0.00  0.00    +0.000 A 
ATOM     37  C   UNL     1      -0.125  17.620  17.728  0.00  0.00    +0.000 A 
ATOM     38  C   UNL     1       0.877  18.305  17.061  0.00  0.00    +0.000 A 
ATOM     39  N   UNL     1       2.182  17.964  17.112  0.00  0.00    +0.000 NA
ATOM     40  C   UNL     1       2.496  16.886  17.860  0.00  0.00    +0.000 A 
ATOM     41  C   UNL     1       1.567  16.138  18.566  0.00  0.00    +0.000 A 
ENDBRANCH  35  36
ENDBRANCH  33  35
ENDBRANCH  32  33
ENDBRANCH  29  32
ENDBRANCH   1  30
TORSDOF 8
ENDMDL
MODEL 5
REMARK VINA RESULT:      -8.6      1.114      1.587
REMARK  Name = 
REMARK  8 active torsions:
REMARK  status: ('A' for Active; 'I' for Inactive)
REMARK    1  A    between atoms: C_2  and  C_3
REMARK    2  A    between atoms: C_3  and  N_4
REMARK    3  A    between atoms: N_4  and  C_5
REMARK    4  A    between atoms: C_5  and  C_6
REMARK    5  A    between atoms: N_12  and  C_13
REMARK    6  A    between atoms: C_21  and  C_22
REMARK    7  A    between atoms: C_25  and  C_26
REMARK    8  A    between atoms: C_29  and  O_30
REMARK                            x       y       z     vdW  Elec       q    Type
REMARK                         _______ _______ _______ _____ _____    ______ ____
ROOT
ATOM      1  C   UNL     1      -0.227  11.160  20.766  0.00  0.00    +0.000 A 
ATOM      2  C   UNL     1      -0.407  10.320  21.889  0.00  0.00    +0.000 A 
ATOM      3  C   UNL     1       0.160   9.048  21.960  0.00  0.00    +0.000 A 
ATOM      4  C   UNL     1       0.894   8.635  20.882  0.00  0.00    +0.000 A 
ATOM      5  C   UNL     1       1.063   9.433  19.719  0.00  0.00    +0.000 A 
ATOM      6  C   UNL     1       0.490  10.695  19.651  0.00  0.00    +0.000 A 
ATOM      7  C   UNL     1       1.907   8.738  18.636  0.00  0.00    +0.000 C 
ATOM      8  C   UNL     1       2.165   7.472  19.380  0.00  0.00    +0.000 A 
ATOM      9  C   UNL     1       2.839   6.249  19.244  0.00  0.00    +0.000 A 
ATOM     10  N   UNL     1       2.703   5.514  20.375  0.00  0.00    +0.000 NA
ATOM     11  N   UNL     1       1.936   6.272  21.198  0.00  0.00    +0.000 N 
ATOM     12  C   UNL     1       1.605   7.438  20.620  0.00  0.00    +0.000 A 
ATOM     13  H   UNL     1       1.705   5.915  22.118  0.00  0.00    +0.000 HD
ENDROOT
BRANCH   9  14
ATOM     14  C   UNL     1       3.628   5.797  18.108  0.00  0.00    +0.000 A 
ATOM     15  C   UNL     1       4.365   6.713  17.362  0.00  0.00    +0.000 A 
ATOM     16  C   UNL     1       5.034   6.298  16.213  0.00  0.00    +0.000 A 
ATOM     17  C   UNL     1       5.025   4.955  15.789  0.00  0.00    +0.000 A 
ATOM     18  C   UNL     1       4.305   4.037  16.568  0.00  0.00    +0.000 A 
ATOM     19  C   UNL     1       3.617   4.453  17.711  0.00  0.00    +0.000 A 
BRANCH  17  20
ATOM     20  C   UNL     1       5.749   4.560  14.563  0.00  0.00    +0.000 A 
ATOM     21  C   UNL     1       7.011   5.120  14.275  0.00  0.00    +0.000 A 
ATOM     22  C   UNL     1       7.679   4.849  13.083  0.00  0.00    +0.000 A 
ATOM     23  C   UNL     1       7.107   3.977  12.170  0.00  0.00    +0.000 A 
ATOM     24  C   UNL     1       5.885   3.373  12.435  0.00  0.00    +0.000 A 
ATOM     25  C   UNL     1       5.209   3.665  13.625  0.00  0.00    +0.000 A 
BRANCH  23  26
ATOM     26  O   UNL     1       7.723   3.691  10.990  0.00  0.00    +0.000 OA
ATOM     27  H   UNL     1       8.099   4.514  10.635  0.00  0.00    +0.000 HD
ENDBRANCH  23  26
ENDBRANCH  17  20
ENDBRANCH   9  14
BRANCH   1  30
ATOM     28  O   UNL     1      -0.041  13.274  22.789  0.00  0.00    +0.000 OA
ATOM     29  C   UNL     1      -0.652  13.417  21.733  0.00  0.00    +0.000 C 
ATOM     30  N   UNL     1      -0.752  12.470  20.713  0.00  0.00    +0.000 N 
ATOM     31  H   UNL     1      -1.059  12.796  19.809  0.00  0.00    +0.000 HD
BRANCH  29  32
ATOM     32  C   UNL     1      -1.326  14.756  21.408  0.00  0.00    +0.000 C 
BRANCH  32  33
ATOM     33  N   UNL     1      -0.670  15.449  20.281  0.00  0.00    +0.000 NA
ATOM     34  H   UNL     1      -1.248  16.244  19.987  0.00  0.00    +0.000 HD
BRANCH  33  35
ATOM     35  C   UNL     1       0.657  15.938  20.651  0.00  0.00    +0.000 C 
BRANCH  35  36
ATOM     36  C   UNL     1       1.658  15.733  19.545  0.00  0.00    +0.000 A 
ATOM     37  C   UNL     1       2.216  14.473  19.311  0.00  0.00    +0.000 A 
ATOM     38  C   UNL     1       3.105  14.324  18.259  0.00  0.00    +0.000 A 
ATOM     39  N   UNL     1       3.470  15.329  17.436  0.00  0.00    +0.000 NA
ATOM     40  C   UNL     1       2.926  16.539  17.682  0.00  0.00    +0.000 A 
ATOM     41  C   UNL     1       2.027  16.789  18.707  0.00  0.00    +0.000 A 
ENDBRANCH  35  36
ENDBRANCH  33  35
ENDBRANCH  32  33
ENDBRANCH  29  32
ENDBRANCH   1  30
TORSDOF 8
ENDMDL
MODEL 6
REMARK VINA RESULT:      -8.4      3.643     12.620
REMARK  Name = 
REMARK  8 active torsions:
REMARK  status: ('A' for Active; 'I' for Inactive)
REMARK    1  A    between atoms: C_2  and  C_3
REMARK    2  A    between atoms: C_3  and  N_4
REMARK    3  A    between atoms: N_4  and  C_5
REMARK    4  A    between atoms: C_5  and  C_6
REMARK    5  A    between atoms: N_12  and  C_13
REMARK    6  A    between atoms: C_21  and  C_22
REMARK    7  A    between atoms: C_25  and  C_26
REMARK    8  A    between atoms: C_29  and  O_30
REMARK                            x       y       z     vdW  Elec       q    Type
REMARK                         _______ _______ _______ _____ _____    ______ ____
ROOT
ATOM      1  C   UNL     1       2.298   7.224  19.542  0.00  0.00    +0.000 A 
ATOM      2  C   UNL     1       2.395   7.712  18.219  0.00  0.00    +0.000 A 
ATOM      3  C   UNL     1       1.849   8.938  17.839  0.00  0.00    +0.000 A 
ATOM      4  C   UNL     1       1.195   9.651  18.807  0.00  0.00    +0.000 A 
ATOM      5  C   UNL     1       1.040   9.175  20.136  0.00  0.00    +0.000 A 
ATOM      6  C   UNL     1       1.580   7.951  20.506  0.00  0.00    +0.000 A 
ATOM      7  C   UNL     1       0.246  10.146  21.028  0.00  0.00    +0.000 C 
ATOM      8  C   UNL     1       0.005  11.196  19.998  0.00  0.00    +0.000 A 
ATOM      9  C   UNL     1      -0.598  12.454  19.848  0.00  0.00    +0.000 A 
ATOM     10  N   UNL     1      -0.408  12.914  18.587  0.00  0.00    +0.000 NA
ATOM     11  N   UNL     1       0.292  11.938  17.957  0.00  0.00    +0.000 N 
ATOM     12  C   UNL     1       0.544  10.908  18.782  0.00  0.00    +0.000 A 
ATOM     13  H   UNL     1       0.553  12.071  16.987  0.00  0.00    +0.000 HD
ENDROOT
BRANCH   9  14
ATOM     14  C   UNL     1      -1.292  13.228  20.866  0.00  0.00    +0.000 A 
ATOM     15  C   UNL     1      -2.651  13.498  20.731  0.00  0.00    +0.000 A 
ATOM     16  C   UNL     1      -3.292  14.327  21.650  0.00  0.00    +0.000 A 
ATOM     17  C   UNL     1      -2.613  14.883  22.751  0.00  0.00    +0.000 A 
ATOM     18  C   UNL     1      -1.252  14.577  22.892  0.00  0.00    +0.000 A 
ATOM     19  C   UNL     1      -0.602  13.761  21.963  0.00  0.00    +0.000 A 
BRANCH  17  20
ATOM     20  C   UNL     1      -3.333  15.757  23.699  0.00  0.00    +0.000 A 
ATOM     21  C   UNL     1      -4.742  15.808  23.686  0.00  0.00    +0.000 A 
ATOM     22  C   UNL     1      -5.453  16.692  24.495  0.00  0.00    +0.000 A 
ATOM     23  C   UNL     1      -4.760  17.519  25.364  0.00  0.00    +0.000 A 
ATOM     24  C   UNL     1      -3.374  17.470  25.438  0.00  0.00    +0.000 A 
ATOM     25  C   UNL     1      -2.665  16.595  24.608  0.00  0.00    +0.000 A 
BRANCH  23  26
ATOM     26  O   UNL     1      -5.415  18.402  26.168  0.00  0.00    +0.000 OA
ATOM     27  H   UNL     1      -6.092  17.915  26.667  0.00  0.00    +0.000 HD
ENDBRANCH  23  26
ENDBRANCH  17  20
ENDBRANCH   9  14
BRANCH   1  30
ATOM     28  O   UNL     1       2.085   4.588  18.277  0.00  0.00    +0.000 OA
ATOM     29  C   UNL     1       2.725   4.780  19.308  0.00  0.00    +0.000 C 
ATOM     30  N   UNL     1       2.898   6.010  19.944  0.00  0.00    +0.000 N 
ATOM     31  H   UNL     1       3.639   6.078  20.625  0.00  0.00    +0.000 HD
BRANCH  29  32
ATOM     32  C   UNL     1       3.488   3.625  19.968  0.00  0.00    +0.000 C 
BRANCH  32  33
ATOM     33  N   UNL     1       4.747   3.315  19.261  0.00  0.00    +0.000 NA
ATOM     34  H   UNL     1       4.565   3.250  18.254  0.00  0.00    +0.000 HD
BRANCH  33  35
ATOM     35  C   UNL     1       5.759   4.343  19.495  0.00  0.00    +0.000 C 
BRANCH  35  36
ATOM     36  C   UNL     1       6.235   4.962  18.207  0.00  0.00    +0.000 A 
ATOM     37  C   UNL     1       6.951   6.162  18.213  0.00  0.00    +0.000 A 
ATOM     38  C   UNL     1       7.401   6.675  17.007  0.00  0.00    +0.000 A 
ATOM     39  N   UNL     1       7.190   6.083  15.813  0.00  0.00    +0.000 NA
ATOM     40  C   UNL     1       6.491   4.928  15.827  0.00  0.00    +0.000 A 
ATOM     41  C   UNL     1       6.001   4.335  16.980  0.00  0.00    +0.000 A 
ENDBRANCH  35  36
ENDBRANCH  33  35
ENDBRANCH  32  33
ENDBRANCH  29  32
ENDBRANCH   1  30
TORSDOF 8
ENDMDL
MODEL 7
REMARK VINA RESULT:      -8.4      0.777      1.112
REMARK  Name = 
REMARK  8 active torsions:
REMARK  status: ('A' for Active; 'I' for Inactive)
REMARK    1  A    between atoms: C_2  and  C_3
REMARK    2  A    between atoms: C_3  and  N_4
REMARK    3  A    between atoms: N_4  and  C_5
REMARK    4  A    between atoms: C_5  and  C_6
REMARK    5  A    between atoms: N_12  and  C_13
REMARK    6  A    between atoms: C_21  and  C_22
REMARK    7  A    between atoms: C_25  and  C_26
REMARK    8  A    between atoms: C_29  and  O_30
REMARK                            x       y       z     vdW  Elec       q    Type
REMARK                         _______ _______ _______ _____ _____    ______ ____
ROOT
ATOM      1  C   UNL     1      -0.114  10.863  21.051  0.00  0.00    +0.000 A 
ATOM      2  C   UNL     1      -0.295   9.976  22.138  0.00  0.00    +0.000 A 
ATOM      3  C   UNL     1       0.263   8.697  22.150  0.00  0.00    +0.000 A 
ATOM      4  C   UNL     1       0.987   8.326  21.051  0.00  0.00    +0.000 A 
ATOM      5  C   UNL     1       1.155   9.173  19.922  0.00  0.00    +0.000 A 
ATOM      6  C   UNL     1       0.593  10.442  19.913  0.00  0.00    +0.000 A 
ATOM      7  C   UNL     1       1.988   8.520  18.806  0.00  0.00    +0.000 C 
ATOM      8  C   UNL     1       2.240   7.221  19.492  0.00  0.00    +0.000 A 
ATOM      9  C   UNL     1       2.903   5.999  19.299  0.00  0.00    +0.000 A 
ATOM     10  N   UNL     1       2.768   5.217  20.398  0.00  0.00    +0.000 NA
ATOM     11  N   UNL     1       2.011   5.944  21.257  0.00  0.00    +0.000 N 
ATOM     12  C   UNL     1       1.686   7.137  20.733  0.00  0.00    +0.000 A 
ATOM     13  H   UNL     1       1.783   5.548  22.162  0.00  0.00    +0.000 HD
ENDROOT
BRANCH   9  14
ATOM     14  C   UNL     1       3.682   5.591  18.139  0.00  0.00    +0.000 A 
ATOM     15  C   UNL     1       4.415   6.534  17.424  0.00  0.00    +0.000 A 
ATOM     16  C   UNL     1       5.074   6.164  16.254  0.00  0.00    +0.000 A 
ATOM     17  C   UNL     1       5.058   4.839  15.778  0.00  0.00    +0.000 A 
ATOM     18  C   UNL     1       4.343   3.893  16.526  0.00  0.00    +0.000 A 
ATOM     19  C   UNL     1       3.665   4.264  17.689  0.00  0.00    +0.000 A 
BRANCH  17  20
ATOM     20  C   UNL     1       5.772   4.492  14.532  0.00  0.00    +0.000 A 
ATOM     21  C   UNL     1       7.021   5.079  14.244  0.00  0.00    +0.000 A 
ATOM     22  C   UNL     1       7.678   4.854  13.035  0.00  0.00    +0.000 A 
ATOM     23  C   UNL     1       7.106   4.000  12.105  0.00  0.00    +0.000 A 
ATOM     24  C   UNL     1       5.897   3.370  12.367  0.00  0.00    +0.000 A 
ATOM     25  C   UNL     1       5.233   3.616  13.574  0.00  0.00    +0.000 A 
BRANCH  23  26
ATOM     26  O   UNL     1       7.711   3.758  10.909  0.00  0.00    +0.000 OA
ATOM     27  H   UNL     1       7.826   2.798  10.815  0.00  0.00    +0.000 HD
ENDBRANCH  23  26
ENDBRANCH  17  20
ENDBRANCH   9  14
BRANCH   1  30
ATOM     28  O   UNL     1      -2.351  11.945  19.494  0.00  0.00    +0.000 OA
ATOM     29  C   UNL     1      -1.681  12.632  20.262  0.00  0.00    +0.000 C 
ATOM     30  N   UNL     1      -0.629  12.178  21.059  0.00  0.00    +0.000 N 
ATOM     31  H   UNL     1      -0.334  12.773  21.818  0.00  0.00    +0.000 HD
BRANCH  29  32
ATOM     32  C   UNL     1      -2.024  14.113  20.469  0.00  0.00    +0.000 C 
BRANCH  32  33
ATOM     33  N   UNL     1      -0.827  14.975  20.407  0.00  0.00    +0.000 NA
ATOM     34  H   UNL     1      -0.174  14.705  21.151  0.00  0.00    +0.000 HD
BRANCH  33  35
ATOM     35  C   UNL     1      -0.149  14.858  19.117  0.00  0.00    +0.000 C 
BRANCH  35  36
ATOM     36  C   UNL     1       1.109  15.685  19.069  0.00  0.00    +0.000 A 
ATOM     37  C   UNL     1       1.217  16.864  19.812  0.00  0.00    +0.000 A 
ATOM     38  C   UNL     1       2.407  17.573  19.765  0.00  0.00    +0.000 A 
ATOM     39  N   UNL     1       3.480  17.193  19.041  0.00  0.00    +0.000 NA
ATOM     40  C   UNL     1       3.353  16.055  18.325  0.00  0.00    +0.000 A 
ATOM     41  C   UNL     1       2.207  15.277  18.308  0.00  0.00    +0.000 A 
ENDBRANCH  35  36
ENDBRANCH  33  35
ENDBRANCH  32  33
ENDBRANCH  29  32
ENDBRANCH   1  30
TORSDOF 8
ENDMDL
MODEL 8
REMARK VINA RESULT:      -8.4      3.880      6.832
REMARK  Name = 
REMARK  8 active torsions:
REMARK  status: ('A' for Active; 'I' for Inactive)
REMARK    1  A    between atoms: C_2  and  C_3
REMARK    2  A    between atoms: C_3  and  N_4
REMARK    3  A    between atoms: N_4  and  C_5
REMARK    4  A    between atoms: C_5  and  C_6
REMARK    5  A    between atoms: N_12  and  C_13
REMARK    6  A    between atoms: C_21  and  C_22
REMARK    7  A    between atoms: C_25  and  C_26
REMARK    8  A    between atoms: C_29  and  O_30
REMARK                            x       y       z     vdW  Elec       q    Type
REMARK                         _______ _______ _______ _____ _____    ______ ____
ROOT
ATOM      1  C   UNL     1      -3.129  14.068  21.373  0.00  0.00    +0.000 A 
ATOM      2  C   UNL     1      -2.301  15.051  20.784  0.00  0.00    +0.000 A 
ATOM      3  C   UNL     1      -1.126  14.722  20.109  0.00  0.00    +0.000 A 
ATOM      4  C   UNL     1      -0.795  13.396  20.052  0.00  0.00    +0.000 A 
ATOM      5  C   UNL     1      -1.578  12.383  20.668  0.00  0.00    +0.000 A 
ATOM      6  C   UNL     1      -2.744  12.718  21.343  0.00  0.00    +0.000 A 
ATOM      7  C   UNL     1      -0.985  10.975  20.485  0.00  0.00    +0.000 C 
ATOM      8  C   UNL     1       0.211  11.376  19.690  0.00  0.00    +0.000 A 
ATOM      9  C   UNL     1       1.328  10.818  19.051  0.00  0.00    +0.000 A 
ATOM     10  N   UNL     1       2.046  11.789  18.434  0.00  0.00    +0.000 NA
ATOM     11  N   UNL     1       1.385  12.942  18.707  0.00  0.00    +0.000 N 
ATOM     12  C   UNL     1       0.294  12.714  19.456  0.00  0.00    +0.000 A 
ATOM     13  H   UNL     1       1.748  13.813  18.337  0.00  0.00    +0.000 HD
ENDROOT
BRANCH   9  14
ATOM     14  C   UNL     1       1.692   9.411  18.975  0.00  0.00    +0.000 A 
ATOM     15  C   UNL     1       2.110   8.863  17.765  0.00  0.00    +0.000 A 
ATOM     16  C   UNL     1       2.356   7.495  17.668  0.00  0.00    +0.000 A 
ATOM     17  C   UNL     1       2.231   6.635  18.776  0.00  0.00    +0.000 A 
ATOM     18  C   UNL     1       1.841   7.206  19.996  0.00  0.00    +0.000 A 
ATOM     19  C   UNL     1       1.575   8.574  20.093  0.00  0.00    +0.000 A 
BRANCH  17  20
ATOM     20  C   UNL     1       2.502   5.190  18.626  0.00  0.00    +0.000 A 
ATOM     21  C   UNL     1       1.967   4.269  19.550  0.00  0.00    +0.000 A 
ATOM     22  C   UNL     1       2.281   2.912  19.499  0.00  0.00    +0.000 A 
ATOM     23  C   UNL     1       3.112   2.448  18.492  0.00  0.00    +0.000 A 
ATOM     24  C   UNL     1       3.626   3.316  17.538  0.00  0.00    +0.000 A 
ATOM     25  C   UNL     1       3.324   4.681  17.606  0.00  0.00    +0.000 A 
BRANCH  23  26
ATOM     26  O   UNL     1       3.448   1.131  18.410  0.00  0.00    +0.000 OA
ATOM     27  H   UNL     1       4.208   0.974  18.996  0.00  0.00    +0.000 HD
ENDBRANCH  23  26
ENDBRANCH  17  20
ENDBRANCH   9  14
BRANCH   1  30
ATOM     28  O   UNL     1      -3.678  14.289  24.245  0.00  0.00    +0.000 OA
ATOM     29  C   UNL     1      -4.544  14.447  23.389  0.00  0.00    +0.000 C 
ATOM     30  N   UNL     1      -4.348  14.392  22.008  0.00  0.00    +0.000 N 
ATOM     31  H   UNL     1      -5.071  14.784  21.423  0.00  0.00    +0.000 HD
BRANCH  29  32
ATOM     32  C   UNL     1      -5.976  14.814  23.800  0.00  0.00    +0.000 C 
BRANCH  32  33
ATOM     33  N   UNL     1      -6.919  13.699  23.582  0.00  0.00    +0.000 NA
ATOM     34  H   UNL     1      -7.401  13.483  24.462  0.00  0.00    +0.000 HD
BRANCH  33  35
ATOM     35  C   UNL     1      -7.916  14.030  22.566  0.00  0.00    +0.000 C 
BRANCH  35  36
ATOM     36  C   UNL     1      -7.721  13.226  21.308  0.00  0.00    +0.000 A 
ATOM     37  C   UNL     1      -7.855  13.822  20.051  0.00  0.00    +0.000 A 
ATOM     38  C   UNL     1      -7.630  13.051  18.922  0.00  0.00    +0.000 A 
ATOM     39  N   UNL     1      -7.286  11.747  18.958  0.00  0.00    +0.000 NA
ATOM     40  C   UNL     1      -7.168  11.188  20.181  0.00  0.00    +0.000 A 
ATOM     41  C   UNL     1      -7.370  11.874  21.368  0.00  0.00    +0.000 A 
ENDBRANCH  35  36
ENDBRANCH  33  35
ENDBRANCH  32  33
ENDBRANCH  29  32
ENDBRANCH   1  30
TORSDOF 8
ENDMDL
MODEL 9
REMARK VINA RESULT:      -8.4      2.458      4.405
REMARK  Name = 
REMARK  8 active torsions:
REMARK  status: ('A' for Active; 'I' for Inactive)
REMARK    1  A    between atoms: C_2  and  C_3
REMARK    2  A    between atoms: C_3  and  N_4
REMARK    3  A    between atoms: N_4  and  C_5
REMARK    4  A    between atoms: C_5  and  C_6
REMARK    5  A    between atoms: N_12  and  C_13
REMARK    6  A    between atoms: C_21  and  C_22
REMARK    7  A    between atoms: C_25  and  C_26
REMARK    8  A    between atoms: C_29  and  O_30
REMARK                            x       y       z     vdW  Elec       q    Type
REMARK                         _______ _______ _______ _____ _____    ______ ____
ROOT
ATOM      1  C   UNL     1      -0.115  11.077  21.137  0.00  0.00    +0.000 A 
ATOM      2  C   UNL     1      -0.189  10.175  22.224  0.00  0.00    +0.000 A 
ATOM      3  C   UNL     1       0.379   8.902  22.170  0.00  0.00    +0.000 A 
ATOM      4  C   UNL     1       1.006   8.553  21.005  0.00  0.00    +0.000 A 
ATOM      5  C   UNL     1       1.064   9.415  19.877  0.00  0.00    +0.000 A 
ATOM      6  C   UNL     1       0.491  10.677  19.935  0.00  0.00    +0.000 A 
ATOM      7  C   UNL     1       1.800   8.784  18.682  0.00  0.00    +0.000 C 
ATOM      8  C   UNL     1       2.125   7.479  19.326  0.00  0.00    +0.000 A 
ATOM      9  C   UNL     1       2.779   6.268  19.058  0.00  0.00    +0.000 A 
ATOM     10  N   UNL     1       2.751   5.470  20.154  0.00  0.00    +0.000 NA
ATOM     11  N   UNL     1       2.067   6.179  21.088  0.00  0.00    +0.000 N 
ATOM     12  C   UNL     1       1.685   7.375  20.610  0.00  0.00    +0.000 A 
ATOM     13  H   UNL     1       1.924   5.770  22.004  0.00  0.00    +0.000 HD
ENDROOT
BRANCH   9  14
ATOM     14  C   UNL     1       3.455   5.882  17.828  0.00  0.00    +0.000 A 
ATOM     15  C   UNL     1       3.383   4.566  17.377  0.00  0.00    +0.000 A 
ATOM     16  C   UNL     1       4.116   4.172  16.260  0.00  0.00    +0.000 A 
ATOM     17  C   UNL     1       4.912   5.079  15.533  0.00  0.00    +0.000 A 
ATOM     18  C   UNL     1       4.949   6.407  15.980  0.00  0.00    +0.000 A 
ATOM     19  C   UNL     1       4.230   6.802  17.111  0.00  0.00    +0.000 A 
BRANCH  17  20
ATOM     20  C   UNL     1       5.672   4.616  14.354  0.00  0.00    +0.000 A 
ATOM     21  C   UNL     1       5.069   3.751  13.417  0.00  0.00    +0.000 A 
ATOM     22  C   UNL     1       5.783   3.214  12.347  0.00  0.00    +0.000 A 
ATOM     23  C   UNL     1       7.112   3.568  12.177  0.00  0.00    +0.000 A 
ATOM     24  C   UNL     1       7.731   4.449  13.054  0.00  0.00    +0.000 A 
ATOM     25  C   UNL     1       7.015   4.968  14.138  0.00  0.00    +0.000 A 
BRANCH  23  26
ATOM     26  O   UNL     1       7.848   3.061  11.149  0.00  0.00    +0.000 OA
ATOM     27  H   UNL     1       7.713   3.627  10.370  0.00  0.00    +0.000 HD
ENDBRANCH  23  26
ENDBRANCH  17  20
ENDBRANCH   9  14
BRANCH   1  30
ATOM     28  O   UNL     1      -2.778  12.011  20.340  0.00  0.00    +0.000 OA
ATOM     29  C   UNL     1      -1.912  12.765  20.777  0.00  0.00    +0.000 C 
ATOM     30  N   UNL     1      -0.640  12.386  21.208  0.00  0.00    +0.000 N 
ATOM     31  H   UNL     1      -0.127  13.047  21.771  0.00  0.00    +0.000 HD
BRANCH  29  32
ATOM     32  C   UNL     1      -2.213  14.258  20.964  0.00  0.00    +0.000 C 
BRANCH  32  33
ATOM     33  N   UNL     1      -3.267  14.490  21.971  0.00  0.00    +0.000 NA
ATOM     34  H   UNL     1      -3.073  15.364  22.472  0.00  0.00    +0.000 HD
BRANCH  33  35
ATOM     35  C   UNL     1      -4.589  14.580  21.354  0.00  0.00    +0.000 C 
BRANCH  35  36
ATOM     36  C   UNL     1      -5.579  13.656  22.013  0.00  0.00    +0.000 A 
ATOM     37  C   UNL     1      -6.404  12.829  21.246  0.00  0.00    +0.000 A 
ATOM     38  C   UNL     1      -7.274  11.969  21.897  0.00  0.00    +0.000 A 
ATOM     39  N   UNL     1      -7.375  11.876  23.240  0.00  0.00    +0.000 NA
ATOM     40  C   UNL     1      -6.574  12.688  23.962  0.00  0.00    +0.000 A 
ATOM     41  C   UNL     1      -5.672  13.580  23.405  0.00  0.00    +0.000 A 
ENDBRANCH  35  36
ENDBRANCH  33  35
ENDBRANCH  32  33
ENDBRANCH  29  32
ENDBRANCH   1  30
TORSDOF 8
ENDMDL
