MODEL 1
REMARK VINA RESULT:      -5.8      0.000      0.000
REMARK  Name = 
REMARK  7 active torsions:
REMARK  status: ('A' for Active; 'I' for Inactive)
REMARK    1  A    between atoms: C_1  and  C_2
REMARK    2  A    between atoms: C_2  and  O_4
REMARK    3  A    between atoms: O_4  and  C_5
REMARK    4  A    between atoms: C_19  and  C_20
REMARK    5  A    between atoms: C_20  and  O_22
REMARK    6  A    between atoms: C_23  and  C_24
REMARK    7  A    between atoms: C_24  and  O_26
REMARK                            x       y       z     vdW  Elec       q    Type
REMARK                         _______ _______ _______ _____ _____    ______ ____
ROOT
ATOM      1  C   UNL     1       9.054  15.124  20.407  0.00  0.00    +0.000 C 
ATOM      2  C   UNL     1       9.906  15.511  19.097  0.00  0.00    +0.000 A 
ATOM      3  C   UNL     1      10.296  16.810  18.738  0.00  0.00    +0.000 A 
ATOM      4  C   UNL     1      11.088  17.030  17.609  0.00  0.00    +0.000 A 
ATOM      5  C   UNL     1      11.500  15.959  16.817  0.00  0.00    +0.000 A 
ATOM      6  C   UNL     1      11.120  14.655  17.140  0.00  0.00    +0.000 A 
ATOM      7  C   UNL     1      10.322  14.406  18.266  0.00  0.00    +0.000 A 
ATOM      8  C   UNL     1       9.981  13.003  18.701  0.00  0.00    +0.000 A 
ATOM      9  C   UNL     1       9.628  11.989  17.807  0.00  0.00    +0.000 A 
ATOM     10  C   UNL     1       9.316  10.710  18.279  0.00  0.00    +0.000 A 
ATOM     11  C   UNL     1       9.417  10.409  19.636  0.00  0.00    +0.000 A 
ATOM     12  C   UNL     1       9.742  11.408  20.546  0.00  0.00    +0.000 A 
ATOM     13  C   UNL     1       9.943  12.721  20.107  0.00  0.00    +0.000 A 
ATOM     14  C   UNL     1      10.022  13.961  21.045  0.00  0.00    +0.000 C 
ATOM     15  C   UNL     1       9.346  14.235  22.376  0.00  0.00    +0.000 C 
ATOM     16  C   UNL     1       9.126  15.717  21.854  0.00  0.00    +0.000 C 
ENDROOT
BRANCH  15  17
ATOM     17  C   UNL     1       8.207  13.326  22.874  0.00  0.00    +0.000 C 
ATOM     18  O   UNL     1       8.389  12.425  23.696  0.00  0.00    +0.000 OA
BRANCH  17  19
ATOM     19  O   UNL     1       6.981  13.474  22.317  0.00  0.00    +0.000 OA
ATOM     20  H   UNL     1       6.598  12.652  21.949  0.00  0.00    +0.000 HD
ENDBRANCH  17  19
ENDBRANCH  15  17
BRANCH  16  21
ATOM     21  C   UNL     1       7.893  16.428  22.465  0.00  0.00    +0.000 C 
ATOM     22  O   UNL     1       7.416  16.196  23.569  0.00  0.00    +0.000 OA
BRANCH  21  23
ATOM     23  O   UNL     1       7.377  17.421  21.690  0.00  0.00    +0.000 OA
ATOM     24  H   UNL     1       7.528  17.318  20.733  0.00  0.00    +0.000 HD
ENDBRANCH  21  23
ENDBRANCH  16  21
BRANCH   1  25
ATOM     25  O   UNL     1       7.712  14.659  20.027  0.00  0.00    +0.000 OA
BRANCH  25  27
ATOM     26  C   UNL     1       6.739  14.528  17.881  0.00  0.00    +0.000 C 
ATOM     27  C   UNL     1       7.093  15.397  19.051  0.00  0.00    +0.000 C 
ATOM     28  O   UNL     1       6.859  16.594  19.128  0.00  0.00    +0.000 OA
ENDBRANCH  25  27
ENDBRANCH   1  25
TORSDOF 6
ENDMDL
MODEL 2
REMARK VINA RESULT:      -5.6      9.374     11.859
REMARK  Name = 
REMARK  7 active torsions:
REMARK  status: ('A' for Active; 'I' for Inactive)
REMARK    1  A    between atoms: C_1  and  C_2
REMARK    2  A    between atoms: C_2  and  O_4
REMARK    3  A    between atoms: O_4  and  C_5
REMARK    4  A    between atoms: C_19  and  C_20
REMARK    5  A    between atoms: C_20  and  O_22
REMARK    6  A    between atoms: C_23  and  C_24
REMARK    7  A    between atoms: C_24  and  O_26
REMARK                            x       y       z     vdW  Elec       q    Type
REMARK                         _______ _______ _______ _____ _____    ______ ____
ROOT
ATOM      1  C   UNL     1       4.534   3.794  18.029  0.00  0.00    +0.000 C 
ATOM      2  C   UNL     1       5.136   4.229  16.601  0.00  0.00    +0.000 A 
ATOM      3  C   UNL     1       5.914   3.414  15.766  0.00  0.00    +0.000 A 
ATOM      4  C   UNL     1       6.337   3.869  14.516  0.00  0.00    +0.000 A 
ATOM      5  C   UNL     1       5.994   5.148  14.079  0.00  0.00    +0.000 A 
ATOM      6  C   UNL     1       5.230   5.989  14.889  0.00  0.00    +0.000 A 
ATOM      7  C   UNL     1       4.795   5.559  16.151  0.00  0.00    +0.000 A 
ATOM      8  C   UNL     1       3.884   6.401  17.006  0.00  0.00    +0.000 A 
ATOM      9  C   UNL     1       4.035   7.783  17.156  0.00  0.00    +0.000 A 
ATOM     10  C   UNL     1       3.157   8.504  17.971  0.00  0.00    +0.000 A 
ATOM     11  C   UNL     1       2.081   7.872  18.591  0.00  0.00    +0.000 A 
ATOM     12  C   UNL     1       1.925   6.495  18.476  0.00  0.00    +0.000 A 
ATOM     13  C   UNL     1       2.860   5.739  17.761  0.00  0.00    +0.000 A 
ATOM     14  C   UNL     1       2.955   4.185  17.806  0.00  0.00    +0.000 C 
ATOM     15  C   UNL     1       2.634   3.210  18.922  0.00  0.00    +0.000 C 
ATOM     16  C   UNL     1       3.937   2.420  18.483  0.00  0.00    +0.000 C 
ENDROOT
BRANCH  15  17
ATOM     17  C   UNL     1       2.384   3.718  20.354  0.00  0.00    +0.000 C 
ATOM     18  O   UNL     1       1.425   3.345  21.033  0.00  0.00    +0.000 OA
BRANCH  17  19
ATOM     19  O   UNL     1       3.207   4.675  20.845  0.00  0.00    +0.000 OA
ATOM     20  H   UNL     1       3.966   4.897  20.268  0.00  0.00    +0.000 HD
ENDBRANCH  17  19
ENDBRANCH  15  17
BRANCH  16  21
ATOM     21  C   UNL     1       4.610   1.620  19.626  0.00  0.00    +0.000 C 
ATOM     22  O   UNL     1       4.846   2.050  20.748  0.00  0.00    +0.000 OA
BRANCH  21  23
ATOM     23  O   UNL     1       4.883   0.322  19.316  0.00  0.00    +0.000 OA
ATOM     24  H   UNL     1       5.796   0.153  19.020  0.00  0.00    +0.000 HD
ENDBRANCH  21  23
ENDBRANCH  16  21
BRANCH   1  25
ATOM     25  O   UNL     1       5.198   4.535  19.112  0.00  0.00    +0.000 OA
BRANCH  25  27
ATOM     26  C   UNL     1       6.764   6.297  19.208  0.00  0.00    +0.000 C 
ATOM     27  C   UNL     1       6.511   4.856  18.881  0.00  0.00    +0.000 C 
ATOM     28  O   UNL     1       7.355   4.073  18.470  0.00  0.00    +0.000 OA
ENDBRANCH  25  27
ENDBRANCH   1  25
TORSDOF 6
ENDMDL
MODEL 3
REMARK VINA RESULT:      -5.6      8.259     10.858
REMARK  Name = 
REMARK  7 active torsions:
REMARK  status: ('A' for Active; 'I' for Inactive)
REMARK    1  A    between atoms: C_1  and  C_2
REMARK    2  A    between atoms: C_2  and  O_4
REMARK    3  A    between atoms: O_4  and  C_5
REMARK    4  A    between atoms: C_19  and  C_20
REMARK    5  A    between atoms: C_20  and  O_22
REMARK    6  A    between atoms: C_23  and  C_24
REMARK    7  A    between atoms: C_24  and  O_26
REMARK                            x       y       z     vdW  Elec       q    Type
REMARK                         _______ _______ _______ _____ _____    ______ ____
ROOT
ATOM      1  C   UNL     1       0.521  12.579  20.311  0.00  0.00    +0.000 C 
ATOM      2  C   UNL     1       0.280  11.344  21.315  0.00  0.00    +0.000 A 
ATOM      3  C   UNL     1       1.089  10.202  21.404  0.00  0.00    +0.000 A 
ATOM      4  C   UNL     1       0.825   9.213  22.355  0.00  0.00    +0.000 A 
ATOM      5  C   UNL     1      -0.252   9.346  23.230  0.00  0.00    +0.000 A 
ATOM      6  C   UNL     1      -1.084  10.465  23.160  0.00  0.00    +0.000 A 
ATOM      7  C   UNL     1      -0.844  11.471  22.213  0.00  0.00    +0.000 A 
ATOM      8  C   UNL     1      -1.659  12.739  22.179  0.00  0.00    +0.000 A 
ATOM      9  C   UNL     1      -3.045  12.764  22.352  0.00  0.00    +0.000 A 
ATOM     10  C   UNL     1      -3.741  13.976  22.302  0.00  0.00    +0.000 A 
ATOM     11  C   UNL     1      -3.059  15.180  22.147  0.00  0.00    +0.000 A 
ATOM     12  C   UNL     1      -1.683  15.179  21.948  0.00  0.00    +0.000 A 
ATOM     13  C   UNL     1      -0.984  13.969  21.878  0.00  0.00    +0.000 A 
ATOM     14  C   UNL     1       0.483  13.827  21.376  0.00  0.00    +0.000 C 
ATOM     15  C   UNL     1       1.255  14.631  20.347  0.00  0.00    +0.000 C 
ATOM     16  C   UNL     1       1.861  13.249  19.858  0.00  0.00    +0.000 C 
ENDROOT
BRANCH  15  17
ATOM     17  C   UNL     1       0.523  15.619  19.420  0.00  0.00    +0.000 C 
ATOM     18  O   UNL     1       0.680  16.839  19.494  0.00  0.00    +0.000 OA
BRANCH  17  19
ATOM     19  O   UNL     1      -0.392  15.123  18.552  0.00  0.00    +0.000 OA
ATOM     20  H   UNL     1      -0.900  14.356  18.888  0.00  0.00    +0.000 HD
ENDBRANCH  17  19
ENDBRANCH  15  17
BRANCH  16  21
ATOM     21  C   UNL     1       2.275  13.230  18.366  0.00  0.00    +0.000 C 
ATOM     22  O   UNL     1       2.623  14.207  17.715  0.00  0.00    +0.000 OA
BRANCH  21  23
ATOM     23  O   UNL     1       2.289  11.990  17.803  0.00  0.00    +0.000 OA
ATOM     24  H   UNL     1       3.100  11.770  17.312  0.00  0.00    +0.000 HD
ENDBRANCH  21  23
ENDBRANCH  16  21
BRANCH   1  25
ATOM     25  O   UNL     1      -0.534  12.620  19.286  0.00  0.00    +0.000 OA
BRANCH  25  27
ATOM     26  C   UNL     1      -2.360  11.207  18.802  0.00  0.00    +0.000 C 
ATOM     27  C   UNL     1      -0.875  11.405  18.751  0.00  0.00    +0.000 C 
ATOM     28  O   UNL     1      -0.078  10.599  18.292  0.00  0.00    +0.000 OA
ENDBRANCH  25  27
ENDBRANCH   1  25
TORSDOF 6
ENDMDL
MODEL 4
REMARK VINA RESULT:      -5.6      2.109      4.963
REMARK  Name = 
REMARK  7 active torsions:
REMARK  status: ('A' for Active; 'I' for Inactive)
REMARK    1  A    between atoms: C_1  and  C_2
REMARK    2  A    between atoms: C_2  and  O_4
REMARK    3  A    between atoms: O_4  and  C_5
REMARK    4  A    between atoms: C_19  and  C_20
REMARK    5  A    between atoms: C_20  and  O_22
REMARK    6  A    between atoms: C_23  and  C_24
REMARK    7  A    between atoms: C_24  and  O_26
REMARK                            x       y       z     vdW  Elec       q    Type
REMARK                         _______ _______ _______ _____ _____    ______ ____
ROOT
ATOM      1  C   UNL     1      10.048  14.740  19.025  0.00  0.00    +0.000 C 
ATOM      2  C   UNL     1       9.739  13.171  19.214  0.00  0.00    +0.000 A 
ATOM      3  C   UNL     1       9.778  12.209  18.194  0.00  0.00    +0.000 A 
ATOM      4  C   UNL     1       9.553  10.860  18.477  0.00  0.00    +0.000 A 
ATOM      5  C   UNL     1       9.281  10.449  19.781  0.00  0.00    +0.000 A 
ATOM      6  C   UNL     1       9.224  11.382  20.818  0.00  0.00    +0.000 A 
ATOM      7  C   UNL     1       9.443  12.744  20.561  0.00  0.00    +0.000 A 
ATOM      8  C   UNL     1       9.492  13.762  21.672  0.00  0.00    +0.000 A 
ATOM      9  C   UNL     1       8.603  13.762  22.750  0.00  0.00    +0.000 A 
ATOM     10  C   UNL     1       8.699  14.742  23.744  0.00  0.00    +0.000 A 
ATOM     11  C   UNL     1       9.720  15.689  23.710  0.00  0.00    +0.000 A 
ATOM     12  C   UNL     1      10.600  15.724  22.635  0.00  0.00    +0.000 A 
ATOM     13  C   UNL     1      10.448  14.827  21.572  0.00  0.00    +0.000 A 
ATOM     14  C   UNL     1      11.174  14.954  20.201  0.00  0.00    +0.000 C 
ATOM     15  C   UNL     1      11.628  16.183  19.437  0.00  0.00    +0.000 C 
ATOM     16  C   UNL     1      11.120  15.445  18.128  0.00  0.00    +0.000 C 
ENDROOT
BRANCH  15  17
ATOM     17  C   UNL     1      11.157  17.586  19.864  0.00  0.00    +0.000 C 
ATOM     18  O   UNL     1      10.023  17.802  20.296  0.00  0.00    +0.000 OA
BRANCH  17  19
ATOM     19  O   UNL     1      12.001  18.629  19.673  0.00  0.00    +0.000 OA
ATOM     20  H   UNL     1      11.586  19.511  19.760  0.00  0.00    +0.000 HD
ENDBRANCH  17  19
ENDBRANCH  15  17
BRANCH  16  21
ATOM     21  C   UNL     1      10.676  16.400  16.992  0.00  0.00    +0.000 C 
ATOM     22  O   UNL     1      10.350  17.571  17.138  0.00  0.00    +0.000 OA
BRANCH  21  23
ATOM     23  O   UNL     1      10.731  15.852  15.746  0.00  0.00    +0.000 OA
ATOM     24  H   UNL     1       9.871  15.585  15.376  0.00  0.00    +0.000 HD
ENDBRANCH  21  23
ENDBRANCH  16  21
BRANCH   1  25
ATOM     25  O   UNL     1       8.820  15.529  19.206  0.00  0.00    +0.000 OA
BRANCH  25  27
ATOM     26  C   UNL     1       6.576  14.865  19.512  0.00  0.00    +0.000 C 
ATOM     27  C   UNL     1       7.715  15.047  18.553  0.00  0.00    +0.000 C 
ATOM     28  O   UNL     1       7.665  14.805  17.356  0.00  0.00    +0.000 OA
ENDBRANCH  25  27
ENDBRANCH   1  25
TORSDOF 6
ENDMDL
MODEL 5
REMARK VINA RESULT:      -5.5      2.521      4.922
REMARK  Name = 
REMARK  7 active torsions:
REMARK  status: ('A' for Active; 'I' for Inactive)
REMARK    1  A    between atoms: C_1  and  C_2
REMARK    2  A    between atoms: C_2  and  O_4
REMARK    3  A    between atoms: O_4  and  C_5
REMARK    4  A    between atoms: C_19  and  C_20
REMARK    5  A    between atoms: C_20  and  O_22
REMARK    6  A    between atoms: C_23  and  C_24
REMARK    7  A    between atoms: C_24  and  O_26
REMARK                            x       y       z     vdW  Elec       q    Type
REMARK                         _______ _______ _______ _____ _____    ______ ____
ROOT
ATOM      1  C   UNL     1       9.249  14.133  18.627  0.00  0.00    +0.000 C 
ATOM      2  C   UNL     1       7.707  14.597  18.632  0.00  0.00    +0.000 A 
ATOM      3  C   UNL     1       6.961  14.940  17.496  0.00  0.00    +0.000 A 
ATOM      4  C   UNL     1       5.608  15.272  17.603  0.00  0.00    +0.000 A 
ATOM      5  C   UNL     1       4.979  15.270  18.848  0.00  0.00    +0.000 A 
ATOM      6  C   UNL     1       5.697  14.944  20.001  0.00  0.00    +0.000 A 
ATOM      7  C   UNL     1       7.057  14.611  19.921  0.00  0.00    +0.000 A 
ATOM      8  C   UNL     1       7.833  14.154  21.130  0.00  0.00    +0.000 A 
ATOM      9  C   UNL     1       7.704  14.743  22.390  0.00  0.00    +0.000 A 
ATOM     10  C   UNL     1       8.461  14.274  23.469  0.00  0.00    +0.000 A 
ATOM     11  C   UNL     1       9.302  13.173  23.321  0.00  0.00    +0.000 A 
ATOM     12  C   UNL     1       9.465  12.587  22.072  0.00  0.00    +0.000 A 
ATOM     13  C   UNL     1       8.806  13.114  20.956  0.00  0.00    +0.000 A 
ATOM     14  C   UNL     1       9.130  12.736  19.481  0.00  0.00    +0.000 C 
ATOM     15  C   UNL     1      10.438  12.318  18.835  0.00  0.00    +0.000 C 
ATOM     16  C   UNL     1      10.014  13.226  17.606  0.00  0.00    +0.000 C 
ENDROOT
BRANCH  15  17
ATOM     17  C   UNL     1      11.768  12.474  19.595  0.00  0.00    +0.000 C 
ATOM     18  O   UNL     1      12.317  11.533  20.172  0.00  0.00    +0.000 OA
BRANCH  17  19
ATOM     19  O   UNL     1      12.302  13.714  19.701  0.00  0.00    +0.000 OA
ATOM     20  H   UNL     1      13.274  13.751  19.595  0.00  0.00    +0.000 HD
ENDBRANCH  17  19
ENDBRANCH  15  17
BRANCH  16  21
ATOM     21  C   UNL     1      11.207  13.799  16.800  0.00  0.00    +0.000 C 
ATOM     22  O   UNL     1      12.304  13.269  16.684  0.00  0.00    +0.000 OA
BRANCH  21  23
ATOM     23  O   UNL     1      10.933  14.960  16.141  0.00  0.00    +0.000 OA
ATOM     24  H   UNL     1      10.759  15.728  16.715  0.00  0.00    +0.000 HD
ENDBRANCH  21  23
ENDBRANCH  16  21
BRANCH   1  25
ATOM     25  O   UNL     1      10.095  15.160  19.254  0.00  0.00    +0.000 OA
BRANCH  25  27
ATOM     26  C   UNL     1       9.507  17.282  20.101  0.00  0.00    +0.000 C 
ATOM     27  C   UNL     1       9.812  16.451  18.891  0.00  0.00    +0.000 C 
ATOM     28  O   UNL     1       9.813  16.865  17.741  0.00  0.00    +0.000 OA
ENDBRANCH  25  27
ENDBRANCH   1  25
TORSDOF 6
ENDMDL
MODEL 6
REMARK VINA RESULT:      -5.5      0.987      1.106
REMARK  Name = 
REMARK  7 active torsions:
REMARK  status: ('A' for Active; 'I' for Inactive)
REMARK    1  A    between atoms: C_1  and  C_2
REMARK    2  A    between atoms: C_2  and  O_4
REMARK    3  A    between atoms: O_4  and  C_5
REMARK    4  A    between atoms: C_19  and  C_20
REMARK    5  A    between atoms: C_20  and  O_22
REMARK    6  A    between atoms: C_23  and  C_24
REMARK    7  A    between atoms: C_24  and  O_26
REMARK                            x       y       z     vdW  Elec       q    Type
REMARK                         _______ _______ _______ _____ _____    ______ ____
ROOT
ATOM      1  C   UNL     1       8.960  14.582  21.301  0.00  0.00    +0.000 C 
ATOM      2  C   UNL     1       9.931  15.244  20.200  0.00  0.00    +0.000 A 
ATOM      3  C   UNL     1      10.394  16.568  20.220  0.00  0.00    +0.000 A 
ATOM      4  C   UNL     1      11.285  17.026  19.247  0.00  0.00    +0.000 A 
ATOM      5  C   UNL     1      11.725  16.173  18.236  0.00  0.00    +0.000 A 
ATOM      6  C   UNL     1      11.275  14.852  18.182  0.00  0.00    +0.000 A 
ATOM      7  C   UNL     1      10.378  14.367  19.144  0.00  0.00    +0.000 A 
ATOM      8  C   UNL     1       9.954  12.920  19.175  0.00  0.00    +0.000 A 
ATOM      9  C   UNL     1       9.642  12.189  18.025  0.00  0.00    +0.000 A 
ATOM     10  C   UNL     1       9.249  10.851  18.126  0.00  0.00    +0.000 A 
ATOM     11  C   UNL     1       9.225  10.209  19.362  0.00  0.00    +0.000 A 
ATOM     12  C   UNL     1       9.507  10.922  20.521  0.00  0.00    +0.000 A 
ATOM     13  C   UNL     1       9.789  12.290  20.453  0.00  0.00    +0.000 A 
ATOM     14  C   UNL     1       9.831  13.244  21.683  0.00  0.00    +0.000 C 
ATOM     15  C   UNL     1       9.056  13.204  22.987  0.00  0.00    +0.000 C 
ATOM     16  C   UNL     1       8.931  14.780  22.853  0.00  0.00    +0.000 C 
ENDROOT
BRANCH  15  17
ATOM     17  C   UNL     1       7.849  12.261  23.149  0.00  0.00    +0.000 C 
ATOM     18  O   UNL     1       7.936  11.161  23.698  0.00  0.00    +0.000 OA
BRANCH  17  19
ATOM     19  O   UNL     1       6.672  12.628  22.587  0.00  0.00    +0.000 OA
ATOM     20  H   UNL     1       6.244  13.403  23.004  0.00  0.00    +0.000 HD
ENDBRANCH  17  19
ENDBRANCH  15  17
BRANCH  16  21
ATOM     21  C   UNL     1       7.675  15.377  23.537  0.00  0.00    +0.000 C 
ATOM     22  O   UNL     1       7.084  14.883  24.489  0.00  0.00    +0.000 OA
BRANCH  21  23
ATOM     23  O   UNL     1       7.280  16.579  23.033  0.00  0.00    +0.000 OA
ATOM     24  H   UNL     1       6.950  16.552  22.116  0.00  0.00    +0.000 HD
ENDBRANCH  21  23
ENDBRANCH  16  21
BRANCH   1  25
ATOM     25  O   UNL     1       7.639  14.303  20.717  0.00  0.00    +0.000 OA
BRANCH  25  27
ATOM     26  C   UNL     1       6.842  14.792  18.551  0.00  0.00    +0.000 C 
ATOM     27  C   UNL     1       7.125  15.303  19.932  0.00  0.00    +0.000 C 
ATOM     28  O   UNL     1       6.923  16.447  20.309  0.00  0.00    +0.000 OA
ENDBRANCH  25  27
ENDBRANCH   1  25
TORSDOF 6
ENDMDL
MODEL 7
REMARK VINA RESULT:      -5.4      8.933     11.230
REMARK  Name = 
REMARK  7 active torsions:
REMARK  status: ('A' for Active; 'I' for Inactive)
REMARK    1  A    between atoms: C_1  and  C_2
REMARK    2  A    between atoms: C_2  and  O_4
REMARK    3  A    between atoms: O_4  and  C_5
REMARK    4  A    between atoms: C_19  and  C_20
REMARK    5  A    between atoms: C_20  and  O_22
REMARK    6  A    between atoms: C_23  and  C_24
REMARK    7  A    between atoms: C_24  and  O_26
REMARK                            x       y       z     vdW  Elec       q    Type
REMARK                         _______ _______ _______ _____ _____    ______ ____
ROOT
ATOM      1  C   UNL     1      -0.263  13.385  20.980  0.00  0.00    +0.000 C 
ATOM      2  C   UNL     1      -0.089  11.862  21.471  0.00  0.00    +0.000 A 
ATOM      3  C   UNL     1       0.838  10.944  20.954  0.00  0.00    +0.000 A 
ATOM      4  C   UNL     1       0.949   9.661  21.494  0.00  0.00    +0.000 A 
ATOM      5  C   UNL     1       0.134   9.271  22.556  0.00  0.00    +0.000 A 
ATOM      6  C   UNL     1      -0.807  10.156  23.086  0.00  0.00    +0.000 A 
ATOM      7  C   UNL     1      -0.941  11.449  22.561  0.00  0.00    +0.000 A 
ATOM      8  C   UNL     1      -1.872  12.463  23.176  0.00  0.00    +0.000 A 
ATOM      9  C   UNL     1      -3.157  12.148  23.627  0.00  0.00    +0.000 A 
ATOM     10  C   UNL     1      -3.972  13.139  24.182  0.00  0.00    +0.000 A 
ATOM     11  C   UNL     1      -3.495  14.436  24.356  0.00  0.00    +0.000 A 
ATOM     12  C   UNL     1      -2.230  14.779  23.893  0.00  0.00    +0.000 A 
ATOM     13  C   UNL     1      -1.444  13.831  23.229  0.00  0.00    +0.000 A 
ATOM     14  C   UNL     1      -0.156  14.165  22.420  0.00  0.00    +0.000 C 
ATOM     15  C   UNL     1       0.220  15.407  21.635  0.00  0.00    +0.000 C 
ATOM     16  C   UNL     1       0.826  14.424  20.548  0.00  0.00    +0.000 C 
ENDROOT
BRANCH  15  17
ATOM     17  C   UNL     1      -0.838  16.481  21.322  0.00  0.00    +0.000 C 
ATOM     18  O   UNL     1      -0.709  17.660  21.662  0.00  0.00    +0.000 OA
BRANCH  17  19
ATOM     19  O   UNL     1      -1.989  16.090  20.724  0.00  0.00    +0.000 OA
ATOM     20  H   UNL     1      -2.258  16.636  19.958  0.00  0.00    +0.000 HD
ENDBRANCH  17  19
ENDBRANCH  15  17
BRANCH  16  21
ATOM     21  C   UNL     1       0.828  14.995  19.108  0.00  0.00    +0.000 C 
ATOM     22  O   UNL     1       1.825  15.185  18.423  0.00  0.00    +0.000 OA
BRANCH  21  23
ATOM     23  O   UNL     1      -0.412  15.229  18.595  0.00  0.00    +0.000 OA
ATOM     24  H   UNL     1      -0.454  15.272  17.623  0.00  0.00    +0.000 HD
ENDBRANCH  21  23
ENDBRANCH  16  21
BRANCH   1  25
ATOM     25  O   UNL     1      -1.549  13.557  20.287  0.00  0.00    +0.000 OA
BRANCH  25  27
ATOM     26  C   UNL     1      -3.178  11.997  19.594  0.00  0.00    +0.000 C 
ATOM     27  C   UNL     1      -1.832  12.608  19.339  0.00  0.00    +0.000 C 
ATOM     28  O   UNL     1      -1.093  12.308  18.414  0.00  0.00    +0.000 OA
ENDBRANCH  25  27
ENDBRANCH   1  25
TORSDOF 6
ENDMDL
MODEL 8
REMARK VINA RESULT:      -5.3      2.009      4.787
REMARK  Name = 
REMARK  7 active torsions:
REMARK  status: ('A' for Active; 'I' for Inactive)
REMARK    1  A    between atoms: C_1  and  C_2
REMARK    2  A    between atoms: C_2  and  O_4
REMARK    3  A    between atoms: O_4  and  C_5
REMARK    4  A    between atoms: C_19  and  C_20
REMARK    5  A    between atoms: C_20  and  O_22
REMARK    6  A    between atoms: C_23  and  C_24
REMARK    7  A    between atoms: C_24  and  O_26
REMARK                            x       y       z     vdW  Elec       q    Type
REMARK                         _______ _______ _______ _____ _____    ______ ____
ROOT
ATOM      1  C   UNL     1       9.976  13.942  20.735  0.00  0.00    +0.000 C 
ATOM      2  C   UNL     1      10.183  15.246  21.657  0.00  0.00    +0.000 A 
ATOM      3  C   UNL     1      10.083  15.274  23.056  0.00  0.00    +0.000 A 
ATOM      4  C   UNL     1      10.341  16.448  23.766  0.00  0.00    +0.000 A 
ATOM      5  C   UNL     1      10.700  17.615  23.092  0.00  0.00    +0.000 A 
ATOM      6  C   UNL     1      10.798  17.624  21.699  0.00  0.00    +0.000 A 
ATOM      7  C   UNL     1      10.540  16.460  20.961  0.00  0.00    +0.000 A 
ATOM      8  C   UNL     1      10.737  16.408  19.468  0.00  0.00    +0.000 A 
ATOM      9  C   UNL     1      10.356  17.442  18.608  0.00  0.00    +0.000 A 
ATOM     10  C   UNL     1      10.562  17.326  17.230  0.00  0.00    +0.000 A 
ATOM     11  C   UNL     1      11.208  16.212  16.700  0.00  0.00    +0.000 A 
ATOM     12  C   UNL     1      11.574  15.160  17.531  0.00  0.00    +0.000 A 
ATOM     13  C   UNL     1      11.272  15.205  18.897  0.00  0.00    +0.000 A 
ATOM     14  C   UNL     1      11.365  13.986  19.861  0.00  0.00    +0.000 C 
ATOM     15  C   UNL     1      11.159  12.506  19.600  0.00  0.00    +0.000 C 
ATOM     16  C   UNL     1      10.406  12.459  20.995  0.00  0.00    +0.000 C 
ENDROOT
BRANCH  15  17
ATOM     17  C   UNL     1      10.537  12.026  18.276  0.00  0.00    +0.000 C 
ATOM     18  O   UNL     1      11.165  11.360  17.450  0.00  0.00    +0.000 OA
BRANCH  17  19
ATOM     19  O   UNL     1       9.279  12.430  17.978  0.00  0.00    +0.000 OA
ATOM     20  H   UNL     1       9.224  13.299  17.531  0.00  0.00    +0.000 HD
ENDBRANCH  17  19
ENDBRANCH  15  17
BRANCH  16  21
ATOM     21  C   UNL     1       9.333  11.346  21.100  0.00  0.00    +0.000 C 
ATOM     22  O   UNL     1       9.097  10.507  20.240  0.00  0.00    +0.000 OA
BRANCH  21  23
ATOM     23  O   UNL     1       8.674  11.313  22.291  0.00  0.00    +0.000 OA
ATOM     24  H   UNL     1       7.742  11.036  22.238  0.00  0.00    +0.000 HD
ENDBRANCH  21  23
ENDBRANCH  16  21
BRANCH   1  25
ATOM     25  O   UNL     1       8.748  14.068  19.936  0.00  0.00    +0.000 OA
BRANCH  25  27
ATOM     26  C   UNL     1       7.051  15.705  20.011  0.00  0.00    +0.000 C 
ATOM     27  C   UNL     1       7.638  14.473  20.632  0.00  0.00    +0.000 C 
ATOM     28  O   UNL     1       7.190  13.905  21.616  0.00  0.00    +0.000 OA
ENDBRANCH  25  27
ENDBRANCH   1  25
TORSDOF 6
ENDMDL
MODEL 9
REMARK VINA RESULT:      -5.3     10.327     11.895
REMARK  Name = 
REMARK  7 active torsions:
REMARK  status: ('A' for Active; 'I' for Inactive)
REMARK    1  A    between atoms: C_1  and  C_2
REMARK    2  A    between atoms: C_2  and  O_4
REMARK    3  A    between atoms: O_4  and  C_5
REMARK    4  A    between atoms: C_19  and  C_20
REMARK    5  A    between atoms: C_20  and  O_22
REMARK    6  A    between atoms: C_23  and  C_24
REMARK    7  A    between atoms: C_24  and  O_26
REMARK                            x       y       z     vdW  Elec       q    Type
REMARK                         _______ _______ _______ _____ _____    ______ ____
ROOT
ATOM      1  C   UNL     1       2.951   4.593  19.559  0.00  0.00    +0.000 C 
ATOM      2  C   UNL     1       2.630   6.121  19.169  0.00  0.00    +0.000 A 
ATOM      3  C   UNL     1       1.691   6.942  19.811  0.00  0.00    +0.000 A 
ATOM      4  C   UNL     1       1.533   8.277  19.433  0.00  0.00    +0.000 A 
ATOM      5  C   UNL     1       2.306   8.814  18.404  0.00  0.00    +0.000 A 
ATOM      6  C   UNL     1       3.242   8.022  17.737  0.00  0.00    +0.000 A 
ATOM      7  C   UNL     1       3.419   6.677  18.095  0.00  0.00    +0.000 A 
ATOM      8  C   UNL     1       4.491   5.824  17.466  0.00  0.00    +0.000 A 
ATOM      9  C   UNL     1       4.789   5.851  16.101  0.00  0.00    +0.000 A 
ATOM     10  C   UNL     1       5.793   5.027  15.582  0.00  0.00    +0.000 A 
ATOM     11  C   UNL     1       6.554   4.219  16.424  0.00  0.00    +0.000 A 
ATOM     12  C   UNL     1       6.259   4.157  17.780  0.00  0.00    +0.000 A 
ATOM     13  C   UNL     1       5.183   4.884  18.300  0.00  0.00    +0.000 A 
ATOM     14  C   UNL     1       4.582   4.675  19.721  0.00  0.00    +0.000 C 
ATOM     15  C   UNL     1       4.485   3.424  20.575  0.00  0.00    +0.000 C 
ATOM     16  C   UNL     1       3.031   3.919  20.970  0.00  0.00    +0.000 C 
ENDROOT
BRANCH  15  17
ATOM     17  C   UNL     1       4.782   2.040  19.969  0.00  0.00    +0.000 C 
ATOM     18  O   UNL     1       5.487   1.204  20.537  0.00  0.00    +0.000 OA
BRANCH  17  19
ATOM     19  O   UNL     1       4.316   1.775  18.725  0.00  0.00    +0.000 OA
ATOM     20  H   UNL     1       3.782   2.492  18.326  0.00  0.00    +0.000 HD
ENDBRANCH  17  19
ENDBRANCH  15  17
BRANCH  16  21
ATOM     21  C   UNL     1       2.052   2.778  21.343  0.00  0.00    +0.000 C 
ATOM     22  O   UNL     1       1.402   2.713  22.379  0.00  0.00    +0.000 OA
BRANCH  21  23
ATOM     23  O   UNL     1       1.899   1.831  20.376  0.00  0.00    +0.000 OA
ATOM     24  H   UNL     1       0.989   1.721  20.047  0.00  0.00    +0.000 HD
ENDBRANCH  21  23
ENDBRANCH  16  21
BRANCH   1  25
ATOM     25  O   UNL     1       2.488   3.685  18.498  0.00  0.00    +0.000 OA
BRANCH  25  27
ATOM     26  C   UNL     1       0.982   4.524  16.887  0.00  0.00    +0.000 C 
ATOM     27  C   UNL     1       1.158   3.788  18.181  0.00  0.00    +0.000 C 
ATOM     28  O   UNL     1       0.246   3.337  18.858  0.00  0.00    +0.000 OA
ENDBRANCH  25  27
ENDBRANCH   1  25
TORSDOF 6
ENDMDL
