MODEL 1
REMARK VINA RESULT:      -6.3      0.000      0.000
REMARK  Name = 
REMARK  17 active torsions:
REMARK  status: ('A' for Active; 'I' for Inactive)
REMARK    1  A    between atoms: C_1  and  C_2
REMARK    2  A    between atoms: C_2  and  C_3
REMARK    3  A    between atoms: C_3  and  C_4
REMARK    4  A    between atoms: C_4  and  C_5
REMARK    5  A    between atoms: C_5  and  C_6
REMARK    6  A    between atoms: C_6  and  C_7
REMARK    7  A    between atoms: C_7  and  C_8
REMARK    8  A    between atoms: C_8  and  C_9
REMARK    9  A    between atoms: C_9  and  C_10
REMARK   10  A    between atoms: C_10  and  N_11
REMARK   11  A    between atoms: N_14  and  C_15
REMARK   12  A    between atoms: C_15  and  C_16
REMARK   13  A    between atoms: C_16  and  P_17
REMARK   14  A    between atoms: C_16  and  P_21
REMARK   15  A    between atoms: P_17  and  O_20
REMARK   16  A    between atoms: P_21  and  O_23
REMARK   17  A    between atoms: P_21  and  O_24
REMARK                            x       y       z     vdW  Elec       q    Type
REMARK                         _______ _______ _______ _____ _____    ______ ____
ROOT
ATOM      1  N   UNL     1       3.280   2.476  19.034  0.00  0.00    +0.000 N 
ATOM      2  C   UNL     1       2.398   2.374  17.981  0.00  0.00    +0.000 A 
ATOM      3  C   UNL     1       2.904   3.129  16.965  0.00  0.00    +0.000 A 
ATOM      4  N   UNL     1       4.029   3.763  17.471  0.00  0.00    +0.000 N 
ATOM      5  C   UNL     1       4.156   3.470  18.775  0.00  0.00    +0.000 A 
ENDROOT
BRANCH   1   6
ATOM      6  C   UNL     1       3.217   1.750  20.288  0.00  0.00    +0.000 C 
BRANCH   6   7
ATOM      7  C   UNL     1       2.700   2.623  21.431  0.00  0.00    +0.000 C 
BRANCH   7   8
ATOM      8  C   UNL     1       1.189   2.856  21.334  0.00  0.00    +0.000 C 
BRANCH   8   9
ATOM      9  C   UNL     1       0.853   4.148  20.604  0.00  0.00    +0.000 C 
BRANCH   9  10
ATOM     10  C   UNL     1       1.915   5.220  20.843  0.00  0.00    +0.000 C 
BRANCH  10  11
ATOM     11  C   UNL     1       1.299   6.612  20.704  0.00  0.00    +0.000 C 
BRANCH  11  12
ATOM     12  C   UNL     1       2.262   7.554  19.993  0.00  0.00    +0.000 C 
BRANCH  12  13
ATOM     13  C   UNL     1       2.244   7.318  18.483  0.00  0.00    +0.000 C 
BRANCH  13  15
ATOM     14  C   UNL     1       1.115   9.484  17.880  0.00  0.00    +0.000 C 
ATOM     15  C   UNL     1       2.368   8.640  17.729  0.00  0.00    +0.000 C 
ENDBRANCH  13  15
ENDBRANCH  12  13
ENDBRANCH  11  12
ENDBRANCH  10  11
ENDBRANCH   9  10
ENDBRANCH   8   9
ENDBRANCH   7   8
ENDBRANCH   6   7
ENDBRANCH   1   6
BRANCH   4  16
ATOM     16  C   UNL     1       4.713   4.912  16.859  0.00  0.00    +0.000 C 
BRANCH  16  17
ATOM     17  C   UNL     1       6.191   4.661  16.665  0.00  0.00    +0.000 C 
BRANCH  17  18
ATOM     18  P   UNL     1       6.858   4.985  14.992  0.00  0.00    +0.000 P 
ATOM     19  O   UNL     1       6.351   3.640  14.455  0.00  0.00    +0.000 OA
ATOM     20  O   UNL     1       5.911   6.183  14.840  0.00  0.00    +0.000 OA
BRANCH  18  21
ATOM     21  O   UNL     1       7.488   5.291  13.411  0.00  0.00    +0.000 OA
ATOM     22  H   UNL     1       6.749   5.819  13.048  0.00  0.00    +0.000 HD
ENDBRANCH  18  21
ENDBRANCH  17  18
BRANCH  17  23
ATOM     23  P   UNL     1       7.190   5.562  17.904  0.00  0.00    +0.000 P 
ATOM     24  O   UNL     1       8.234   4.436  17.955  0.00  0.00    +0.000 OA
BRANCH  23  25
ATOM     25  O   UNL     1       8.136   6.413  19.077  0.00  0.00    +0.000 OA
ATOM     26  H   UNL     1       8.308   7.293  18.686  0.00  0.00    +0.000 HD
ENDBRANCH  23  25
BRANCH  23  27
ATOM     27  O   UNL     1       7.769   6.578  16.760  0.00  0.00    +0.000 OA
ATOM     28  H   UNL     1       8.290   7.312  17.144  0.00  0.00    +0.000 HD
ENDBRANCH  23  27
ENDBRANCH  17  23
ENDBRANCH  16  17
ENDBRANCH   4  16
TORSDOF 16
ENDMDL
MODEL 2
REMARK VINA RESULT:      -6.2      2.196      4.151
REMARK  Name = 
REMARK  17 active torsions:
REMARK  status: ('A' for Active; 'I' for Inactive)
REMARK    1  A    between atoms: C_1  and  C_2
REMARK    2  A    between atoms: C_2  and  C_3
REMARK    3  A    between atoms: C_3  and  C_4
REMARK    4  A    between atoms: C_4  and  C_5
REMARK    5  A    between atoms: C_5  and  C_6
REMARK    6  A    between atoms: C_6  and  C_7
REMARK    7  A    between atoms: C_7  and  C_8
REMARK    8  A    between atoms: C_8  and  C_9
REMARK    9  A    between atoms: C_9  and  C_10
REMARK   10  A    between atoms: C_10  and  N_11
REMARK   11  A    between atoms: N_14  and  C_15
REMARK   12  A    between atoms: C_15  and  C_16
REMARK   13  A    between atoms: C_16  and  P_17
REMARK   14  A    between atoms: C_16  and  P_21
REMARK   15  A    between atoms: P_17  and  O_20
REMARK   16  A    between atoms: P_21  and  O_23
REMARK   17  A    between atoms: P_21  and  O_24
REMARK                            x       y       z     vdW  Elec       q    Type
REMARK                         _______ _______ _______ _____ _____    ______ ____
ROOT
ATOM      1  N   UNL     1       2.320   5.048  19.517  0.00  0.00    +0.000 N 
ATOM      2  C   UNL     1       1.618   4.215  18.674  0.00  0.00    +0.000 A 
ATOM      3  C   UNL     1       2.536   3.522  17.944  0.00  0.00    +0.000 A 
ATOM      4  N   UNL     1       3.778   4.037  18.286  0.00  0.00    +0.000 N 
ATOM      5  C   UNL     1       3.614   5.066  19.132  0.00  0.00    +0.000 A 
ENDROOT
BRANCH   1   6
ATOM      6  C   UNL     1       1.767   5.889  20.560  0.00  0.00    +0.000 C 
BRANCH   6   7
ATOM      7  C   UNL     1       1.871   7.374  20.215  0.00  0.00    +0.000 C 
BRANCH   7   8
ATOM      8  C   UNL     1       1.109   8.248  21.217  0.00  0.00    +0.000 C 
BRANCH   8   9
ATOM      9  C   UNL     1       0.924   9.672  20.713  0.00  0.00    +0.000 C 
BRANCH   9  10
ATOM     10  C   UNL     1      -0.502   9.912  20.218  0.00  0.00    +0.000 C 
BRANCH  10  11
ATOM     11  C   UNL     1      -0.482  10.409  18.773  0.00  0.00    +0.000 C 
BRANCH  11  12
ATOM     12  C   UNL     1      -1.901  10.547  18.237  0.00  0.00    +0.000 C 
BRANCH  12  13
ATOM     13  C   UNL     1      -2.031   9.900  16.859  0.00  0.00    +0.000 C 
BRANCH  13  15
ATOM     14  C   UNL     1      -3.157  10.119  14.619  0.00  0.00    +0.000 C 
ATOM     15  C   UNL     1      -2.732  10.844  15.883  0.00  0.00    +0.000 C 
ENDBRANCH  13  15
ENDBRANCH  12  13
ENDBRANCH  11  12
ENDBRANCH  10  11
ENDBRANCH   9  10
ENDBRANCH   8   9
ENDBRANCH   7   8
ENDBRANCH   6   7
ENDBRANCH   1   6
BRANCH   4  16
ATOM     16  C   UNL     1       5.026   3.835  17.535  0.00  0.00    +0.000 C 
BRANCH  16  17
ATOM     17  C   UNL     1       5.811   5.116  17.374  0.00  0.00    +0.000 C 
BRANCH  17  18
ATOM     18  P   UNL     1       7.112   5.435  18.621  0.00  0.00    +0.000 P 
ATOM     19  O   UNL     1       7.954   4.244  18.147  0.00  0.00    +0.000 OA
ATOM     20  O   UNL     1       7.414   6.791  17.967  0.00  0.00    +0.000 OA
BRANCH  18  21
ATOM     21  O   UNL     1       8.341   5.737  19.799  0.00  0.00    +0.000 OA
ATOM     22  H   UNL     1       7.799   5.671  20.611  0.00  0.00    +0.000 HD
ENDBRANCH  18  21
ENDBRANCH  17  18
BRANCH  17  23
ATOM     23  P   UNL     1       6.528   5.255  15.696  0.00  0.00    +0.000 P 
ATOM     24  O   UNL     1       5.588   4.170  15.151  0.00  0.00    +0.000 OA
BRANCH  23  25
ATOM     25  O   UNL     1       7.206   5.386  14.110  0.00  0.00    +0.000 OA
ATOM     26  H   UNL     1       6.989   6.290  13.805  0.00  0.00    +0.000 HD
ENDBRANCH  23  25
BRANCH  23  27
ATOM     27  O   UNL     1       5.717   6.648  15.420  0.00  0.00    +0.000 OA
ATOM     28  H   UNL     1       4.854   6.673  15.883  0.00  0.00    +0.000 HD
ENDBRANCH  23  27
ENDBRANCH  17  23
ENDBRANCH  16  17
ENDBRANCH   4  16
TORSDOF 16
ENDMDL
MODEL 3
REMARK VINA RESULT:      -5.9      1.297      3.375
REMARK  Name = 
REMARK  17 active torsions:
REMARK  status: ('A' for Active; 'I' for Inactive)
REMARK    1  A    between atoms: C_1  and  C_2
REMARK    2  A    between atoms: C_2  and  C_3
REMARK    3  A    between atoms: C_3  and  C_4
REMARK    4  A    between atoms: C_4  and  C_5
REMARK    5  A    between atoms: C_5  and  C_6
REMARK    6  A    between atoms: C_6  and  C_7
REMARK    7  A    between atoms: C_7  and  C_8
REMARK    8  A    between atoms: C_8  and  C_9
REMARK    9  A    between atoms: C_9  and  C_10
REMARK   10  A    between atoms: C_10  and  N_11
REMARK   11  A    between atoms: N_14  and  C_15
REMARK   12  A    between atoms: C_15  and  C_16
REMARK   13  A    between atoms: C_16  and  P_17
REMARK   14  A    between atoms: C_16  and  P_21
REMARK   15  A    between atoms: P_17  and  O_20
REMARK   16  A    between atoms: P_21  and  O_23
REMARK   17  A    between atoms: P_21  and  O_24
REMARK                            x       y       z     vdW  Elec       q    Type
REMARK                         _______ _______ _______ _____ _____    ______ ____
ROOT
ATOM      1  N   UNL     1       2.389   3.523  19.117  0.00  0.00    +0.000 N 
ATOM      2  C   UNL     1       2.724   2.203  19.321  0.00  0.00    +0.000 A 
ATOM      3  C   UNL     1       3.941   2.007  18.740  0.00  0.00    +0.000 A 
ATOM      4  N   UNL     1       4.264   3.194  18.099  0.00  0.00    +0.000 N 
ATOM      5  C   UNL     1       3.240   4.054  18.213  0.00  0.00    +0.000 A 
ENDROOT
BRANCH   1   6
ATOM      6  C   UNL     1       1.236   4.217  19.658  0.00  0.00    +0.000 C 
BRANCH   6   7
ATOM      7  C   UNL     1       1.613   5.137  20.819  0.00  0.00    +0.000 C 
BRANCH   7   8
ATOM      8  C   UNL     1       1.412   6.614  20.464  0.00  0.00    +0.000 C 
BRANCH   8   9
ATOM      9  C   UNL     1       2.565   7.169  19.640  0.00  0.00    +0.000 C 
BRANCH   9  10
ATOM     10  C   UNL     1       2.134   7.476  18.206  0.00  0.00    +0.000 C 
BRANCH  10  11
ATOM     11  C   UNL     1       2.334   8.960  17.903  0.00  0.00    +0.000 C 
BRANCH  11  12
ATOM     12  C   UNL     1       1.006   9.704  17.975  0.00  0.00    +0.000 C 
BRANCH  12  13
ATOM     13  C   UNL     1       0.826  10.371  19.338  0.00  0.00    +0.000 C 
BRANCH  13  15
ATOM     14  C   UNL     1      -1.587  10.540  18.645  0.00  0.00    +0.000 C 
ATOM     15  C   UNL     1      -0.629  10.283  19.794  0.00  0.00    +0.000 C 
ENDBRANCH  13  15
ENDBRANCH  12  13
ENDBRANCH  11  12
ENDBRANCH  10  11
ENDBRANCH   9  10
ENDBRANCH   8   9
ENDBRANCH   7   8
ENDBRANCH   6   7
ENDBRANCH   1   6
BRANCH   4  16
ATOM     16  C   UNL     1       5.313   3.359  17.081  0.00  0.00    +0.000 C 
BRANCH  16  17
ATOM     17  C   UNL     1       5.888   4.758  17.074  0.00  0.00    +0.000 C 
BRANCH  17  18
ATOM     18  P   UNL     1       7.085   5.151  18.400  0.00  0.00    +0.000 P 
ATOM     19  O   UNL     1       6.115   4.708  19.503  0.00  0.00    +0.000 OA
ATOM     20  O   UNL     1       8.043   4.080  17.860  0.00  0.00    +0.000 OA
BRANCH  18  21
ATOM     21  O   UNL     1       8.218   5.522  19.653  0.00  0.00    +0.000 OA
ATOM     22  H   UNL     1       8.375   4.620  19.994  0.00  0.00    +0.000 HD
ENDBRANCH  18  21
ENDBRANCH  17  18
BRANCH  17  23
ATOM     23  P   UNL     1       6.619   5.172  15.449  0.00  0.00    +0.000 P 
ATOM     24  O   UNL     1       5.400   6.021  15.061  0.00  0.00    +0.000 OA
BRANCH  23  25
ATOM     25  O   UNL     1       7.310   5.564  13.912  0.00  0.00    +0.000 OA
ATOM     26  H   UNL     1       7.721   4.737  13.591  0.00  0.00    +0.000 HD
ENDBRANCH  23  25
BRANCH  23  27
ATOM     27  O   UNL     1       7.640   6.249  16.137  0.00  0.00    +0.000 OA
ATOM     28  H   UNL     1       7.189   7.080  16.389  0.00  0.00    +0.000 HD
ENDBRANCH  23  27
ENDBRANCH  17  23
ENDBRANCH  16  17
ENDBRANCH   4  16
TORSDOF 16
ENDMDL
MODEL 4
REMARK VINA RESULT:      -5.8      0.690      1.323
REMARK  Name = 
REMARK  17 active torsions:
REMARK  status: ('A' for Active; 'I' for Inactive)
REMARK    1  A    between atoms: C_1  and  C_2
REMARK    2  A    between atoms: C_2  and  C_3
REMARK    3  A    between atoms: C_3  and  C_4
REMARK    4  A    between atoms: C_4  and  C_5
REMARK    5  A    between atoms: C_5  and  C_6
REMARK    6  A    between atoms: C_6  and  C_7
REMARK    7  A    between atoms: C_7  and  C_8
REMARK    8  A    between atoms: C_8  and  C_9
REMARK    9  A    between atoms: C_9  and  C_10
REMARK   10  A    between atoms: C_10  and  N_11
REMARK   11  A    between atoms: N_14  and  C_15
REMARK   12  A    between atoms: C_15  and  C_16
REMARK   13  A    between atoms: C_16  and  P_17
REMARK   14  A    between atoms: C_16  and  P_21
REMARK   15  A    between atoms: P_17  and  O_20
REMARK   16  A    between atoms: P_21  and  O_23
REMARK   17  A    between atoms: P_21  and  O_24
REMARK                            x       y       z     vdW  Elec       q    Type
REMARK                         _______ _______ _______ _____ _____    ______ ____
ROOT
ATOM      1  N   UNL     1       3.103   2.837  19.346  0.00  0.00    +0.000 N 
ATOM      2  C   UNL     1       2.508   2.297  18.228  0.00  0.00    +0.000 A 
ATOM      3  C   UNL     1       3.147   2.821  17.145  0.00  0.00    +0.000 A 
ATOM      4  N   UNL     1       4.045   3.758  17.635  0.00  0.00    +0.000 N 
ATOM      5  C   UNL     1       3.898   3.860  18.965  0.00  0.00    +0.000 A 
ENDROOT
BRANCH   1   6
ATOM      6  C   UNL     1       2.833   2.483  20.726  0.00  0.00    +0.000 C 
BRANCH   6   7
ATOM      7  C   UNL     1       1.931   3.506  21.415  0.00  0.00    +0.000 C 
BRANCH   7   8
ATOM      8  C   UNL     1       2.445   4.938  21.229  0.00  0.00    +0.000 C 
BRANCH   8   9
ATOM      9  C   UNL     1       1.408   5.839  20.572  0.00  0.00    +0.000 C 
BRANCH   9  10
ATOM     10  C   UNL     1       2.027   7.153  20.097  0.00  0.00    +0.000 C 
BRANCH  10  11
ATOM     11  C   UNL     1       2.334   7.081  18.602  0.00  0.00    +0.000 C 
BRANCH  11  12
ATOM     12  C   UNL     1       2.590   8.474  18.042  0.00  0.00    +0.000 C 
BRANCH  12  13
ATOM     13  C   UNL     1       1.287   9.262  17.917  0.00  0.00    +0.000 C 
BRANCH  13  15
ATOM     14  C   UNL     1       0.763  11.609  18.658  0.00  0.00    +0.000 C 
ATOM     15  C   UNL     1       1.106  10.200  19.108  0.00  0.00    +0.000 C 
ENDBRANCH  13  15
ENDBRANCH  12  13
ENDBRANCH  11  12
ENDBRANCH  10  11
ENDBRANCH   9  10
ENDBRANCH   8   9
ENDBRANCH   7   8
ENDBRANCH   6   7
ENDBRANCH   1   6
BRANCH   4  16
ATOM     16  C   UNL     1       4.718   4.796  16.842  0.00  0.00    +0.000 C 
BRANCH  16  17
ATOM     17  C   UNL     1       6.184   4.493  16.627  0.00  0.00    +0.000 C 
BRANCH  17  18
ATOM     18  P   UNL     1       6.874   4.934  14.991  0.00  0.00    +0.000 P 
ATOM     19  O   UNL     1       6.364   3.637  14.350  0.00  0.00    +0.000 OA
ATOM     20  O   UNL     1       5.939   6.149  14.918  0.00  0.00    +0.000 OA
BRANCH  18  21
ATOM     21  O   UNL     1       7.526   5.352  13.445  0.00  0.00    +0.000 OA
ATOM     22  H   UNL     1       8.021   6.157  13.697  0.00  0.00    +0.000 HD
ENDBRANCH  18  21
ENDBRANCH  17  18
BRANCH  17  23
ATOM     23  P   UNL     1       7.219   5.228  17.944  0.00  0.00    +0.000 P 
ATOM     24  O   UNL     1       8.313   4.169  17.745  0.00  0.00    +0.000 OA
BRANCH  23  25
ATOM     25  O   UNL     1       8.199   5.923  19.190  0.00  0.00    +0.000 OA
ATOM     26  H   UNL     1       7.625   5.968  19.981  0.00  0.00    +0.000 HD
ENDBRANCH  23  25
BRANCH  23  27
ATOM     27  O   UNL     1       7.676   6.451  16.959  0.00  0.00    +0.000 OA
ATOM     28  H   UNL     1       8.650   6.546  16.912  0.00  0.00    +0.000 HD
ENDBRANCH  23  27
ENDBRANCH  17  23
ENDBRANCH  16  17
ENDBRANCH   4  16
TORSDOF 16
ENDMDL
MODEL 5
REMARK VINA RESULT:      -5.8      2.599      4.855
REMARK  Name = 
REMARK  17 active torsions:
REMARK  status: ('A' for Active; 'I' for Inactive)
REMARK    1  A    between atoms: C_1  and  C_2
REMARK    2  A    between atoms: C_2  and  C_3
REMARK    3  A    between atoms: C_3  and  C_4
REMARK    4  A    between atoms: C_4  and  C_5
REMARK    5  A    between atoms: C_5  and  C_6
REMARK    6  A    between atoms: C_6  and  C_7
REMARK    7  A    between atoms: C_7  and  C_8
REMARK    8  A    between atoms: C_8  and  C_9
REMARK    9  A    between atoms: C_9  and  C_10
REMARK   10  A    between atoms: C_10  and  N_11
REMARK   11  A    between atoms: N_14  and  C_15
REMARK   12  A    between atoms: C_15  and  C_16
REMARK   13  A    between atoms: C_16  and  P_17
REMARK   14  A    between atoms: C_16  and  P_21
REMARK   15  A    between atoms: P_17  and  O_20
REMARK   16  A    between atoms: P_21  and  O_23
REMARK   17  A    between atoms: P_21  and  O_24
REMARK                            x       y       z     vdW  Elec       q    Type
REMARK                         _______ _______ _______ _____ _____    ______ ____
ROOT
ATOM      1  N   UNL     1       2.110   7.127  19.792  0.00  0.00    +0.000 N 
ATOM      2  C   UNL     1       2.436   7.937  18.727  0.00  0.00    +0.000 A 
ATOM      3  C   UNL     1       3.209   7.196  17.885  0.00  0.00    +0.000 A 
ATOM      4  N   UNL     1       3.426   5.982  18.520  0.00  0.00    +0.000 N 
ATOM      5  C   UNL     1       2.875   6.016  19.743  0.00  0.00    +0.000 A 
ENDROOT
BRANCH   1   6
ATOM      6  C   UNL     1       1.206   7.449  20.879  0.00  0.00    +0.000 C 
BRANCH   6   7
ATOM      7  C   UNL     1       1.699   8.638  21.702  0.00  0.00    +0.000 C 
BRANCH   7   8
ATOM      8  C   UNL     1       0.704   9.803  21.676  0.00  0.00    +0.000 C 
BRANCH   8   9
ATOM      9  C   UNL     1      -0.476   9.529  20.754  0.00  0.00    +0.000 C 
BRANCH   9  10
ATOM     10  C   UNL     1      -0.754  10.716  19.832  0.00  0.00    +0.000 C 
BRANCH  10  11
ATOM     11  C   UNL     1      -0.722  10.267  18.372  0.00  0.00    +0.000 C 
BRANCH  11  12
ATOM     12  C   UNL     1      -1.854  10.920  17.588  0.00  0.00    +0.000 C 
BRANCH  12  13
ATOM     13  C   UNL     1      -2.765   9.865  16.961  0.00  0.00    +0.000 C 
BRANCH  13  15
ATOM     14  C   UNL     1      -3.032  10.094  14.470  0.00  0.00    +0.000 C 
ATOM     15  C   UNL     1      -3.592  10.471  15.829  0.00  0.00    +0.000 C 
ENDBRANCH  13  15
ENDBRANCH  12  13
ENDBRANCH  11  12
ENDBRANCH  10  11
ENDBRANCH   9  10
ENDBRANCH   8   9
ENDBRANCH   7   8
ENDBRANCH   6   7
ENDBRANCH   1   6
BRANCH   4  16
ATOM     16  C   UNL     1       4.452   4.995  18.153  0.00  0.00    +0.000 C 
BRANCH  16  17
ATOM     17  C   UNL     1       5.735   5.648  17.692  0.00  0.00    +0.000 C 
BRANCH  17  18
ATOM     18  P   UNL     1       7.149   5.573  18.852  0.00  0.00    +0.000 P 
ATOM     19  O   UNL     1       7.736   4.333  18.164  0.00  0.00    +0.000 OA
ATOM     20  O   UNL     1       7.643   6.935  18.346  0.00  0.00    +0.000 OA
BRANCH  18  21
ATOM     21  O   UNL     1       8.485   5.503  19.948  0.00  0.00    +0.000 OA
ATOM     22  H   UNL     1       8.018   5.726  20.777  0.00  0.00    +0.000 HD
ENDBRANCH  18  21
ENDBRANCH  17  18
BRANCH  17  23
ATOM     23  P   UNL     1       6.256   5.017  16.055  0.00  0.00    +0.000 P 
ATOM     24  O   UNL     1       5.024   4.105  15.960  0.00  0.00    +0.000 OA
BRANCH  23  25
ATOM     25  O   UNL     1       6.747   4.420  14.508  0.00  0.00    +0.000 OA
ATOM     26  H   UNL     1       7.646   4.058  14.639  0.00  0.00    +0.000 HD
ENDBRANCH  23  25
BRANCH  23  27
ATOM     27  O   UNL     1       5.775   6.399  15.324  0.00  0.00    +0.000 OA
ATOM     28  H   UNL     1       5.652   6.285  14.360  0.00  0.00    +0.000 HD
ENDBRANCH  23  27
ENDBRANCH  17  23
ENDBRANCH  16  17
ENDBRANCH   4  16
TORSDOF 16
ENDMDL
MODEL 6
REMARK VINA RESULT:      -5.8      4.732      7.344
REMARK  Name = 
REMARK  17 active torsions:
REMARK  status: ('A' for Active; 'I' for Inactive)
REMARK    1  A    between atoms: C_1  and  C_2
REMARK    2  A    between atoms: C_2  and  C_3
REMARK    3  A    between atoms: C_3  and  C_4
REMARK    4  A    between atoms: C_4  and  C_5
REMARK    5  A    between atoms: C_5  and  C_6
REMARK    6  A    between atoms: C_6  and  C_7
REMARK    7  A    between atoms: C_7  and  C_8
REMARK    8  A    between atoms: C_8  and  C_9
REMARK    9  A    between atoms: C_9  and  C_10
REMARK   10  A    between atoms: C_10  and  N_11
REMARK   11  A    between atoms: N_14  and  C_15
REMARK   12  A    between atoms: C_15  and  C_16
REMARK   13  A    between atoms: C_16  and  P_17
REMARK   14  A    between atoms: C_16  and  P_21
REMARK   15  A    between atoms: P_17  and  O_20
REMARK   16  A    between atoms: P_21  and  O_23
REMARK   17  A    between atoms: P_21  and  O_24
REMARK                            x       y       z     vdW  Elec       q    Type
REMARK                         _______ _______ _______ _____ _____    ______ ____
ROOT
ATOM      1  N   UNL     1       4.168   6.960  17.466  0.00  0.00    +0.000 N 
ATOM      2  C   UNL     1       3.137   7.788  17.851  0.00  0.00    +0.000 A 
ATOM      3  C   UNL     1       2.531   7.198  18.918  0.00  0.00    +0.000 A 
ATOM      4  N   UNL     1       3.144   5.965  19.085  0.00  0.00    +0.000 N 
ATOM      5  C   UNL     1       4.035   5.775  18.100  0.00  0.00    +0.000 A 
ENDROOT
BRANCH   1   6
ATOM      6  C   UNL     1       5.163   7.233  16.447  0.00  0.00    +0.000 C 
BRANCH   6   7
ATOM      7  C   UNL     1       6.330   6.247  16.506  0.00  0.00    +0.000 C 
BRANCH   7   8
ATOM      8  C   UNL     1       6.592   5.589  15.147  0.00  0.00    +0.000 C 
BRANCH   8   9
ATOM      9  C   UNL     1       5.478   4.631  14.750  0.00  0.00    +0.000 C 
BRANCH   9  10
ATOM     10  C   UNL     1       6.018   3.436  13.966  0.00  0.00    +0.000 C 
BRANCH  10  11
ATOM     11  C   UNL     1       6.076   3.767  12.475  0.00  0.00    +0.000 C 
BRANCH  11  12
ATOM     12  C   UNL     1       5.252   2.766  11.674  0.00  0.00    +0.000 C 
BRANCH  12  13
ATOM     13  C   UNL     1       3.878   3.340  11.329  0.00  0.00    +0.000 C 
BRANCH  13  15
ATOM     14  C   UNL     1       2.454   4.274   9.476  0.00  0.00    +0.000 C 
ATOM     15  C   UNL     1       3.853   3.851   9.890  0.00  0.00    +0.000 C 
ENDBRANCH  13  15
ENDBRANCH  12  13
ENDBRANCH  11  12
ENDBRANCH  10  11
ENDBRANCH   9  10
ENDBRANCH   8   9
ENDBRANCH   7   8
ENDBRANCH   6   7
ENDBRANCH   1   6
BRANCH   4  16
ATOM     16  C   UNL     1       2.622   4.851  19.892  0.00  0.00    +0.000 C 
BRANCH  16  17
ATOM     17  C   UNL     1       2.966   3.504  19.298  0.00  0.00    +0.000 C 
BRANCH  17  18
ATOM     18  P   UNL     1       4.020   2.410  20.319  0.00  0.00    +0.000 P 
ATOM     19  O   UNL     1       5.292   3.191  19.964  0.00  0.00    +0.000 OA
ATOM     20  O   UNL     1       3.271   2.859  21.582  0.00  0.00    +0.000 OA
BRANCH  18  21
ATOM     21  O   UNL     1       5.016   1.377  21.284  0.00  0.00    +0.000 OA
ATOM     22  H   UNL     1       5.643   1.079  20.597  0.00  0.00    +0.000 HD
ENDBRANCH  18  21
ENDBRANCH  17  18
BRANCH  17  23
ATOM     23  P   UNL     1       1.463   2.596  18.784  0.00  0.00    +0.000 P 
ATOM     24  O   UNL     1       2.118   1.241  19.087  0.00  0.00    +0.000 OA
BRANCH  23  25
ATOM     25  O   UNL     1       0.042   1.737  18.299  0.00  0.00    +0.000 OA
ATOM     26  H   UNL     1      -0.035   0.985  18.920  0.00  0.00    +0.000 HD
ENDBRANCH  23  25
BRANCH  23  27
ATOM     27  O   UNL     1       0.704   2.982  20.181  0.00  0.00    +0.000 OA
ATOM     28  H   UNL     1       1.231   3.592  20.734  0.00  0.00    +0.000 HD
ENDBRANCH  23  27
ENDBRANCH  17  23
ENDBRANCH  16  17
ENDBRANCH   4  16
TORSDOF 16
ENDMDL
MODEL 7
REMARK VINA RESULT:      -5.8      5.106      6.685
REMARK  Name = 
REMARK  17 active torsions:
REMARK  status: ('A' for Active; 'I' for Inactive)
REMARK    1  A    between atoms: C_1  and  C_2
REMARK    2  A    between atoms: C_2  and  C_3
REMARK    3  A    between atoms: C_3  and  C_4
REMARK    4  A    between atoms: C_4  and  C_5
REMARK    5  A    between atoms: C_5  and  C_6
REMARK    6  A    between atoms: C_6  and  C_7
REMARK    7  A    between atoms: C_7  and  C_8
REMARK    8  A    between atoms: C_8  and  C_9
REMARK    9  A    between atoms: C_9  and  C_10
REMARK   10  A    between atoms: C_10  and  N_11
REMARK   11  A    between atoms: N_14  and  C_15
REMARK   12  A    between atoms: C_15  and  C_16
REMARK   13  A    between atoms: C_16  and  P_17
REMARK   14  A    between atoms: C_16  and  P_21
REMARK   15  A    between atoms: P_17  and  O_20
REMARK   16  A    between atoms: P_21  and  O_23
REMARK   17  A    between atoms: P_21  and  O_24
REMARK                            x       y       z     vdW  Elec       q    Type
REMARK                         _______ _______ _______ _____ _____    ______ ____
ROOT
ATOM      1  N   UNL     1       1.593   8.621  19.406  0.00  0.00    +0.000 N 
ATOM      2  C   UNL     1       2.167   8.662  18.155  0.00  0.00    +0.000 A 
ATOM      3  C   UNL     1       2.759   7.453  17.949  0.00  0.00    +0.000 A 
ATOM      4  N   UNL     1       2.623   6.743  19.133  0.00  0.00    +0.000 N 
ATOM      5  C   UNL     1       2.043   7.526  20.056  0.00  0.00    +0.000 A 
ENDROOT
BRANCH   1   6
ATOM      6  C   UNL     1       0.754   9.639  20.007  0.00  0.00    +0.000 C 
BRANCH   6   7
ATOM      7  C   UNL     1      -0.113   9.077  21.133  0.00  0.00    +0.000 C 
BRANCH   7   8
ATOM      8  C   UNL     1       0.272   9.663  22.496  0.00  0.00    +0.000 C 
BRANCH   8   9
ATOM      9  C   UNL     1      -0.897  10.372  23.166  0.00  0.00    +0.000 C 
BRANCH   9  10
ATOM     10  C   UNL     1      -1.388  11.555  22.333  0.00  0.00    +0.000 C 
BRANCH  10  11
ATOM     11  C   UNL     1      -1.853  12.687  23.248  0.00  0.00    +0.000 C 
BRANCH  11  12
ATOM     12  C   UNL     1      -3.372  12.798  23.229  0.00  0.00    +0.000 C 
BRANCH  12  13
ATOM     13  C   UNL     1      -3.885  13.500  24.486  0.00  0.00    +0.000 C 
BRANCH  13  15
ATOM     14  C   UNL     1      -3.674  15.968  24.931  0.00  0.00    +0.000 C 
ATOM     15  C   UNL     1      -2.947  14.636  24.890  0.00  0.00    +0.000 C 
ENDBRANCH  13  15
ENDBRANCH  12  13
ENDBRANCH  11  12
ENDBRANCH  10  11
ENDBRANCH   9  10
ENDBRANCH   8   9
ENDBRANCH   7   8
ENDBRANCH   6   7
ENDBRANCH   1   6
BRANCH   4  16
ATOM     16  C   UNL     1       3.373   5.532  19.496  0.00  0.00    +0.000 C 
BRANCH  16  17
ATOM     17  C   UNL     1       3.816   4.747  18.283  0.00  0.00    +0.000 C 
BRANCH  17  18
ATOM     18  P   UNL     1       5.617   4.485  18.096  0.00  0.00    +0.000 P 
ATOM     19  O   UNL     1       5.889   5.987  17.942  0.00  0.00    +0.000 OA
ATOM     20  O   UNL     1       5.688   3.919  19.522  0.00  0.00    +0.000 OA
BRANCH  18  21
ATOM     21  O   UNL     1       7.320   4.237  17.921  0.00  0.00    +0.000 OA
ATOM     22  H   UNL     1       7.606   5.169  17.849  0.00  0.00    +0.000 HD
ENDBRANCH  18  21
ENDBRANCH  17  18
BRANCH  17  23
ATOM     23  P   UNL     1       2.951   3.138  18.175  0.00  0.00    +0.000 P 
ATOM     24  O   UNL     1       2.175   3.582  16.927  0.00  0.00    +0.000 OA
BRANCH  23  25
ATOM     25  O   UNL     1       2.133   1.617  18.072  0.00  0.00    +0.000 OA
ATOM     26  H   UNL     1       2.411   1.115  18.864  0.00  0.00    +0.000 HD
ENDBRANCH  23  25
BRANCH  23  27
ATOM     27  O   UNL     1       4.286   2.415  17.566  0.00  0.00    +0.000 OA
ATOM     28  H   UNL     1       5.107   2.727  17.998  0.00  0.00    +0.000 HD
ENDBRANCH  23  27
ENDBRANCH  17  23
ENDBRANCH  16  17
ENDBRANCH   4  16
TORSDOF 16
ENDMDL
MODEL 8
REMARK VINA RESULT:      -5.8      1.643      3.901
REMARK  Name = 
REMARK  17 active torsions:
REMARK  status: ('A' for Active; 'I' for Inactive)
REMARK    1  A    between atoms: C_1  and  C_2
REMARK    2  A    between atoms: C_2  and  C_3
REMARK    3  A    between atoms: C_3  and  C_4
REMARK    4  A    between atoms: C_4  and  C_5
REMARK    5  A    between atoms: C_5  and  C_6
REMARK    6  A    between atoms: C_6  and  C_7
REMARK    7  A    between atoms: C_7  and  C_8
REMARK    8  A    between atoms: C_8  and  C_9
REMARK    9  A    between atoms: C_9  and  C_10
REMARK   10  A    between atoms: C_10  and  N_11
REMARK   11  A    between atoms: N_14  and  C_15
REMARK   12  A    between atoms: C_15  and  C_16
REMARK   13  A    between atoms: C_16  and  P_17
REMARK   14  A    between atoms: C_16  and  P_21
REMARK   15  A    between atoms: P_17  and  O_20
REMARK   16  A    between atoms: P_21  and  O_23
REMARK   17  A    between atoms: P_21  and  O_24
REMARK                            x       y       z     vdW  Elec       q    Type
REMARK                         _______ _______ _______ _____ _____    ______ ____
ROOT
ATOM      1  N   UNL     1       2.570   7.174  19.345  0.00  0.00    +0.000 N 
ATOM      2  C   UNL     1       2.244   8.152  18.431  0.00  0.00    +0.000 A 
ATOM      3  C   UNL     1       3.132   8.047  17.403  0.00  0.00    +0.000 A 
ATOM      4  N   UNL     1       4.049   7.075  17.776  0.00  0.00    +0.000 N 
ATOM      5  C   UNL     1       3.777   6.662  19.023  0.00  0.00    +0.000 A 
ENDROOT
BRANCH   1   6
ATOM      6  C   UNL     1       1.830   6.829  20.543  0.00  0.00    +0.000 C 
BRANCH   6   7
ATOM      7  C   UNL     1       1.278   5.405  20.486  0.00  0.00    +0.000 C 
BRANCH   7   8
ATOM      8  C   UNL     1       2.121   4.433  21.319  0.00  0.00    +0.000 C 
BRANCH   8   9
ATOM      9  C   UNL     1       1.566   3.016  21.282  0.00  0.00    +0.000 C 
BRANCH   9  10
ATOM     10  C   UNL     1       0.532   2.847  20.170  0.00  0.00    +0.000 C 
BRANCH  10  11
ATOM     11  C   UNL     1       1.178   2.209  18.941  0.00  0.00    +0.000 C 
BRANCH  11  12
ATOM     12  C   UNL     1       1.405   3.252  17.855  0.00  0.00    +0.000 C 
BRANCH  12  13
ATOM     13  C   UNL     1       2.858   3.245  17.384  0.00  0.00    +0.000 C 
BRANCH  13  15
ATOM     14  C   UNL     1       3.995   1.176  18.255  0.00  0.00    +0.000 C 
ATOM     15  C   UNL     1       3.772   2.663  18.461  0.00  0.00    +0.000 C 
ENDBRANCH  13  15
ENDBRANCH  12  13
ENDBRANCH  11  12
ENDBRANCH  10  11
ENDBRANCH   9  10
ENDBRANCH   8   9
ENDBRANCH   7   8
ENDBRANCH   6   7
ENDBRANCH   1   6
BRANCH   4  16
ATOM     16  C   UNL     1       5.357   6.844  17.145  0.00  0.00    +0.000 C 
BRANCH  16  17
ATOM     17  C   UNL     1       5.834   5.421  17.320  0.00  0.00    +0.000 C 
BRANCH  17  18
ATOM     18  P   UNL     1       6.209   4.494  15.787  0.00  0.00    +0.000 P 
ATOM     19  O   UNL     1       5.773   5.663  14.893  0.00  0.00    +0.000 OA
ATOM     20  O   UNL     1       7.694   4.445  16.174  0.00  0.00    +0.000 OA
BRANCH  18  21
ATOM     21  O   UNL     1       6.564   3.619  14.339  0.00  0.00    +0.000 OA
ATOM     22  H   UNL     1       5.817   2.988  14.351  0.00  0.00    +0.000 HD
ENDBRANCH  18  21
ENDBRANCH  17  18
BRANCH  17  23
ATOM     23  P   UNL     1       7.268   5.331  18.453  0.00  0.00    +0.000 P 
ATOM     24  O   UNL     1       7.439   6.856  18.438  0.00  0.00    +0.000 OA
BRANCH  23  25
ATOM     25  O   UNL     1       8.624   5.246  19.524  0.00  0.00    +0.000 OA
ATOM     26  H   UNL     1       9.361   4.892  18.987  0.00  0.00    +0.000 HD
ENDBRANCH  23  25
BRANCH  23  27
ATOM     27  O   UNL     1       6.290   5.061  19.736  0.00  0.00    +0.000 OA
ATOM     28  H   UNL     1       6.557   4.270  20.247  0.00  0.00    +0.000 HD
ENDBRANCH  23  27
ENDBRANCH  17  23
ENDBRANCH  16  17
ENDBRANCH   4  16
TORSDOF 16
ENDMDL
MODEL 9
REMARK VINA RESULT:      -5.8      6.266      8.105
REMARK  Name = 
REMARK  17 active torsions:
REMARK  status: ('A' for Active; 'I' for Inactive)
REMARK    1  A    between atoms: C_1  and  C_2
REMARK    2  A    between atoms: C_2  and  C_3
REMARK    3  A    between atoms: C_3  and  C_4
REMARK    4  A    between atoms: C_4  and  C_5
REMARK    5  A    between atoms: C_5  and  C_6
REMARK    6  A    between atoms: C_6  and  C_7
REMARK    7  A    between atoms: C_7  and  C_8
REMARK    8  A    between atoms: C_8  and  C_9
REMARK    9  A    between atoms: C_9  and  C_10
REMARK   10  A    between atoms: C_10  and  N_11
REMARK   11  A    between atoms: N_14  and  C_15
REMARK   12  A    between atoms: C_15  and  C_16
REMARK   13  A    between atoms: C_16  and  P_17
REMARK   14  A    between atoms: C_16  and  P_21
REMARK   15  A    between atoms: P_17  and  O_20
REMARK   16  A    between atoms: P_21  and  O_23
REMARK   17  A    between atoms: P_21  and  O_24
REMARK                            x       y       z     vdW  Elec       q    Type
REMARK                         _______ _______ _______ _____ _____    ______ ____
ROOT
ATOM      1  N   UNL     1       2.668   7.411  18.799  0.00  0.00    +0.000 N 
ATOM      2  C   UNL     1       2.473   8.265  17.736  0.00  0.00    +0.000 A 
ATOM      3  C   UNL     1       1.677   9.277  18.180  0.00  0.00    +0.000 A 
ATOM      4  N   UNL     1       1.316   8.951  19.478  0.00  0.00    +0.000 N 
ATOM      5  C   UNL     1       1.806   7.740  19.785  0.00  0.00    +0.000 A 
ENDROOT
BRANCH   1   6
ATOM      6  C   UNL     1       3.543   6.256  18.832  0.00  0.00    +0.000 C 
BRANCH   6   7
ATOM      7  C   UNL     1       2.818   4.976  18.416  0.00  0.00    +0.000 C 
BRANCH   7   8
ATOM      8  C   UNL     1       3.624   4.170  17.392  0.00  0.00    +0.000 C 
BRANCH   8   9
ATOM      9  C   UNL     1       4.546   5.053  16.564  0.00  0.00    +0.000 C 
BRANCH   9  10
ATOM     10  C   UNL     1       5.635   4.235  15.871  0.00  0.00    +0.000 C 
BRANCH  10  11
ATOM     11  C   UNL     1       6.998   4.537  16.494  0.00  0.00    +0.000 C 
BRANCH  11  12
ATOM     12  C   UNL     1       7.064   5.988  16.955  0.00  0.00    +0.000 C 
BRANCH  12  13
ATOM     13  C   UNL     1       7.583   6.083  18.389  0.00  0.00    +0.000 C 
BRANCH  13  15
ATOM     14  C   UNL     1       7.801   8.473  17.632  0.00  0.00    +0.000 C 
ATOM     15  C   UNL     1       8.271   7.426  18.626  0.00  0.00    +0.000 C 
ENDBRANCH  13  15
ENDBRANCH  12  13
ENDBRANCH  11  12
ENDBRANCH  10  11
ENDBRANCH   9  10
ENDBRANCH   8   9
ENDBRANCH   7   8
ENDBRANCH   6   7
ENDBRANCH   1   6
BRANCH   4  16
ATOM     16  C   UNL     1       0.222   9.567  20.243  0.00  0.00    +0.000 C 
BRANCH  16  17
ATOM     17  C   UNL     1       0.306  11.077  20.249  0.00  0.00    +0.000 C 
BRANCH  17  18
ATOM     18  P   UNL     1      -0.433  11.938  18.813  0.00  0.00    +0.000 P 
ATOM     19  O   UNL     1      -1.553  12.546  19.668  0.00  0.00    +0.000 OA
ATOM     20  O   UNL     1       0.842  12.779  18.655  0.00  0.00    +0.000 OA
BRANCH  18  21
ATOM     21  O   UNL     1      -1.130  12.752  17.457  0.00  0.00    +0.000 OA
ATOM     22  H   UNL     1      -0.513  13.508  17.394  0.00  0.00    +0.000 HD
ENDBRANCH  18  21
ENDBRANCH  17  18
BRANCH  17  23
ATOM     23  P   UNL     1      -0.372  11.779  21.796  0.00  0.00    +0.000 P 
ATOM     24  O   UNL     1       0.358  10.732  22.650  0.00  0.00    +0.000 OA
BRANCH  23  25
ATOM     25  O   UNL     1      -1.012  12.443  23.260  0.00  0.00    +0.000 OA
ATOM     26  H   UNL     1      -1.397  11.685  23.745  0.00  0.00    +0.000 HD
ENDBRANCH  23  25
BRANCH  23  27
ATOM     27  O   UNL     1       0.678  13.032  21.736  0.00  0.00    +0.000 OA
ATOM     28  H   UNL     1       1.547  12.771  21.369  0.00  0.00    +0.000 HD
ENDBRANCH  23  27
ENDBRANCH  17  23
ENDBRANCH  16  17
ENDBRANCH   4  16
TORSDOF 16
ENDMDL
