MODEL 1
REMARK VINA RESULT:      -9.7      0.000      0.000
REMARK  Name = 
REMARK  6 active torsions:
REMARK  status: ('A' for Active; 'I' for Inactive)
REMARK    1  A    between atoms: C_2  and  C_14
REMARK    2  A    between atoms: N_3  and  C_4
REMARK    3  A    between atoms: C_17  and  N_18
REMARK    4  A    between atoms: N_18  and  C_19
REMARK    5  A    between atoms: C_19  and  C_20
REMARK    6  A    between atoms: C_19  and  C_26
REMARK                            x       y       z     vdW  Elec       q    Type
REMARK                         _______ _______ _______ _____ _____    ______ ____
ROOT
ATOM      1  C   UNL     1       0.163  10.146  19.897  0.00  0.00    +0.000 A 
ATOM      2  C   UNL     1       0.688   9.141  20.714  0.00  0.00    +0.000 A 
ATOM      3  C   UNL     1       1.545   8.176  20.174  0.00  0.00    +0.000 A 
ATOM      4  C   UNL     1       1.916   8.209  18.826  0.00  0.00    +0.000 A 
ATOM      5  C   UNL     1       1.379   9.228  18.027  0.00  0.00    +0.000 A 
ATOM      6  C   UNL     1       0.514  10.198  18.552  0.00  0.00    +0.000 A 
ENDROOT
BRANCH   1   8
ATOM      7  O   UNL     1      -1.534  11.735  19.770  0.00  0.00    +0.000 OA
ATOM      8  C   UNL     1      -0.751  11.143  20.507  0.00  0.00    +0.000 C 
ATOM      9  N   UNL     1      -0.577  11.352  21.868  0.00  0.00    +0.000 N 
ATOM     10  H   UNL     1       0.242  10.943  22.293  0.00  0.00    +0.000 HD
BRANCH   9  11
ATOM     11  C   UNL     1      -1.308  12.257  22.665  0.00  0.00    +0.000 A 
ATOM     12  C   UNL     1      -2.574  11.965  23.167  0.00  0.00    +0.000 A 
ATOM     13  C   UNL     1      -3.283  12.914  23.904  0.00  0.00    +0.000 A 
ATOM     14  C   UNL     1      -2.736  14.176  24.151  0.00  0.00    +0.000 A 
ATOM     15  C   UNL     1      -3.461  15.145  24.860  0.00  0.00    +0.000 A 
ATOM     16  C   UNL     1      -2.924  16.411  25.087  0.00  0.00    +0.000 A 
ATOM     17  C   UNL     1      -1.655  16.719  24.611  0.00  0.00    +0.000 A 
ATOM     18  C   UNL     1      -0.914  15.762  23.912  0.00  0.00    +0.000 A 
ATOM     19  C   UNL     1      -1.443  14.480  23.669  0.00  0.00    +0.000 A 
ATOM     20  C   UNL     1      -0.731  13.502  22.948  0.00  0.00    +0.000 A 
ENDBRANCH   9  11
ENDBRANCH   1   8
BRANCH   4  21
ATOM     21  N   UNL     1       2.721   7.260  18.238  0.00  0.00    +0.000 N 
ATOM     22  H   UNL     1       2.798   7.263  17.229  0.00  0.00    +0.000 HD
BRANCH  21  23
ATOM     23  C   UNL     1       3.505   6.245  18.935  0.00  0.00    +0.000 C 
BRANCH  23  24
ATOM     24  C   UNL     1       2.576   5.062  19.211  0.00  0.00    +0.000 A 
ATOM     25  C   UNL     1       2.005   4.320  18.162  0.00  0.00    +0.000 A 
ATOM     26  C   UNL     1       1.140   3.258  18.430  0.00  0.00    +0.000 A 
ATOM     27  C   UNL     1       0.833   2.922  19.747  0.00  0.00    +0.000 A 
ATOM     28  C   UNL     1       1.395   3.643  20.798  0.00  0.00    +0.000 A 
ATOM     29  C   UNL     1       2.261   4.705  20.534  0.00  0.00    +0.000 A 
ENDBRANCH  23  24
BRANCH  23  30
ATOM     30  C   UNL     1       4.771   5.852  18.174  0.00  0.00    +0.000 A 
ATOM     31  C   UNL     1       5.836   5.159  18.771  0.00  0.00    +0.000 A 
ATOM     32  C   UNL     1       6.967   4.802  18.031  0.00  0.00    +0.000 A 
ATOM     33  C   UNL     1       7.050   5.122  16.679  0.00  0.00    +0.000 A 
ATOM     34  C   UNL     1       6.001   5.799  16.063  0.00  0.00    +0.000 A 
ATOM     35  C   UNL     1       4.871   6.157  16.801  0.00  0.00    +0.000 A 
ENDBRANCH  23  30
ENDBRANCH  21  23
ENDBRANCH   4  21
TORSDOF 6
ENDMDL
MODEL 2
REMARK VINA RESULT:      -9.7      0.194      1.202
REMARK  Name = 
REMARK  6 active torsions:
REMARK  status: ('A' for Active; 'I' for Inactive)
REMARK    1  A    between atoms: C_2  and  C_14
REMARK    2  A    between atoms: N_3  and  C_4
REMARK    3  A    between atoms: C_17  and  N_18
REMARK    4  A    between atoms: N_18  and  C_19
REMARK    5  A    between atoms: C_19  and  C_20
REMARK    6  A    between atoms: C_19  and  C_26
REMARK                            x       y       z     vdW  Elec       q    Type
REMARK                         _______ _______ _______ _____ _____    ______ ____
ROOT
ATOM      1  C   UNL     1       0.336  10.284  19.848  0.00  0.00    +0.000 A 
ATOM      2  C   UNL     1       0.785   9.243  20.666  0.00  0.00    +0.000 A 
ATOM      3  C   UNL     1       1.566   8.216  20.126  0.00  0.00    +0.000 A 
ATOM      4  C   UNL     1       1.936   8.219  18.778  0.00  0.00    +0.000 A 
ATOM      5  C   UNL     1       1.476   9.275  17.978  0.00  0.00    +0.000 A 
ATOM      6  C   UNL     1       0.688  10.307  18.503  0.00  0.00    +0.000 A 
ENDROOT
BRANCH   1   8
ATOM      7  O   UNL     1      -0.932  12.233  19.725  0.00  0.00    +0.000 OA
ATOM      8  C   UNL     1      -0.499  11.348  20.458  0.00  0.00    +0.000 C 
ATOM      9  N   UNL     1      -0.654  11.264  21.835  0.00  0.00    +0.000 N 
ATOM     10  H   UNL     1      -0.070  10.600  22.322  0.00  0.00    +0.000 HD
BRANCH   9  11
ATOM     11  C   UNL     1      -1.383  12.163  22.640  0.00  0.00    +0.000 A 
ATOM     12  C   UNL     1      -2.664  11.882  23.112  0.00  0.00    +0.000 A 
ATOM     13  C   UNL     1      -3.369  12.825  23.859  0.00  0.00    +0.000 A 
ATOM     14  C   UNL     1      -2.804  14.070  24.147  0.00  0.00    +0.000 A 
ATOM     15  C   UNL     1      -3.525  15.035  24.866  0.00  0.00    +0.000 A 
ATOM     16  C   UNL     1      -2.969  16.285  25.135  0.00  0.00    +0.000 A 
ATOM     17  C   UNL     1      -1.686  16.582  24.689  0.00  0.00    +0.000 A 
ATOM     18  C   UNL     1      -0.950  15.628  23.980  0.00  0.00    +0.000 A 
ATOM     19  C   UNL     1      -1.497  14.362  23.696  0.00  0.00    +0.000 A 
ATOM     20  C   UNL     1      -0.790  13.389  22.965  0.00  0.00    +0.000 A 
ENDBRANCH   9  11
ENDBRANCH   1   8
BRANCH   4  21
ATOM     21  N   UNL     1       2.667   7.211  18.190  0.00  0.00    +0.000 N 
ATOM     22  H   UNL     1       2.682   7.164  17.179  0.00  0.00    +0.000 HD
BRANCH  21  23
ATOM     23  C   UNL     1       3.453   6.198  18.888  0.00  0.00    +0.000 C 
BRANCH  23  24
ATOM     24  C   UNL     1       2.511   5.038  19.216  0.00  0.00    +0.000 A 
ATOM     25  C   UNL     1       2.223   4.682  20.545  0.00  0.00    +0.000 A 
ATOM     26  C   UNL     1       1.381   3.607  20.827  0.00  0.00    +0.000 A 
ATOM     27  C   UNL     1       0.814   2.871  19.788  0.00  0.00    +0.000 A 
ATOM     28  C   UNL     1       1.084   3.214  18.465  0.00  0.00    +0.000 A 
ATOM     29  C   UNL     1       1.926   4.290  18.179  0.00  0.00    +0.000 A 
ENDBRANCH  23  24
BRANCH  23  30
ATOM     30  C   UNL     1       4.690   5.766  18.101  0.00  0.00    +0.000 A 
ATOM     31  C   UNL     1       4.834   5.991  16.722  0.00  0.00    +0.000 A 
ATOM     32  C   UNL     1       5.992   5.596  16.046  0.00  0.00    +0.000 A 
ATOM     33  C   UNL     1       7.031   4.979  16.737  0.00  0.00    +0.000 A 
ATOM     34  C   UNL     1       6.915   4.757  18.106  0.00  0.00    +0.000 A 
ATOM     35  C   UNL     1       5.759   5.150  18.782  0.00  0.00    +0.000 A 
ENDBRANCH  23  30
ENDBRANCH  21  23
ENDBRANCH   4  21
TORSDOF 6
ENDMDL
MODEL 3
REMARK VINA RESULT:      -9.6      0.113      1.188
REMARK  Name = 
REMARK  6 active torsions:
REMARK  status: ('A' for Active; 'I' for Inactive)
REMARK    1  A    between atoms: C_2  and  C_14
REMARK    2  A    between atoms: N_3  and  C_4
REMARK    3  A    between atoms: C_17  and  N_18
REMARK    4  A    between atoms: N_18  and  C_19
REMARK    5  A    between atoms: C_19  and  C_20
REMARK    6  A    between atoms: C_19  and  C_26
REMARK                            x       y       z     vdW  Elec       q    Type
REMARK                         _______ _______ _______ _____ _____    ______ ____
ROOT
ATOM      1  C   UNL     1       0.199  10.109  19.911  0.00  0.00    +0.000 A 
ATOM      2  C   UNL     1       0.354  10.098  18.522  0.00  0.00    +0.000 A 
ATOM      3  C   UNL     1       1.214   9.173  17.920  0.00  0.00    +0.000 A 
ATOM      4  C   UNL     1       1.910   8.230  18.682  0.00  0.00    +0.000 A 
ATOM      5  C   UNL     1       1.737   8.258  20.073  0.00  0.00    +0.000 A 
ATOM      6  C   UNL     1       0.885   9.183  20.690  0.00  0.00    +0.000 A 
ENDROOT
BRANCH   1   8
ATOM      7  O   UNL     1      -1.469  11.726  19.760  0.00  0.00    +0.000 OA
ATOM      8  C   UNL     1      -0.714  11.113  20.509  0.00  0.00    +0.000 C 
ATOM      9  N   UNL     1      -0.573  11.303  21.877  0.00  0.00    +0.000 N 
ATOM     10  H   UNL     1       0.229  10.876  22.318  0.00  0.00    +0.000 HD
BRANCH   9  11
ATOM     11  C   UNL     1      -1.310  12.209  22.667  0.00  0.00    +0.000 A 
ATOM     12  C   UNL     1      -2.589  11.926  23.142  0.00  0.00    +0.000 A 
ATOM     13  C   UNL     1      -3.302  12.876  23.872  0.00  0.00    +0.000 A 
ATOM     14  C   UNL     1      -2.747  14.131  24.139  0.00  0.00    +0.000 A 
ATOM     15  C   UNL     1      -3.477  15.102  24.841  0.00  0.00    +0.000 A 
ATOM     16  C   UNL     1      -2.932  16.361  25.089  0.00  0.00    +0.000 A 
ATOM     17  C   UNL     1      -1.650  16.660  24.640  0.00  0.00    +0.000 A 
ATOM     18  C   UNL     1      -0.906  15.700  23.947  0.00  0.00    +0.000 A 
ATOM     19  C   UNL     1      -1.442  14.425  23.685  0.00  0.00    +0.000 A 
ATOM     20  C   UNL     1      -0.727  13.446  22.971  0.00  0.00    +0.000 A 
ENDBRANCH   9  11
ENDBRANCH   1   8
BRANCH   4  21
ATOM     21  N   UNL     1       2.799   7.327  18.143  0.00  0.00    +0.000 N 
ATOM     22  H   UNL     1       2.981   7.376  17.149  0.00  0.00    +0.000 HD
BRANCH  21  23
ATOM     23  C   UNL     1       3.535   6.302  18.876  0.00  0.00    +0.000 C 
BRANCH  23  24
ATOM     24  C   UNL     1       2.564   5.153  19.151  0.00  0.00    +0.000 A 
ATOM     25  C   UNL     1       2.212   4.789  20.462  0.00  0.00    +0.000 A 
ATOM     26  C   UNL     1       1.342   3.723  20.696  0.00  0.00    +0.000 A 
ATOM     27  C   UNL     1       0.813   3.005  19.626  0.00  0.00    +0.000 A 
ATOM     28  C   UNL     1       1.147   3.356  18.319  0.00  0.00    +0.000 A 
ATOM     29  C   UNL     1       2.016   4.423  18.082  0.00  0.00    +0.000 A 
ENDBRANCH  23  24
BRANCH  23  30
ATOM     30  C   UNL     1       4.806   5.857  18.153  0.00  0.00    +0.000 A 
ATOM     31  C   UNL     1       5.861   5.195  18.801  0.00  0.00    +0.000 A 
ATOM     32  C   UNL     1       6.997   4.788  18.095  0.00  0.00    +0.000 A 
ATOM     33  C   UNL     1       7.095   5.027  16.726  0.00  0.00    +0.000 A 
ATOM     34  C   UNL     1       6.056   5.672  16.061  0.00  0.00    +0.000 A 
ATOM     35  C   UNL     1       4.921   6.079  16.765  0.00  0.00    +0.000 A 
ENDBRANCH  23  30
ENDBRANCH  21  23
ENDBRANCH   4  21
TORSDOF 6
ENDMDL
MODEL 4
REMARK VINA RESULT:      -9.6      1.016      3.298
REMARK  Name = 
REMARK  6 active torsions:
REMARK  status: ('A' for Active; 'I' for Inactive)
REMARK    1  A    between atoms: C_2  and  C_14
REMARK    2  A    between atoms: N_3  and  C_4
REMARK    3  A    between atoms: C_17  and  N_18
REMARK    4  A    between atoms: N_18  and  C_19
REMARK    5  A    between atoms: C_19  and  C_20
REMARK    6  A    between atoms: C_19  and  C_26
REMARK                            x       y       z     vdW  Elec       q    Type
REMARK                         _______ _______ _______ _____ _____    ______ ____
ROOT
ATOM      1  C   UNL     1       0.051  10.135  20.542  0.00  0.00    +0.000 A 
ATOM      2  C   UNL     1       0.420   9.136  21.448  0.00  0.00    +0.000 A 
ATOM      3  C   UNL     1       1.318   8.136  21.061  0.00  0.00    +0.000 A 
ATOM      4  C   UNL     1       1.883   8.126  19.782  0.00  0.00    +0.000 A 
ATOM      5  C   UNL     1       1.501   9.139  18.891  0.00  0.00    +0.000 A 
ATOM      6  C   UNL     1       0.598  10.144  19.263  0.00  0.00    +0.000 A 
ENDROOT
BRANCH   1   8
ATOM      7  O   UNL     1      -1.622  11.704  20.141  0.00  0.00    +0.000 OA
ATOM      8  C   UNL     1      -0.912  11.170  20.989  0.00  0.00    +0.000 C 
ATOM      9  N   UNL     1      -0.865  11.480  22.342  0.00  0.00    +0.000 N 
ATOM     10  H   UNL     1      -0.090  11.106  22.870  0.00  0.00    +0.000 HD
BRANCH   9  11
ATOM     11  C   UNL     1      -1.663  12.438  22.999  0.00  0.00    +0.000 A 
ATOM     12  C   UNL     1      -2.991  12.200  23.348  0.00  0.00    +0.000 A 
ATOM     13  C   UNL     1      -3.759  13.198  23.946  0.00  0.00    +0.000 A 
ATOM     14  C   UNL     1      -3.211  14.457  24.205  0.00  0.00    +0.000 A 
ATOM     15  C   UNL     1      -3.992  15.476  24.773  0.00  0.00    +0.000 A 
ATOM     16  C   UNL     1      -3.451  16.738  25.011  0.00  0.00    +0.000 A 
ATOM     17  C   UNL     1      -2.123  16.994  24.687  0.00  0.00    +0.000 A 
ATOM     18  C   UNL     1      -1.329  15.988  24.130  0.00  0.00    +0.000 A 
ATOM     19  C   UNL     1      -1.859  14.708  23.879  0.00  0.00    +0.000 A 
ATOM     20  C   UNL     1      -1.091  13.681  23.298  0.00  0.00    +0.000 A 
ENDBRANCH   9  11
ENDBRANCH   1   8
BRANCH   4  21
ATOM     21  N   UNL     1       2.738   7.142  19.339  0.00  0.00    +0.000 N 
ATOM     22  H   UNL     1       3.717   7.219  19.582  0.00  0.00    +0.000 HD
BRANCH  21  23
ATOM     23  C   UNL     1       2.365   5.966  18.558  0.00  0.00    +0.000 C 
BRANCH  23  24
ATOM     24  C   UNL     1       3.524   5.666  17.606  0.00  0.00    +0.000 A 
ATOM     25  C   UNL     1       4.323   6.695  17.078  0.00  0.00    +0.000 A 
ATOM     26  C   UNL     1       5.362   6.407  16.193  0.00  0.00    +0.000 A 
ATOM     27  C   UNL     1       5.618   5.089  15.821  0.00  0.00    +0.000 A 
ATOM     28  C   UNL     1       4.839   4.056  16.338  0.00  0.00    +0.000 A 
ATOM     29  C   UNL     1       3.799   4.341  17.226  0.00  0.00    +0.000 A 
ENDBRANCH  23  24
BRANCH  23  30
ATOM     30  C   UNL     1       1.981   4.774  19.433  0.00  0.00    +0.000 A 
ATOM     31  C   UNL     1       1.156   3.731  18.983  0.00  0.00    +0.000 A 
ATOM     32  C   UNL     1       0.846   2.649  19.812  0.00  0.00    +0.000 A 
ATOM     33  C   UNL     1       1.363   2.585  21.104  0.00  0.00    +0.000 A 
ATOM     34  C   UNL     1       2.192   3.602  21.567  0.00  0.00    +0.000 A 
ATOM     35  C   UNL     1       2.502   4.684  20.740  0.00  0.00    +0.000 A 
ENDBRANCH  23  30
ENDBRANCH  21  23
ENDBRANCH   4  21
TORSDOF 6
ENDMDL
MODEL 5
REMARK VINA RESULT:      -9.6      0.177      1.197
REMARK  Name = 
REMARK  6 active torsions:
REMARK  status: ('A' for Active; 'I' for Inactive)
REMARK    1  A    between atoms: C_2  and  C_14
REMARK    2  A    between atoms: N_3  and  C_4
REMARK    3  A    between atoms: C_17  and  N_18
REMARK    4  A    between atoms: N_18  and  C_19
REMARK    5  A    between atoms: C_19  and  C_20
REMARK    6  A    between atoms: C_19  and  C_26
REMARK                            x       y       z     vdW  Elec       q    Type
REMARK                         _______ _______ _______ _____ _____    ______ ____
ROOT
ATOM      1  C   UNL     1       0.314  10.253  19.870  0.00  0.00    +0.000 A 
ATOM      2  C   UNL     1       0.550  10.294  18.493  0.00  0.00    +0.000 A 
ATOM      3  C   UNL     1       1.344   9.313  17.889  0.00  0.00    +0.000 A 
ATOM      4  C   UNL     1       1.891   8.265  18.634  0.00  0.00    +0.000 A 
ATOM      5  C   UNL     1       1.639   8.242  20.013  0.00  0.00    +0.000 A 
ATOM      6  C   UNL     1       0.851   9.221  20.632  0.00  0.00    +0.000 A 
ENDROOT
BRANCH   1   8
ATOM      7  O   UNL     1      -1.015  12.159  19.725  0.00  0.00    +0.000 OA
ATOM      8  C   UNL     1      -0.525  11.318  20.472  0.00  0.00    +0.000 C 
ATOM      9  N   UNL     1      -0.618  11.287  21.857  0.00  0.00    +0.000 N 
ATOM     10  H   UNL     1       0.006  10.661  22.344  0.00  0.00    +0.000 HD
BRANCH   9  11
ATOM     11  C   UNL     1      -1.338  12.198  22.657  0.00  0.00    +0.000 A 
ATOM     12  C   UNL     1      -2.612  11.923  23.150  0.00  0.00    +0.000 A 
ATOM     13  C   UNL     1      -3.309  12.878  23.890  0.00  0.00    +0.000 A 
ATOM     14  C   UNL     1      -2.742  14.128  24.151  0.00  0.00    +0.000 A 
ATOM     15  C   UNL     1      -3.455  15.104  24.864  0.00  0.00    +0.000 A 
ATOM     16  C   UNL     1      -2.897  16.358  25.105  0.00  0.00    +0.000 A 
ATOM     17  C   UNL     1      -1.620  16.649  24.639  0.00  0.00    +0.000 A 
ATOM     18  C   UNL     1      -0.892  15.685  23.935  0.00  0.00    +0.000 A 
ATOM     19  C   UNL     1      -1.441  14.414  23.679  0.00  0.00    +0.000 A 
ATOM     20  C   UNL     1      -0.742  13.430  22.955  0.00  0.00    +0.000 A 
ENDBRANCH   9  11
ENDBRANCH   1   8
BRANCH   4  21
ATOM     21  N   UNL     1       2.713   7.300  18.095  0.00  0.00    +0.000 N 
ATOM     22  H   UNL     1       2.805   7.264  17.088  0.00  0.00    +0.000 HD
BRANCH  21  23
ATOM     23  C   UNL     1       3.495   6.320  18.843  0.00  0.00    +0.000 C 
BRANCH  23  24
ATOM     24  C   UNL     1       2.567   5.148  19.165  0.00  0.00    +0.000 A 
ATOM     25  C   UNL     1       1.973   4.382  18.147  0.00  0.00    +0.000 A 
ATOM     26  C   UNL     1       1.111   3.330  18.457  0.00  0.00    +0.000 A 
ATOM     27  C   UNL     1       0.828   3.028  19.787  0.00  0.00    +0.000 A 
ATOM     28  C   UNL     1       1.412   3.773  20.810  0.00  0.00    +0.000 A 
ATOM     29  C   UNL     1       2.276   4.825  20.502  0.00  0.00    +0.000 A 
ENDBRANCH  23  24
BRANCH  23  30
ATOM     30  C   UNL     1       4.767   5.897  18.109  0.00  0.00    +0.000 A 
ATOM     31  C   UNL     1       4.977   6.144  16.743  0.00  0.00    +0.000 A 
ATOM     32  C   UNL     1       6.166   5.757  16.116  0.00  0.00    +0.000 A 
ATOM     33  C   UNL     1       7.169   5.124  16.846  0.00  0.00    +0.000 A 
ATOM     34  C   UNL     1       6.987   4.880  18.204  0.00  0.00    +0.000 A 
ATOM     35  C   UNL     1       5.800   5.266  18.831  0.00  0.00    +0.000 A 
ENDBRANCH  23  30
ENDBRANCH  21  23
ENDBRANCH   4  21
TORSDOF 6
ENDMDL
MODEL 6
REMARK VINA RESULT:      -9.6      0.840      3.367
REMARK  Name = 
REMARK  6 active torsions:
REMARK  status: ('A' for Active; 'I' for Inactive)
REMARK    1  A    between atoms: C_2  and  C_14
REMARK    2  A    between atoms: N_3  and  C_4
REMARK    3  A    between atoms: C_17  and  N_18
REMARK    4  A    between atoms: N_18  and  C_19
REMARK    5  A    between atoms: C_19  and  C_20
REMARK    6  A    between atoms: C_19  and  C_26
REMARK                            x       y       z     vdW  Elec       q    Type
REMARK                         _______ _______ _______ _____ _____    ______ ____
ROOT
ATOM      1  C   UNL     1       0.455   9.696  20.090  0.00  0.00    +0.000 A 
ATOM      2  C   UNL     1       0.874   9.792  18.760  0.00  0.00    +0.000 A 
ATOM      3  C   UNL     1       1.808   8.882  18.253  0.00  0.00    +0.000 A 
ATOM      4  C   UNL     1       2.318   7.849  19.045  0.00  0.00    +0.000 A 
ATOM      5  C   UNL     1       1.880   7.771  20.375  0.00  0.00    +0.000 A 
ATOM      6  C   UNL     1       0.951   8.679  20.899  0.00  0.00    +0.000 A 
ENDROOT
BRANCH   1   8
ATOM      7  O   UNL     1      -1.332  11.158  19.792  0.00  0.00    +0.000 OA
ATOM      8  C   UNL     1      -0.529  10.687  20.591  0.00  0.00    +0.000 C 
ATOM      9  N   UNL     1      -0.393  11.032  21.929  0.00  0.00    +0.000 N 
ATOM     10  H   UNL     1       0.441  10.716  22.401  0.00  0.00    +0.000 HD
BRANCH   9  11
ATOM     11  C   UNL     1      -1.192  11.960  22.628  0.00  0.00    +0.000 A 
ATOM     12  C   UNL     1      -2.438  11.631  23.159  0.00  0.00    +0.000 A 
ATOM     13  C   UNL     1      -3.217  12.598  23.793  0.00  0.00    +0.000 A 
ATOM     14  C   UNL     1      -2.764  13.915  23.907  0.00  0.00    +0.000 A 
ATOM     15  C   UNL     1      -3.562  14.898  24.511  0.00  0.00    +0.000 A 
ATOM     16  C   UNL     1      -3.119  16.216  24.605  0.00  0.00    +0.000 A 
ATOM     17  C   UNL     1      -1.872  16.564  24.098  0.00  0.00    +0.000 A 
ATOM     18  C   UNL     1      -1.060  15.595  23.501  0.00  0.00    +0.000 A 
ATOM     19  C   UNL     1      -1.493  14.259  23.395  0.00  0.00    +0.000 A 
ATOM     20  C   UNL     1      -0.709  13.266  22.779  0.00  0.00    +0.000 A 
ENDBRANCH   9  11
ENDBRANCH   1   8
BRANCH   4  21
ATOM     21  N   UNL     1       3.269   6.956  18.607  0.00  0.00    +0.000 N 
ATOM     22  H   UNL     1       4.240   7.164  18.800  0.00  0.00    +0.000 HD
BRANCH  21  23
ATOM     23  C   UNL     1       3.012   5.706  17.897  0.00  0.00    +0.000 C 
BRANCH  23  24
ATOM     24  C   UNL     1       4.307   5.315  17.182  0.00  0.00    +0.000 A 
ATOM     25  C   UNL     1       5.399   6.197  17.111  0.00  0.00    +0.000 A 
ATOM     26  C   UNL     1       6.564   5.835  16.435  0.00  0.00    +0.000 A 
ATOM     27  C   UNL     1       6.656   4.588  15.819  0.00  0.00    +0.000 A 
ATOM     28  C   UNL     1       5.585   3.699  15.885  0.00  0.00    +0.000 A 
ATOM     29  C   UNL     1       4.418   4.059  16.562  0.00  0.00    +0.000 A 
ENDBRANCH  23  24
BRANCH  23  30
ATOM     30  C   UNL     1       2.476   4.607  18.813  0.00  0.00    +0.000 A 
ATOM     31  C   UNL     1       3.016   4.340  20.082  0.00  0.00    +0.000 A 
ATOM     32  C   UNL     1       2.480   3.338  20.896  0.00  0.00    +0.000 A 
ATOM     33  C   UNL     1       1.389   2.590  20.461  0.00  0.00    +0.000 A 
ATOM     34  C   UNL     1       0.830   2.844  19.211  0.00  0.00    +0.000 A 
ATOM     35  C   UNL     1       1.365   3.845  18.398  0.00  0.00    +0.000 A 
ENDBRANCH  23  30
ENDBRANCH  21  23
ENDBRANCH   4  21
TORSDOF 6
ENDMDL
MODEL 7
REMARK VINA RESULT:      -9.5      0.811      3.384
REMARK  Name = 
REMARK  6 active torsions:
REMARK  status: ('A' for Active; 'I' for Inactive)
REMARK    1  A    between atoms: C_2  and  C_14
REMARK    2  A    between atoms: N_3  and  C_4
REMARK    3  A    between atoms: C_17  and  N_18
REMARK    4  A    between atoms: N_18  and  C_19
REMARK    5  A    between atoms: C_19  and  C_20
REMARK    6  A    between atoms: C_19  and  C_26
REMARK                            x       y       z     vdW  Elec       q    Type
REMARK                         _______ _______ _______ _____ _____    ______ ____
ROOT
ATOM      1  C   UNL     1       0.445   9.740  20.124  0.00  0.00    +0.000 A 
ATOM      2  C   UNL     1       0.857   9.826  18.791  0.00  0.00    +0.000 A 
ATOM      3  C   UNL     1       1.784   8.909  18.283  0.00  0.00    +0.000 A 
ATOM      4  C   UNL     1       2.293   7.879  19.079  0.00  0.00    +0.000 A 
ATOM      5  C   UNL     1       1.863   7.810  20.412  0.00  0.00    +0.000 A 
ATOM      6  C   UNL     1       0.940   8.725  20.936  0.00  0.00    +0.000 A 
ENDROOT
BRANCH   1   8
ATOM      7  O   UNL     1      -1.336  11.210  19.828  0.00  0.00    +0.000 OA
ATOM      8  C   UNL     1      -0.531  10.738  20.625  0.00  0.00    +0.000 C 
ATOM      9  N   UNL     1      -0.388  11.089  21.961  0.00  0.00    +0.000 N 
ATOM     10  H   UNL     1       0.447  10.770  22.431  0.00  0.00    +0.000 HD
BRANCH   9  11
ATOM     11  C   UNL     1      -1.179  12.024  22.659  0.00  0.00    +0.000 A 
ATOM     12  C   UNL     1      -2.432  11.709  23.182  0.00  0.00    +0.000 A 
ATOM     13  C   UNL     1      -3.202  12.683  23.816  0.00  0.00    +0.000 A 
ATOM     14  C   UNL     1      -2.733  13.993  23.938  0.00  0.00    +0.000 A 
ATOM     15  C   UNL     1      -3.521  14.984  24.542  0.00  0.00    +0.000 A 
ATOM     16  C   UNL     1      -3.062  16.296  24.644  0.00  0.00    +0.000 A 
ATOM     17  C   UNL     1      -1.807  16.630  24.145  0.00  0.00    +0.000 A 
ATOM     18  C   UNL     1      -1.005  15.653  23.549  0.00  0.00    +0.000 A 
ATOM     19  C   UNL     1      -1.455  14.324  23.434  0.00  0.00    +0.000 A 
ATOM     20  C   UNL     1      -0.679  13.323  22.819  0.00  0.00    +0.000 A 
ENDBRANCH   9  11
ENDBRANCH   1   8
BRANCH   4  21
ATOM     21  N   UNL     1       3.237   6.978  18.640  0.00  0.00    +0.000 N 
ATOM     22  H   UNL     1       4.206   7.158  18.868  0.00  0.00    +0.000 HD
BRANCH  21  23
ATOM     23  C   UNL     1       2.975   5.757  17.884  0.00  0.00    +0.000 C 
BRANCH  23  24
ATOM     24  C   UNL     1       4.276   5.371  17.179  0.00  0.00    +0.000 A 
ATOM     25  C   UNL     1       4.410   4.142  16.510  0.00  0.00    +0.000 A 
ATOM     26  C   UNL     1       5.611   3.793  15.892  0.00  0.00    +0.000 A 
ATOM     27  C   UNL     1       6.696   4.667  15.933  0.00  0.00    +0.000 A 
ATOM     28  C   UNL     1       6.580   5.891  16.587  0.00  0.00    +0.000 A 
ATOM     29  C   UNL     1       5.379   6.243  17.205  0.00  0.00    +0.000 A 
ENDBRANCH  23  24
BRANCH  23  30
ATOM     30  C   UNL     1       2.405   4.637  18.753  0.00  0.00    +0.000 A 
ATOM     31  C   UNL     1       1.349   3.810  18.335  0.00  0.00    +0.000 A 
ATOM     32  C   UNL     1       0.872   2.783  19.155  0.00  0.00    +0.000 A 
ATOM     33  C   UNL     1       1.447   2.558  20.404  0.00  0.00    +0.000 A 
ATOM     34  C   UNL     1       2.503   3.357  20.833  0.00  0.00    +0.000 A 
ATOM     35  C   UNL     1       2.980   4.383  20.015  0.00  0.00    +0.000 A 
ENDBRANCH  23  30
ENDBRANCH  21  23
ENDBRANCH   4  21
TORSDOF 6
ENDMDL
MODEL 8
REMARK VINA RESULT:      -9.5      0.928      3.533
REMARK  Name = 
REMARK  6 active torsions:
REMARK  status: ('A' for Active; 'I' for Inactive)
REMARK    1  A    between atoms: C_2  and  C_14
REMARK    2  A    between atoms: N_3  and  C_4
REMARK    3  A    between atoms: C_17  and  N_18
REMARK    4  A    between atoms: N_18  and  C_19
REMARK    5  A    between atoms: C_19  and  C_20
REMARK    6  A    between atoms: C_19  and  C_26
REMARK                            x       y       z     vdW  Elec       q    Type
REMARK                         _______ _______ _______ _____ _____    ______ ____
ROOT
ATOM      1  C   UNL     1      -0.066  10.225  20.985  0.00  0.00    +0.000 A 
ATOM      2  C   UNL     1       0.498  10.153  19.708  0.00  0.00    +0.000 A 
ATOM      3  C   UNL     1       1.371   9.110  19.385  0.00  0.00    +0.000 A 
ATOM      4  C   UNL     1       1.677   8.109  20.312  0.00  0.00    +0.000 A 
ATOM      5  C   UNL     1       1.098   8.199  21.585  0.00  0.00    +0.000 A 
ATOM      6  C   UNL     1       0.227   9.242  21.925  0.00  0.00    +0.000 A 
ENDROOT
BRANCH   1   8
ATOM      7  O   UNL     1      -1.419  12.010  20.350  0.00  0.00    +0.000 OA
ATOM      8  C   UNL     1      -0.979  11.354  21.289  0.00  0.00    +0.000 C 
ATOM      9  N   UNL     1      -1.195  11.594  22.640  0.00  0.00    +0.000 N 
ATOM     10  H   UNL     1      -0.603  11.102  23.293  0.00  0.00    +0.000 HD
BRANCH   9  11
ATOM     11  C   UNL     1      -2.003  12.616  23.178  0.00  0.00    +0.000 A 
ATOM     12  C   UNL     1      -3.391  12.514  23.258  0.00  0.00    +0.000 A 
ATOM     13  C   UNL     1      -4.154  13.574  23.747  0.00  0.00    +0.000 A 
ATOM     14  C   UNL     1      -3.542  14.759  24.163  0.00  0.00    +0.000 A 
ATOM     15  C   UNL     1      -4.310  15.840  24.620  0.00  0.00    +0.000 A 
ATOM     16  C   UNL     1      -3.699  17.030  25.015  0.00  0.00    +0.000 A 
ATOM     17  C   UNL     1      -2.315  17.149  24.960  0.00  0.00    +0.000 A 
ATOM     18  C   UNL     1      -1.535  16.077  24.517  0.00  0.00    +0.000 A 
ATOM     19  C   UNL     1      -2.134  14.870  24.110  0.00  0.00    +0.000 A 
ATOM     20  C   UNL     1      -1.377  13.781  23.638  0.00  0.00    +0.000 A 
ENDBRANCH   9  11
ENDBRANCH   1   8
BRANCH   4  21
ATOM     21  N   UNL     1       2.562   7.085  20.058  0.00  0.00    +0.000 N 
ATOM     22  H   UNL     1       3.266   6.883  20.756  0.00  0.00    +0.000 HD
BRANCH  21  23
ATOM     23  C   UNL     1       2.576   6.234  18.871  0.00  0.00    +0.000 C 
BRANCH  23  24
ATOM     24  C   UNL     1       4.024   6.157  18.384  0.00  0.00    +0.000 A 
ATOM     25  C   UNL     1       5.006   5.462  19.112  0.00  0.00    +0.000 A 
ATOM     26  C   UNL     1       6.327   5.421  18.666  0.00  0.00    +0.000 A 
ATOM     27  C   UNL     1       6.687   6.072  17.487  0.00  0.00    +0.000 A 
ATOM     28  C   UNL     1       5.726   6.760  16.750  0.00  0.00    +0.000 A 
ATOM     29  C   UNL     1       4.403   6.802  17.194  0.00  0.00    +0.000 A 
ENDBRANCH  23  24
BRANCH  23  30
ATOM     30  C   UNL     1       1.952   4.862  19.123  0.00  0.00    +0.000 A 
ATOM     31  C   UNL     1       1.791   3.900  18.112  0.00  0.00    +0.000 A 
ATOM     32  C   UNL     1       1.232   2.650  18.392  0.00  0.00    +0.000 A 
ATOM     33  C   UNL     1       0.833   2.334  19.688  0.00  0.00    +0.000 A 
ATOM     34  C   UNL     1       0.994   3.267  20.708  0.00  0.00    +0.000 A 
ATOM     35  C   UNL     1       1.551   4.517  20.430  0.00  0.00    +0.000 A 
ENDBRANCH  23  30
ENDBRANCH  21  23
ENDBRANCH   4  21
TORSDOF 6
ENDMDL
MODEL 9
REMARK VINA RESULT:      -9.4      0.950      3.369
REMARK  Name = 
REMARK  6 active torsions:
REMARK  status: ('A' for Active; 'I' for Inactive)
REMARK    1  A    between atoms: C_2  and  C_14
REMARK    2  A    between atoms: N_3  and  C_4
REMARK    3  A    between atoms: C_17  and  N_18
REMARK    4  A    between atoms: N_18  and  C_19
REMARK    5  A    between atoms: C_19  and  C_20
REMARK    6  A    between atoms: C_19  and  C_26
REMARK                            x       y       z     vdW  Elec       q    Type
REMARK                         _______ _______ _______ _____ _____    ______ ____
ROOT
ATOM      1  C   UNL     1      -0.062  10.155  20.910  0.00  0.00    +0.000 A 
ATOM      2  C   UNL     1       0.537  10.087  19.649  0.00  0.00    +0.000 A 
ATOM      3  C   UNL     1       1.414   9.041  19.345  0.00  0.00    +0.000 A 
ATOM      4  C   UNL     1       1.689   8.034  20.275  0.00  0.00    +0.000 A 
ATOM      5  C   UNL     1       1.076   8.121  21.533  0.00  0.00    +0.000 A 
ATOM      6  C   UNL     1       0.200   9.167  21.853  0.00  0.00    +0.000 A 
ENDROOT
BRANCH   1   8
ATOM      7  O   UNL     1      -1.386  11.952  20.248  0.00  0.00    +0.000 OA
ATOM      8  C   UNL     1      -0.978  11.287  21.195  0.00  0.00    +0.000 C 
ATOM      9  N   UNL     1      -1.233  11.519  22.540  0.00  0.00    +0.000 N 
ATOM     10  H   UNL     1      -0.664  11.019  23.207  0.00  0.00    +0.000 HD
BRANCH   9  11
ATOM     11  C   UNL     1      -2.053  12.541  23.061  0.00  0.00    +0.000 A 
ATOM     12  C   UNL     1      -3.444  12.494  23.002  0.00  0.00    +0.000 A 
ATOM     13  C   UNL     1      -4.212  13.555  23.480  0.00  0.00    +0.000 A 
ATOM     14  C   UNL     1      -3.600  14.687  24.026  0.00  0.00    +0.000 A 
ATOM     15  C   UNL     1      -4.369  15.772  24.473  0.00  0.00    +0.000 A 
ATOM     16  C   UNL     1      -3.757  16.909  24.997  0.00  0.00    +0.000 A 
ATOM     17  C   UNL     1      -2.371  16.972  25.082  0.00  0.00    +0.000 A 
ATOM     18  C   UNL     1      -1.590  15.896  24.649  0.00  0.00    +0.000 A 
ATOM     19  C   UNL     1      -2.191  14.741  24.114  0.00  0.00    +0.000 A 
ATOM     20  C   UNL     1      -1.432  13.650  23.649  0.00  0.00    +0.000 A 
ENDBRANCH   9  11
ENDBRANCH   1   8
BRANCH   4  21
ATOM     21  N   UNL     1       2.577   7.008  20.041  0.00  0.00    +0.000 N 
ATOM     22  H   UNL     1       3.239   6.778  20.770  0.00  0.00    +0.000 HD
BRANCH  21  23
ATOM     23  C   UNL     1       2.647   6.190  18.833  0.00  0.00    +0.000 C 
BRANCH  23  24
ATOM     24  C   UNL     1       4.109   6.165  18.385  0.00  0.00    +0.000 A 
ATOM     25  C   UNL     1       4.523   6.797  17.200  0.00  0.00    +0.000 A 
ATOM     26  C   UNL     1       5.857   6.745  16.793  0.00  0.00    +0.000 A 
ATOM     27  C   UNL     1       6.796   6.063  17.563  0.00  0.00    +0.000 A 
ATOM     28  C   UNL     1       6.405   5.436  18.744  0.00  0.00    +0.000 A 
ATOM     29  C   UNL     1       5.071   5.487  19.154  0.00  0.00    +0.000 A 
ENDBRANCH  23  24
BRANCH  23  30
ATOM     30  C   UNL     1       2.054   4.796  19.030  0.00  0.00    +0.000 A 
ATOM     31  C   UNL     1       1.373   4.415  20.198  0.00  0.00    +0.000 A 
ATOM     32  C   UNL     1       0.828   3.134  20.327  0.00  0.00    +0.000 A 
ATOM     33  C   UNL     1       0.946   2.213  19.289  0.00  0.00    +0.000 A 
ATOM     34  C   UNL     1       1.607   2.573  18.118  0.00  0.00    +0.000 A 
ATOM     35  C   UNL     1       2.152   3.852  17.987  0.00  0.00    +0.000 A 
ENDBRANCH  23  30
ENDBRANCH  21  23
ENDBRANCH   4  21
TORSDOF 6
ENDMDL
