MODEL 1
REMARK VINA RESULT:      -6.9      0.000      0.000
REMARK  Name = 
REMARK  10 active torsions:
REMARK  status: ('A' for Active; 'I' for Inactive)
REMARK    1  A    between atoms: C_1  and  C_2
REMARK    2  A    between atoms: C_2  and  C_3
REMARK    3  A    between atoms: C_3  and  S_4
REMARK    4  A    between atoms: S_4  and  C_5
REMARK    5  A    between atoms: C_5  and  C_6
REMARK    6  A    between atoms: C_6  and  C_7
REMARK    7  A    between atoms: C_12  and  C_13
REMARK    8  A    between atoms: C_16  and  N_17
REMARK    9  A    between atoms: C_16  and  C_18
REMARK   10  A    between atoms: C_18  and  O_19
REMARK                            x       y       z     vdW  Elec       q    Type
REMARK                         _______ _______ _______ _____ _____    ______ ____
ROOT
ATOM      1  C   UNL     1       3.541   5.534  18.413  0.00  0.00    +0.000 C 
ATOM      2  C   UNL     1       4.081   6.742  17.626  0.00  0.00    +0.000 C 
ATOM      3  C   UNL     1       2.990   7.793  17.390  0.00  0.00    +0.000 C 
ATOM      4  C   UNL     1       2.229   8.152  18.643  0.00  0.00    +0.000 A 
ATOM      5  C   UNL     1       1.492   9.353  18.712  0.00  0.00    +0.000 A 
ATOM      6  C   UNL     1       0.737   9.693  19.853  0.00  0.00    +0.000 A 
ATOM      7  C   UNL     1       0.736   8.789  20.921  0.00  0.00    +0.000 A 
ATOM      8  C   UNL     1       1.452   7.600  20.864  0.00  0.00    +0.000 A 
ATOM      9  C   UNL     1       2.201   7.270  19.733  0.00  0.00    +0.000 A 
ATOM     10  C   UNL     1       3.008   6.003  19.774  0.00  0.00    +0.000 C 
ENDROOT
BRANCH   6  11
ATOM     11  C   UNL     1       0.003  11.028  19.917  0.00  0.00    +0.000 C 
ATOM     12  C   UNL     1       0.505  12.053  18.872  0.00  0.00    +0.000 C 
ATOM     13  C   UNL     1      -0.724  12.512  18.073  0.00  0.00    +0.000 C 
ATOM     14  C   UNL     1      -1.753  11.388  18.237  0.00  0.00    +0.000 C 
ATOM     15  C   UNL     1      -1.529  11.012  19.708  0.00  0.00    +0.000 C 
BRANCH  14  16
ATOM     16  N   UNL     1      -1.402  10.298  17.312  0.00  0.00    +0.000 NA
ATOM     17  H   UNL     1      -0.384  10.290  17.206  0.00  0.00    +0.000 HD
ATOM     18  H   UNL     1      -1.750  10.513  16.378  0.00  0.00    +0.000 HD
ENDBRANCH  14  16
BRANCH  14  19
ATOM     19  C   UNL     1      -3.205  11.832  17.970  0.00  0.00    +0.000 C 
BRANCH  19  20
ATOM     20  O   UNL     1      -3.759  12.487  19.111  0.00  0.00    +0.000 OA
ATOM     21  H   UNL     1      -4.710  12.604  18.942  0.00  0.00    +0.000 HD
ENDBRANCH  19  20
ENDBRANCH  14  19
ENDBRANCH   6  11
BRANCH   1  22
ATOM     22  C   UNL     1       4.642   4.470  18.604  0.00  0.00    +0.000 C 
BRANCH  22  23
ATOM     23  C   UNL     1       4.091   3.045  18.766  0.00  0.00    +0.000 C 
BRANCH  23  24
ATOM     24  S   UNL     1       2.630   2.835  17.702  0.00  0.00    +0.000 S 
BRANCH  24  25
ATOM     25  C   UNL     1       1.502   2.049  18.902  0.00  0.00    +0.000 C 
BRANCH  25  27
ATOM     26  C   UNL     1       1.334   2.909  21.272  0.00  0.00    +0.000 C 
ATOM     27  C   UNL     1       0.933   3.128  19.822  0.00  0.00    +0.000 C 
ENDBRANCH  25  27
ENDBRANCH  24  25
ENDBRANCH  23  24
ENDBRANCH  22  23
ENDBRANCH   1  22
TORSDOF 9
ENDMDL
MODEL 2
REMARK VINA RESULT:      -6.7      4.615      8.469
REMARK  Name = 
REMARK  10 active torsions:
REMARK  status: ('A' for Active; 'I' for Inactive)
REMARK    1  A    between atoms: C_1  and  C_2
REMARK    2  A    between atoms: C_2  and  C_3
REMARK    3  A    between atoms: C_3  and  S_4
REMARK    4  A    between atoms: S_4  and  C_5
REMARK    5  A    between atoms: C_5  and  C_6
REMARK    6  A    between atoms: C_6  and  C_7
REMARK    7  A    between atoms: C_12  and  C_13
REMARK    8  A    between atoms: C_16  and  N_17
REMARK    9  A    between atoms: C_16  and  C_18
REMARK   10  A    between atoms: C_18  and  O_19
REMARK                            x       y       z     vdW  Elec       q    Type
REMARK                         _______ _______ _______ _____ _____    ______ ____
ROOT
ATOM      1  C   UNL     1      -0.286  10.408  20.778  0.00  0.00    +0.000 C 
ATOM      2  C   UNL     1       0.577   9.773  21.883  0.00  0.00    +0.000 C 
ATOM      3  C   UNL     1       1.010   8.350  21.512  0.00  0.00    +0.000 C 
ATOM      4  C   UNL     1       1.597   8.249  20.124  0.00  0.00    +0.000 A 
ATOM      5  C   UNL     1       2.401   7.146  19.768  0.00  0.00    +0.000 A 
ATOM      6  C   UNL     1       2.926   7.005  18.467  0.00  0.00    +0.000 A 
ATOM      7  C   UNL     1       2.615   7.998  17.532  0.00  0.00    +0.000 A 
ATOM      8  C   UNL     1       1.819   9.086  17.869  0.00  0.00    +0.000 A 
ATOM      9  C   UNL     1       1.305   9.223  19.159  0.00  0.00    +0.000 A 
ATOM     10  C   UNL     1       0.514  10.463  19.468  0.00  0.00    +0.000 C 
ENDROOT
BRANCH   6  11
ATOM     11  C   UNL     1       3.842   5.833  18.133  0.00  0.00    +0.000 C 
ATOM     12  C   UNL     1       4.531   5.221  19.377  0.00  0.00    +0.000 C 
ATOM     13  C   UNL     1       4.205   3.719  19.372  0.00  0.00    +0.000 C 
ATOM     14  C   UNL     1       2.929   3.587  18.534  0.00  0.00    +0.000 C 
ATOM     15  C   UNL     1       3.211   4.611  17.426  0.00  0.00    +0.000 C 
BRANCH  14  16
ATOM     16  N   UNL     1       1.780   3.962  19.375  0.00  0.00    +0.000 NA
ATOM     17  H   UNL     1       1.287   4.729  18.911  0.00  0.00    +0.000 HD
ATOM     18  H   UNL     1       2.111   4.368  20.250  0.00  0.00    +0.000 HD
ENDBRANCH  14  16
BRANCH  14  19
ATOM     19  C   UNL     1       2.703   2.172  17.967  0.00  0.00    +0.000 C 
BRANCH  19  20
ATOM     20  O   UNL     1       3.899   1.396  18.030  0.00  0.00    +0.000 OA
ATOM     21  H   UNL     1       3.655   0.474  17.837  0.00  0.00    +0.000 HD
ENDBRANCH  19  20
ENDBRANCH  14  19
ENDBRANCH   6  11
BRANCH   1  22
ATOM     22  C   UNL     1      -0.745  11.823  21.187  0.00  0.00    +0.000 C 
BRANCH  22  23
ATOM     23  C   UNL     1      -0.975  11.976  22.697  0.00  0.00    +0.000 C 
BRANCH  23  24
ATOM     24  S   UNL     1      -1.178  13.738  23.105  0.00  0.00    +0.000 S 
BRANCH  24  25
ATOM     25  C   UNL     1      -2.978  13.768  23.403  0.00  0.00    +0.000 C 
BRANCH  25  27
ATOM     26  C   UNL     1      -4.536  12.356  24.805  0.00  0.00    +0.000 C 
ATOM     27  C   UNL     1      -3.442  12.353  23.750  0.00  0.00    +0.000 C 
ENDBRANCH  25  27
ENDBRANCH  24  25
ENDBRANCH  23  24
ENDBRANCH  22  23
ENDBRANCH   1  22
TORSDOF 9
ENDMDL
MODEL 3
REMARK VINA RESULT:      -6.7      4.321      8.225
REMARK  Name = 
REMARK  10 active torsions:
REMARK  status: ('A' for Active; 'I' for Inactive)
REMARK    1  A    between atoms: C_1  and  C_2
REMARK    2  A    between atoms: C_2  and  C_3
REMARK    3  A    between atoms: C_3  and  S_4
REMARK    4  A    between atoms: S_4  and  C_5
REMARK    5  A    between atoms: C_5  and  C_6
REMARK    6  A    between atoms: C_6  and  C_7
REMARK    7  A    between atoms: C_12  and  C_13
REMARK    8  A    between atoms: C_16  and  N_17
REMARK    9  A    between atoms: C_16  and  C_18
REMARK   10  A    between atoms: C_18  and  O_19
REMARK                            x       y       z     vdW  Elec       q    Type
REMARK                         _______ _______ _______ _____ _____    ______ ____
ROOT
ATOM      1  C   UNL     1      -0.001  10.551  20.086  0.00  0.00    +0.000 C 
ATOM      2  C   UNL     1       0.617   9.993  21.381  0.00  0.00    +0.000 C 
ATOM      3  C   UNL     1       0.901   8.491  21.266  0.00  0.00    +0.000 C 
ATOM      4  C   UNL     1       1.647   8.121  20.007  0.00  0.00    +0.000 A 
ATOM      5  C   UNL     1       2.337   6.894  19.921  0.00  0.00    +0.000 A 
ATOM      6  C   UNL     1       3.005   6.504  18.742  0.00  0.00    +0.000 A 
ATOM      7  C   UNL     1       2.955   7.376  17.651  0.00  0.00    +0.000 A 
ATOM      8  C   UNL     1       2.274   8.585  17.720  0.00  0.00    +0.000 A 
ATOM      9  C   UNL     1       1.617   8.968  18.890  0.00  0.00    +0.000 A 
ATOM     10  C   UNL     1       0.964  10.321  18.915  0.00  0.00    +0.000 C 
ENDROOT
BRANCH   6  11
ATOM     11  C   UNL     1       3.793   5.198  18.704  0.00  0.00    +0.000 C 
ATOM     12  C   UNL     1       3.861   4.565  17.293  0.00  0.00    +0.000 C 
ATOM     13  C   UNL     1       5.349   4.350  16.974  0.00  0.00    +0.000 C 
ATOM     14  C   UNL     1       6.100   5.340  17.871  0.00  0.00    +0.000 C 
ATOM     15  C   UNL     1       5.271   5.241  19.159  0.00  0.00    +0.000 C 
BRANCH  14  16
ATOM     16  N   UNL     1       6.030   6.674  17.251  0.00  0.00    +0.000 NA
ATOM     17  H   UNL     1       6.986   6.979  17.050  0.00  0.00    +0.000 HD
ATOM     18  H   UNL     1       5.688   7.352  17.931  0.00  0.00    +0.000 HD
ENDBRANCH  14  16
BRANCH  14  19
ATOM     19  C   UNL     1       7.576   4.967  18.107  0.00  0.00    +0.000 C 
BRANCH  19  20
ATOM     20  O   UNL     1       7.957   5.207  19.461  0.00  0.00    +0.000 OA
ATOM     21  H   UNL     1       7.621   6.087  19.704  0.00  0.00    +0.000 HD
ENDBRANCH  19  20
ENDBRANCH  14  19
ENDBRANCH   6  11
BRANCH   1  22
ATOM     22  C   UNL     1      -0.319  12.054  20.235  0.00  0.00    +0.000 C 
BRANCH  22  23
ATOM     23  C   UNL     1      -1.255  12.591  19.142  0.00  0.00    +0.000 C 
BRANCH  23  24
ATOM     24  S   UNL     1      -2.972  12.139  19.539  0.00  0.00    +0.000 S 
BRANCH  24  25
ATOM     25  C   UNL     1      -3.489  11.486  17.915  0.00  0.00    +0.000 C 
BRANCH  25  27
ATOM     26  C   UNL     1      -2.622  10.277  15.872  0.00  0.00    +0.000 C 
ATOM     27  C   UNL     1      -2.259  10.937  17.192  0.00  0.00    +0.000 C 
ENDBRANCH  25  27
ENDBRANCH  24  25
ENDBRANCH  23  24
ENDBRANCH  22  23
ENDBRANCH   1  22
TORSDOF 9
ENDMDL
MODEL 4
REMARK VINA RESULT:      -6.6      3.972      7.998
REMARK  Name = 
REMARK  10 active torsions:
REMARK  status: ('A' for Active; 'I' for Inactive)
REMARK    1  A    between atoms: C_1  and  C_2
REMARK    2  A    between atoms: C_2  and  C_3
REMARK    3  A    between atoms: C_3  and  S_4
REMARK    4  A    between atoms: S_4  and  C_5
REMARK    5  A    between atoms: C_5  and  C_6
REMARK    6  A    between atoms: C_6  and  C_7
REMARK    7  A    between atoms: C_12  and  C_13
REMARK    8  A    between atoms: C_16  and  N_17
REMARK    9  A    between atoms: C_16  and  C_18
REMARK   10  A    between atoms: C_18  and  O_19
REMARK                            x       y       z     vdW  Elec       q    Type
REMARK                         _______ _______ _______ _____ _____    ______ ____
ROOT
ATOM      1  C   UNL     1       0.016  11.101  19.475  0.00  0.00    +0.000 C 
ATOM      2  C   UNL     1       0.530  10.879  20.909  0.00  0.00    +0.000 C 
ATOM      3  C   UNL     1       0.644   9.386  21.241  0.00  0.00    +0.000 C 
ATOM      4  C   UNL     1       1.376   8.596  20.184  0.00  0.00    +0.000 A 
ATOM      5  C   UNL     1       1.923   7.332  20.489  0.00  0.00    +0.000 A 
ATOM      6  C   UNL     1       2.575   6.554  19.510  0.00  0.00    +0.000 A 
ATOM      7  C   UNL     1       2.655   7.076  18.216  0.00  0.00    +0.000 A 
ATOM      8  C   UNL     1       2.115   8.316  17.901  0.00  0.00    +0.000 A 
ATOM      9  C   UNL     1       1.474   9.084  18.874  0.00  0.00    +0.000 A 
ATOM     10  C   UNL     1       0.980  10.447  18.476  0.00  0.00    +0.000 C 
ENDROOT
BRANCH   6  11
ATOM     11  C   UNL     1       3.209   5.219  19.890  0.00  0.00    +0.000 C 
ATOM     12  C   UNL     1       2.316   4.359  20.816  0.00  0.00    +0.000 C 
ATOM     13  C   UNL     1       2.156   2.991  20.134  0.00  0.00    +0.000 C 
ATOM     14  C   UNL     1       2.428   3.248  18.648  0.00  0.00    +0.000 C 
ATOM     15  C   UNL     1       3.584   4.253  18.741  0.00  0.00    +0.000 C 
BRANCH  14  16
ATOM     16  N   UNL     1       1.216   3.830  18.049  0.00  0.00    +0.000 NA
ATOM     17  H   UNL     1       1.236   4.840  18.213  0.00  0.00    +0.000 HD
ATOM     18  H   UNL     1       0.392   3.509  18.556  0.00  0.00    +0.000 HD
ENDBRANCH  14  16
BRANCH  14  19
ATOM     19  C   UNL     1       2.826   1.984  17.863  0.00  0.00    +0.000 C 
BRANCH  19  20
ATOM     20  O   UNL     1       4.231   1.955  17.613  0.00  0.00    +0.000 OA
ATOM     21  H   UNL     1       4.650   1.513  18.371  0.00  0.00    +0.000 HD
ENDBRANCH  19  20
ENDBRANCH  14  19
ENDBRANCH   6  11
BRANCH   1  22
ATOM     22  C   UNL     1      -0.131  12.607  19.174  0.00  0.00    +0.000 C 
BRANCH  22  23
ATOM     23  C   UNL     1      -1.430  13.215  19.723  0.00  0.00    +0.000 C 
BRANCH  23  24
ATOM     24  S   UNL     1      -2.797  12.035  19.496  0.00  0.00    +0.000 S 
BRANCH  24  25
ATOM     25  C   UNL     1      -2.628  11.728  17.706  0.00  0.00    +0.000 C 
BRANCH  25  27
ATOM     26  C   UNL     1      -2.793   9.913  15.955  0.00  0.00    +0.000 C 
ATOM     27  C   UNL     1      -2.961  10.263  17.424  0.00  0.00    +0.000 C 
ENDBRANCH  25  27
ENDBRANCH  24  25
ENDBRANCH  23  24
ENDBRANCH  22  23
ENDBRANCH   1  22
TORSDOF 9
ENDMDL
MODEL 5
REMARK VINA RESULT:      -6.6      1.923      2.391
REMARK  Name = 
REMARK  10 active torsions:
REMARK  status: ('A' for Active; 'I' for Inactive)
REMARK    1  A    between atoms: C_1  and  C_2
REMARK    2  A    between atoms: C_2  and  C_3
REMARK    3  A    between atoms: C_3  and  S_4
REMARK    4  A    between atoms: S_4  and  C_5
REMARK    5  A    between atoms: C_5  and  C_6
REMARK    6  A    between atoms: C_6  and  C_7
REMARK    7  A    between atoms: C_12  and  C_13
REMARK    8  A    between atoms: C_16  and  N_17
REMARK    9  A    between atoms: C_16  and  C_18
REMARK   10  A    between atoms: C_18  and  O_19
REMARK                            x       y       z     vdW  Elec       q    Type
REMARK                         _______ _______ _______ _____ _____    ______ ____
ROOT
ATOM      1  C   UNL     1       4.056   5.006  18.388  0.00  0.00    +0.000 C 
ATOM      2  C   UNL     1       4.745   6.062  17.505  0.00  0.00    +0.000 C 
ATOM      3  C   UNL     1       3.744   7.099  16.983  0.00  0.00    +0.000 C 
ATOM      4  C   UNL     1       2.859   7.669  18.065  0.00  0.00    +0.000 A 
ATOM      5  C   UNL     1       2.180   8.889  17.863  0.00  0.00    +0.000 A 
ATOM      6  C   UNL     1       1.314   9.423  18.840  0.00  0.00    +0.000 A 
ATOM      7  C   UNL     1       1.142   8.693  20.020  0.00  0.00    +0.000 A 
ATOM      8  C   UNL     1       1.799   7.487  20.228  0.00  0.00    +0.000 A 
ATOM      9  C   UNL     1       2.658   6.965  19.260  0.00  0.00    +0.000 A 
ATOM     10  C   UNL     1       3.390   5.693  19.587  0.00  0.00    +0.000 C 
ENDROOT
BRANCH   6  11
ATOM     11  C   UNL     1       0.646  10.774  18.614  0.00  0.00    +0.000 C 
ATOM     12  C   UNL     1      -0.744  10.890  19.287  0.00  0.00    +0.000 C 
ATOM     13  C   UNL     1      -0.704  12.141  20.177  0.00  0.00    +0.000 C 
ATOM     14  C   UNL     1       0.781  12.382  20.467  0.00  0.00    +0.000 C 
ATOM     15  C   UNL     1       1.396  12.034  19.105  0.00  0.00    +0.000 C 
BRANCH  14  16
ATOM     16  N   UNL     1       1.202  11.456  21.533  0.00  0.00    +0.000 NA
ATOM     17  H   UNL     1       0.479  11.459  22.257  0.00  0.00    +0.000 HD
ATOM     18  H   UNL     1       2.030  11.823  22.002  0.00  0.00    +0.000 HD
ENDBRANCH  14  16
BRANCH  14  19
ATOM     19  C   UNL     1       1.105  13.826  20.894  0.00  0.00    +0.000 C 
BRANCH  19  20
ATOM     20  O   UNL     1       0.703  14.065  22.243  0.00  0.00    +0.000 OA
ATOM     21  H   UNL     1       0.269  13.256  22.563  0.00  0.00    +0.000 HD
ENDBRANCH  19  20
ENDBRANCH  14  19
ENDBRANCH   6  11
BRANCH   1  22
ATOM     22  C   UNL     1       5.072   3.948  18.869  0.00  0.00    +0.000 C 
BRANCH  22  23
ATOM     23  C   UNL     1       4.422   2.776  19.619  0.00  0.00    +0.000 C 
BRANCH  23  24
ATOM     24  S   UNL     1       3.578   1.687  18.430  0.00  0.00    +0.000 S 
BRANCH  24  25
ATOM     25  C   UNL     1       1.862   2.257  18.675  0.00  0.00    +0.000 C 
BRANCH  25  27
ATOM     26  C   UNL     1       0.881   3.712  20.493  0.00  0.00    +0.000 C 
ATOM     27  C   UNL     1       1.605   2.415  20.174  0.00  0.00    +0.000 C 
ENDBRANCH  25  27
ENDBRANCH  24  25
ENDBRANCH  23  24
ENDBRANCH  22  23
ENDBRANCH   1  22
TORSDOF 9
ENDMDL
MODEL 6
REMARK VINA RESULT:      -6.6      1.906      3.310
REMARK  Name = 
REMARK  10 active torsions:
REMARK  status: ('A' for Active; 'I' for Inactive)
REMARK    1  A    between atoms: C_1  and  C_2
REMARK    2  A    between atoms: C_2  and  C_3
REMARK    3  A    between atoms: C_3  and  S_4
REMARK    4  A    between atoms: S_4  and  C_5
REMARK    5  A    between atoms: C_5  and  C_6
REMARK    6  A    between atoms: C_6  and  C_7
REMARK    7  A    between atoms: C_12  and  C_13
REMARK    8  A    between atoms: C_16  and  N_17
REMARK    9  A    between atoms: C_16  and  C_18
REMARK   10  A    between atoms: C_18  and  O_19
REMARK                            x       y       z     vdW  Elec       q    Type
REMARK                         _______ _______ _______ _____ _____    ______ ____
ROOT
ATOM      1  C   UNL     1       3.614   5.385  19.287  0.00  0.00    +0.000 C 
ATOM      2  C   UNL     1       2.372   5.188  20.173  0.00  0.00    +0.000 C 
ATOM      3  C   UNL     1       1.933   6.502  20.829  0.00  0.00    +0.000 C 
ATOM      4  C   UNL     1       1.829   7.648  19.852  0.00  0.00    +0.000 A 
ATOM      5  C   UNL     1       1.073   8.795  20.175  0.00  0.00    +0.000 A 
ATOM      6  C   UNL     1       0.993   9.897  19.300  0.00  0.00    +0.000 A 
ATOM      7  C   UNL     1       1.700   9.821  18.096  0.00  0.00    +0.000 A 
ATOM      8  C   UNL     1       2.454   8.701  17.769  0.00  0.00    +0.000 A 
ATOM      9  C   UNL     1       2.527   7.610  18.637  0.00  0.00    +0.000 A 
ATOM     10  C   UNL     1       3.302   6.405  18.183  0.00  0.00    +0.000 C 
ENDROOT
BRANCH   6  11
ATOM     11  C   UNL     1       0.116  11.094  19.653  0.00  0.00    +0.000 C 
ATOM     12  C   UNL     1       0.365  12.324  18.747  0.00  0.00    +0.000 C 
ATOM     13  C   UNL     1      -0.997  12.724  18.157  0.00  0.00    +0.000 C 
ATOM     14  C   UNL     1      -1.856  11.458  18.234  0.00  0.00    +0.000 C 
ATOM     15  C   UNL     1      -1.417  10.899  19.594  0.00  0.00    +0.000 C 
BRANCH  14  16
ATOM     16  N   UNL     1      -1.488  10.578  17.112  0.00  0.00    +0.000 NA
ATOM     17  H   UNL     1      -0.588  10.143  17.335  0.00  0.00    +0.000 HD
ATOM     18  H   UNL     1      -1.297  11.139  16.282  0.00  0.00    +0.000 HD
ENDBRANCH  14  16
BRANCH  14  19
ATOM     19  C   UNL     1      -3.372  11.733  18.185  0.00  0.00    +0.000 C 
BRANCH  19  20
ATOM     20  O   UNL     1      -3.769  12.608  19.242  0.00  0.00    +0.000 OA
ATOM     21  H   UNL     1      -3.487  13.505  18.994  0.00  0.00    +0.000 HD
ENDBRANCH  19  20
ENDBRANCH  14  19
ENDBRANCH   6  11
BRANCH   1  22
ATOM     22  C   UNL     1       4.065   4.045  18.669  0.00  0.00    +0.000 C 
BRANCH  22  23
ATOM     23  C   UNL     1       4.731   4.200  17.295  0.00  0.00    +0.000 C 
BRANCH  23  24
ATOM     24  S   UNL     1       6.474   4.676  17.515  0.00  0.00    +0.000 S 
BRANCH  24  25
ATOM     25  C   UNL     1       7.050   4.497  15.793  0.00  0.00    +0.000 C 
BRANCH  25  27
ATOM     26  C   UNL     1       6.247   3.907  13.470  0.00  0.00    +0.000 C 
ATOM     27  C   UNL     1       5.915   3.910  14.954  0.00  0.00    +0.000 C 
ENDBRANCH  25  27
ENDBRANCH  24  25
ENDBRANCH  23  24
ENDBRANCH  22  23
ENDBRANCH   1  22
TORSDOF 9
ENDMDL
MODEL 7
REMARK VINA RESULT:      -6.6      4.565      8.583
REMARK  Name = 
REMARK  10 active torsions:
REMARK  status: ('A' for Active; 'I' for Inactive)
REMARK    1  A    between atoms: C_1  and  C_2
REMARK    2  A    between atoms: C_2  and  C_3
REMARK    3  A    between atoms: C_3  and  S_4
REMARK    4  A    between atoms: S_4  and  C_5
REMARK    5  A    between atoms: C_5  and  C_6
REMARK    6  A    between atoms: C_6  and  C_7
REMARK    7  A    between atoms: C_12  and  C_13
REMARK    8  A    between atoms: C_16  and  N_17
REMARK    9  A    between atoms: C_16  and  C_18
REMARK   10  A    between atoms: C_18  and  O_19
REMARK                            x       y       z     vdW  Elec       q    Type
REMARK                         _______ _______ _______ _____ _____    ______ ____
ROOT
ATOM      1  C   UNL     1      -0.132  10.407  20.188  0.00  0.00    +0.000 C 
ATOM      2  C   UNL     1       0.546   9.870  21.461  0.00  0.00    +0.000 C 
ATOM      3  C   UNL     1       0.890   8.382  21.331  0.00  0.00    +0.000 C 
ATOM      4  C   UNL     1       1.614   8.049  20.049  0.00  0.00    +0.000 A 
ATOM      5  C   UNL     1       2.352   6.852  19.936  0.00  0.00    +0.000 A 
ATOM      6  C   UNL     1       3.002   6.495  18.737  0.00  0.00    +0.000 A 
ATOM      7  C   UNL     1       2.883   7.368  17.652  0.00  0.00    +0.000 A 
ATOM      8  C   UNL     1       2.154   8.547  17.747  0.00  0.00    +0.000 A 
ATOM      9  C   UNL     1       1.516   8.898  18.938  0.00  0.00    +0.000 A 
ATOM     10  C   UNL     1       0.808  10.222  18.988  0.00  0.00    +0.000 C 
ENDROOT
BRANCH   6  11
ATOM     11  C   UNL     1       3.842   5.224  18.670  0.00  0.00    +0.000 C 
ATOM     12  C   UNL     1       3.981   4.657  17.236  0.00  0.00    +0.000 C 
ATOM     13  C   UNL     1       5.485   4.514  16.958  0.00  0.00    +0.000 C 
ATOM     14  C   UNL     1       6.167   5.491  17.921  0.00  0.00    +0.000 C 
ATOM     15  C   UNL     1       5.302   5.304  19.174  0.00  0.00    +0.000 C 
BRANCH  14  16
ATOM     16  N   UNL     1       6.063   6.848  17.356  0.00  0.00    +0.000 NA
ATOM     17  H   UNL     1       6.738   7.444  17.842  0.00  0.00    +0.000 HD
ATOM     18  H   UNL     1       5.156   7.251  17.592  0.00  0.00    +0.000 HD
ENDBRANCH  14  16
BRANCH  14  19
ATOM     19  C   UNL     1       7.649   5.166  18.189  0.00  0.00    +0.000 C 
BRANCH  19  20
ATOM     20  O   UNL     1       8.104   4.108  17.345  0.00  0.00    +0.000 OA
ATOM     21  H   UNL     1       7.695   4.239  16.472  0.00  0.00    +0.000 HD
ENDBRANCH  19  20
ENDBRANCH  14  19
ENDBRANCH   6  11
BRANCH   1  22
ATOM     22  C   UNL     1      -0.508  11.894  20.353  0.00  0.00    +0.000 C 
BRANCH  22  23
ATOM     23  C   UNL     1      -0.589  12.655  19.022  0.00  0.00    +0.000 C 
BRANCH  23  24
ATOM     24  S   UNL     1       0.188  14.290  19.208  0.00  0.00    +0.000 S 
BRANCH  24  25
ATOM     25  C   UNL     1       1.800  13.776  19.890  0.00  0.00    +0.000 C 
BRANCH  25  27
ATOM     26  C   UNL     1       3.075  14.744  17.935  0.00  0.00    +0.000 C 
ATOM     27  C   UNL     1       2.755  13.490  18.732  0.00  0.00    +0.000 C 
ENDBRANCH  25  27
ENDBRANCH  24  25
ENDBRANCH  23  24
ENDBRANCH  22  23
ENDBRANCH   1  22
TORSDOF 9
ENDMDL
MODEL 8
REMARK VINA RESULT:      -6.5      3.896      8.034
REMARK  Name = 
REMARK  10 active torsions:
REMARK  status: ('A' for Active; 'I' for Inactive)
REMARK    1  A    between atoms: C_1  and  C_2
REMARK    2  A    between atoms: C_2  and  C_3
REMARK    3  A    between atoms: C_3  and  S_4
REMARK    4  A    between atoms: S_4  and  C_5
REMARK    5  A    between atoms: C_5  and  C_6
REMARK    6  A    between atoms: C_6  and  C_7
REMARK    7  A    between atoms: C_12  and  C_13
REMARK    8  A    between atoms: C_16  and  N_17
REMARK    9  A    between atoms: C_16  and  C_18
REMARK   10  A    between atoms: C_18  and  O_19
REMARK                            x       y       z     vdW  Elec       q    Type
REMARK                         _______ _______ _______ _____ _____    ______ ____
ROOT
ATOM      1  C   UNL     1      -0.402  10.510  20.612  0.00  0.00    +0.000 C 
ATOM      2  C   UNL     1       0.441   9.926  21.759  0.00  0.00    +0.000 C 
ATOM      3  C   UNL     1       0.888   8.491  21.455  0.00  0.00    +0.000 C 
ATOM      4  C   UNL     1       1.505   8.338  20.086  0.00  0.00    +0.000 A 
ATOM      5  C   UNL     1       2.321   7.226  19.791  0.00  0.00    +0.000 A 
ATOM      6  C   UNL     1       2.875   7.036  18.508  0.00  0.00    +0.000 A 
ATOM      7  C   UNL     1       2.578   7.988  17.528  0.00  0.00    +0.000 A 
ATOM      8  C   UNL     1       1.771   9.084  17.803  0.00  0.00    +0.000 A 
ATOM      9  C   UNL     1       1.228   9.270  19.076  0.00  0.00    +0.000 A 
ATOM     10  C   UNL     1       0.425  10.517  19.318  0.00  0.00    +0.000 C 
ENDROOT
BRANCH   6  11
ATOM     11  C   UNL     1       3.803   5.856  18.241  0.00  0.00    +0.000 C 
ATOM     12  C   UNL     1       4.368   5.217  19.533  0.00  0.00    +0.000 C 
ATOM     13  C   UNL     1       4.026   3.720  19.474  0.00  0.00    +0.000 C 
ATOM     14  C   UNL     1       2.831   3.617  18.521  0.00  0.00    +0.000 C 
ATOM     15  C   UNL     1       3.225   4.653  17.459  0.00  0.00    +0.000 C 
BRANCH  14  16
ATOM     16  N   UNL     1       1.614   3.995  19.259  0.00  0.00    +0.000 NA
ATOM     17  H   UNL     1       1.285   3.171  19.769  0.00  0.00    +0.000 HD
ATOM     18  H   UNL     1       0.861   4.201  18.602  0.00  0.00    +0.000 HD
ENDBRANCH  14  16
BRANCH  14  19
ATOM     19  C   UNL     1       2.640   2.214  17.914  0.00  0.00    +0.000 C 
BRANCH  19  20
ATOM     20  O   UNL     1       1.495   1.566  18.468  0.00  0.00    +0.000 OA
ATOM     21  H   UNL     1       1.062   1.079  17.746  0.00  0.00    +0.000 HD
ENDBRANCH  19  20
ENDBRANCH  14  19
ENDBRANCH   6  11
BRANCH   1  22
ATOM     22  C   UNL     1      -0.877  11.938  20.954  0.00  0.00    +0.000 C 
BRANCH  22  23
ATOM     23  C   UNL     1      -1.430  12.703  19.743  0.00  0.00    +0.000 C 
BRANCH  23  24
ATOM     24  S   UNL     1      -3.165  12.231  19.467  0.00  0.00    +0.000 S 
BRANCH  24  25
ATOM     25  C   UNL     1      -2.988  11.379  17.864  0.00  0.00    +0.000 C 
BRANCH  25  27
ATOM     26  C   UNL     1      -5.483  11.067  18.119  0.00  0.00    +0.000 C 
ATOM     27  C   UNL     1      -4.345  11.371  17.158  0.00  0.00    +0.000 C 
ENDBRANCH  25  27
ENDBRANCH  24  25
ENDBRANCH  23  24
ENDBRANCH  22  23
ENDBRANCH   1  22
TORSDOF 9
ENDMDL
MODEL 9
REMARK VINA RESULT:      -6.5      4.272      8.193
REMARK  Name = 
REMARK  10 active torsions:
REMARK  status: ('A' for Active; 'I' for Inactive)
REMARK    1  A    between atoms: C_1  and  C_2
REMARK    2  A    between atoms: C_2  and  C_3
REMARK    3  A    between atoms: C_3  and  S_4
REMARK    4  A    between atoms: S_4  and  C_5
REMARK    5  A    between atoms: C_5  and  C_6
REMARK    6  A    between atoms: C_6  and  C_7
REMARK    7  A    between atoms: C_12  and  C_13
REMARK    8  A    between atoms: C_16  and  N_17
REMARK    9  A    between atoms: C_16  and  C_18
REMARK   10  A    between atoms: C_18  and  O_19
REMARK                            x       y       z     vdW  Elec       q    Type
REMARK                         _______ _______ _______ _____ _____    ______ ____
ROOT
ATOM      1  C   UNL     1      -0.525  10.067  19.684  0.00  0.00    +0.000 C 
ATOM      2  C   UNL     1      -0.022   9.683  21.087  0.00  0.00    +0.000 C 
ATOM      3  C   UNL     1       0.517   8.248  21.118  0.00  0.00    +0.000 C 
ATOM      4  C   UNL     1       1.491   7.954  20.003  0.00  0.00    +0.000 A 
ATOM      5  C   UNL     1       2.377   6.861  20.098  0.00  0.00    +0.000 A 
ATOM      6  C   UNL     1       3.267   6.538  19.053  0.00  0.00    +0.000 A 
ATOM      7  C   UNL     1       3.236   7.338  17.906  0.00  0.00    +0.000 A 
ATOM      8  C   UNL     1       2.364   8.414  17.797  0.00  0.00    +0.000 A 
ATOM      9  C   UNL     1       1.488   8.732  18.836  0.00  0.00    +0.000 A 
ATOM     10  C   UNL     1       0.627   9.953  18.676  0.00  0.00    +0.000 C 
ENDROOT
BRANCH   6  11
ATOM     11  C   UNL     1       4.254   5.387  19.215  0.00  0.00    +0.000 C 
ATOM     12  C   UNL     1       3.766   4.067  18.569  0.00  0.00    +0.000 C 
ATOM     13  C   UNL     1       4.872   3.608  17.606  0.00  0.00    +0.000 C 
ATOM     14  C   UNL     1       5.663   4.876  17.268  0.00  0.00    +0.000 C 
ATOM     15  C   UNL     1       5.675   5.576  18.634  0.00  0.00    +0.000 C 
BRANCH  14  16
ATOM     16  N   UNL     1       4.916   5.631  16.249  0.00  0.00    +0.000 NA
ATOM     17  H   UNL     1       5.543   6.338  15.856  0.00  0.00    +0.000 HD
ATOM     18  H   UNL     1       4.175   6.173  16.695  0.00  0.00    +0.000 HD
ENDBRANCH  14  16
BRANCH  14  19
ATOM     19  C   UNL     1       7.088   4.599  16.750  0.00  0.00    +0.000 C 
BRANCH  19  20
ATOM     20  O   UNL     1       7.922   4.088  17.790  0.00  0.00    +0.000 OA
ATOM     21  H   UNL     1       7.503   4.320  18.636  0.00  0.00    +0.000 HD
ENDBRANCH  19  20
ENDBRANCH  14  19
ENDBRANCH   6  11
BRANCH   1  22
ATOM     22  C   UNL     1      -1.102  11.498  19.683  0.00  0.00    +0.000 C 
BRANCH  22  23
ATOM     23  C   UNL     1      -1.630  11.942  18.311  0.00  0.00    +0.000 C 
BRANCH  23  24
ATOM     24  S   UNL     1      -3.405  11.555  18.190  0.00  0.00    +0.000 S 
BRANCH  24  25
ATOM     25  C   UNL     1      -3.293   9.868  17.503  0.00  0.00    +0.000 C 
BRANCH  25  27
ATOM     26  C   UNL     1      -3.161  10.732  15.132  0.00  0.00    +0.000 C 
ATOM     27  C   UNL     1      -2.473   9.915  16.214  0.00  0.00    +0.000 C 
ENDBRANCH  25  27
ENDBRANCH  24  25
ENDBRANCH  23  24
ENDBRANCH  22  23
ENDBRANCH   1  22
TORSDOF 9
ENDMDL
