MODEL 1
REMARK VINA RESULT:      -7.4      0.000      0.000
REMARK  Name = 
REMARK  6 active torsions:
REMARK  status: ('A' for Active; 'I' for Inactive)
REMARK    1  A    between atoms: C_2  and  C_15
REMARK    2  A    between atoms: N_3  and  C_4
REMARK    3  A    between atoms: C_4  and  C_5
REMARK    4  A    between atoms: C_5  and  O_6
REMARK    5  A    between atoms: O_6  and  C_7
REMARK    6  A    between atoms: C_7  and  C_9
REMARK                            x       y       z     vdW  Elec       q    Type
REMARK                         _______ _______ _______ _____ _____    ______ ____
ROOT
ATOM      1  C   UNL     1       7.563   4.709  18.354  0.00  0.00    +0.000 C 
ENDROOT
BRANCH   1   4
ATOM      2  O   UNL     1       7.475   6.525  16.182  0.00  0.00    +0.000 OA
ATOM      3  C   UNL     1       7.278   5.333  15.978  0.00  0.00    +0.000 C 
ATOM      4  N   UNL     1       7.292   4.376  16.968  0.00  0.00    +0.000 N 
ATOM      5  H   UNL     1       7.275   3.396  16.718  0.00  0.00    +0.000 HD
BRANCH   3   6
ATOM      6  C   UNL     1       7.035   4.835  14.596  0.00  0.00    +0.000 A 
ATOM      7  C   UNL     1       6.028   3.886  14.383  0.00  0.00    +0.000 A 
ATOM      8  C   UNL     1       5.783   3.405  13.095  0.00  0.00    +0.000 A 
ATOM      9  C   UNL     1       6.550   3.861  12.022  0.00  0.00    +0.000 A 
ATOM     10  C   UNL     1       7.565   4.793  12.232  0.00  0.00    +0.000 A 
ATOM     11  C   UNL     1       7.812   5.278  13.517  0.00  0.00    +0.000 A 
ENDBRANCH   3   6
ENDBRANCH   1   4
BRANCH   1  12
ATOM     12  C   UNL     1       6.296   5.004  19.159  0.00  0.00    +0.000 C 
BRANCH  12  13
ATOM     13  O   UNL     1       5.373   3.898  19.090  0.00  0.00    +0.000 OA
BRANCH  13  14
ATOM     14  C   UNL     1       4.262   4.127  18.350  0.00  0.00    +0.000 C 
ATOM     15  O   UNL     1       4.251   4.569  17.207  0.00  0.00    +0.000 OA
BRANCH  14  16
ATOM     16  C   UNL     1       3.024   3.776  19.093  0.00  0.00    +0.000 A 
ATOM     17  C   UNL     1       2.026   3.070  18.406  0.00  0.00    +0.000 A 
ATOM     18  C   UNL     1       0.823   2.753  19.036  0.00  0.00    +0.000 A 
ATOM     19  C   UNL     1       0.609   3.135  20.359  0.00  0.00    +0.000 A 
ATOM     20  C   UNL     1       1.604   3.821  21.058  0.00  0.00    +0.000 A 
ATOM     21  C   UNL     1       2.813   4.140  20.430  0.00  0.00    +0.000 A 
ENDBRANCH  14  16
ENDBRANCH  13  14
ENDBRANCH  12  13
ENDBRANCH   1  12
TORSDOF 6
ENDMDL
MODEL 2
REMARK VINA RESULT:      -7.4      2.723      4.461
REMARK  Name = 
REMARK  6 active torsions:
REMARK  status: ('A' for Active; 'I' for Inactive)
REMARK    1  A    between atoms: C_2  and  C_15
REMARK    2  A    between atoms: N_3  and  C_4
REMARK    3  A    between atoms: C_4  and  C_5
REMARK    4  A    between atoms: C_5  and  O_6
REMARK    5  A    between atoms: O_6  and  C_7
REMARK    6  A    between atoms: C_7  and  C_9
REMARK                            x       y       z     vdW  Elec       q    Type
REMARK                         _______ _______ _______ _____ _____    ______ ____
ROOT
ATOM      1  C   UNL     1       2.155   6.634  20.157  0.00  0.00    +0.000 C 
ENDROOT
BRANCH   1   4
ATOM      2  O   UNL     1       2.628   5.499  17.606  0.00  0.00    +0.000 OA
ATOM      3  C   UNL     1       3.565   5.652  18.379  0.00  0.00    +0.000 C 
ATOM      4  N   UNL     1       3.435   6.186  19.643  0.00  0.00    +0.000 N 
ATOM      5  H   UNL     1       4.262   6.427  20.172  0.00  0.00    +0.000 HD
BRANCH   3   6
ATOM      6  C   UNL     1       4.948   5.283  17.970  0.00  0.00    +0.000 A 
ATOM      7  C   UNL     1       5.160   4.746  16.694  0.00  0.00    +0.000 A 
ATOM      8  C   UNL     1       6.450   4.394  16.291  0.00  0.00    +0.000 A 
ATOM      9  C   UNL     1       7.526   4.567  17.162  0.00  0.00    +0.000 A 
ATOM     10  C   UNL     1       7.317   5.085  18.439  0.00  0.00    +0.000 A 
ATOM     11  C   UNL     1       6.030   5.441  18.847  0.00  0.00    +0.000 A 
ENDBRANCH   3   6
ENDBRANCH   1   4
BRANCH   1  12
ATOM     12  C   UNL     1       1.392   5.540  20.907  0.00  0.00    +0.000 C 
BRANCH  12  13
ATOM     13  O   UNL     1       2.304   4.642  21.573  0.00  0.00    +0.000 OA
BRANCH  13  14
ATOM     14  C   UNL     1       1.982   3.330  21.481  0.00  0.00    +0.000 C 
ATOM     15  O   UNL     1       1.336   2.699  22.309  0.00  0.00    +0.000 OA
BRANCH  14  16
ATOM     16  C   UNL     1       2.512   2.720  20.233  0.00  0.00    +0.000 A 
ATOM     17  C   UNL     1       3.876   2.401  20.190  0.00  0.00    +0.000 A 
ATOM     18  C   UNL     1       4.442   1.870  19.030  0.00  0.00    +0.000 A 
ATOM     19  C   UNL     1       3.647   1.649  17.907  0.00  0.00    +0.000 A 
ATOM     20  C   UNL     1       2.283   1.944  17.948  0.00  0.00    +0.000 A 
ATOM     21  C   UNL     1       1.712   2.476  19.109  0.00  0.00    +0.000 A 
ENDBRANCH  14  16
ENDBRANCH  13  14
ENDBRANCH  12  13
ENDBRANCH   1  12
TORSDOF 6
ENDMDL
MODEL 3
REMARK VINA RESULT:      -7.3      1.037      1.493
REMARK  Name = 
REMARK  6 active torsions:
REMARK  status: ('A' for Active; 'I' for Inactive)
REMARK    1  A    between atoms: C_2  and  C_15
REMARK    2  A    between atoms: N_3  and  C_4
REMARK    3  A    between atoms: C_4  and  C_5
REMARK    4  A    between atoms: C_5  and  O_6
REMARK    5  A    between atoms: O_6  and  C_7
REMARK    6  A    between atoms: C_7  and  C_9
REMARK                            x       y       z     vdW  Elec       q    Type
REMARK                         _______ _______ _______ _____ _____    ______ ____
ROOT
ATOM      1  C   UNL     1       6.878   4.939  18.229  0.00  0.00    +0.000 C 
ENDROOT
BRANCH   1   4
ATOM      2  O   UNL     1       6.080   6.502  16.006  0.00  0.00    +0.000 OA
ATOM      3  C   UNL     1       6.484   5.360  15.824  0.00  0.00    +0.000 C 
ATOM      4  N   UNL     1       6.886   4.521  16.840  0.00  0.00    +0.000 N 
ATOM      5  H   UNL     1       7.350   3.651  16.616  0.00  0.00    +0.000 HD
BRANCH   3   6
ATOM      6  C   UNL     1       6.594   4.810  14.445  0.00  0.00    +0.000 A 
ATOM      7  C   UNL     1       7.577   5.316  13.587  0.00  0.00    +0.000 A 
ATOM      8  C   UNL     1       7.697   4.813  12.290  0.00  0.00    +0.000 A 
ATOM      9  C   UNL     1       6.832   3.814  11.845  0.00  0.00    +0.000 A 
ATOM     10  C   UNL     1       5.841   3.318  12.691  0.00  0.00    +0.000 A 
ATOM     11  C   UNL     1       5.717   3.816  13.989  0.00  0.00    +0.000 A 
ENDBRANCH   3   6
ENDBRANCH   1   4
BRANCH   1  12
ATOM     12  C   UNL     1       5.641   4.463  18.993  0.00  0.00    +0.000 C 
BRANCH  12  13
ATOM     13  O   UNL     1       4.873   5.583  19.478  0.00  0.00    +0.000 OA
BRANCH  13  14
ATOM     14  C   UNL     1       3.708   5.803  18.823  0.00  0.00    +0.000 C 
ATOM     15  O   UNL     1       3.497   6.722  18.043  0.00  0.00    +0.000 OA
BRANCH  14  16
ATOM     16  C   UNL     1       2.685   4.780  19.164  0.00  0.00    +0.000 A 
ATOM     17  C   UNL     1       2.168   3.998  18.122  0.00  0.00    +0.000 A 
ATOM     18  C   UNL     1       1.172   3.054  18.372  0.00  0.00    +0.000 A 
ATOM     19  C   UNL     1       0.688   2.882  19.667  0.00  0.00    +0.000 A 
ATOM     20  C   UNL     1       1.210   3.641  20.715  0.00  0.00    +0.000 A 
ATOM     21  C   UNL     1       2.210   4.588  20.469  0.00  0.00    +0.000 A 
ENDBRANCH  14  16
ENDBRANCH  13  14
ENDBRANCH  12  13
ENDBRANCH   1  12
TORSDOF 6
ENDMDL
MODEL 4
REMARK VINA RESULT:      -7.2      0.836      1.325
REMARK  Name = 
REMARK  6 active torsions:
REMARK  status: ('A' for Active; 'I' for Inactive)
REMARK    1  A    between atoms: C_2  and  C_15
REMARK    2  A    between atoms: N_3  and  C_4
REMARK    3  A    between atoms: C_4  and  C_5
REMARK    4  A    between atoms: C_5  and  O_6
REMARK    5  A    between atoms: O_6  and  C_7
REMARK    6  A    between atoms: C_7  and  C_9
REMARK                            x       y       z     vdW  Elec       q    Type
REMARK                         _______ _______ _______ _____ _____    ______ ____
ROOT
ATOM      1  C   UNL     1       7.305   4.660  18.322  0.00  0.00    +0.000 C 
ENDROOT
BRANCH   1   4
ATOM      2  O   UNL     1       7.547   6.371  16.078  0.00  0.00    +0.000 OA
ATOM      3  C   UNL     1       7.150   5.223  15.919  0.00  0.00    +0.000 C 
ATOM      4  N   UNL     1       6.992   4.320  16.948  0.00  0.00    +0.000 N 
ATOM      5  H   UNL     1       6.808   3.348  16.736  0.00  0.00    +0.000 HD
BRANCH   3   6
ATOM      6  C   UNL     1       6.835   4.716  14.555  0.00  0.00    +0.000 A 
ATOM      7  C   UNL     1       5.704   3.911  14.373  0.00  0.00    +0.000 A 
ATOM      8  C   UNL     1       5.391   3.426  13.102  0.00  0.00    +0.000 A 
ATOM      9  C   UNL     1       6.210   3.733  12.015  0.00  0.00    +0.000 A 
ATOM     10  C   UNL     1       7.346   4.520  12.195  0.00  0.00    +0.000 A 
ATOM     11  C   UNL     1       7.663   5.010  13.463  0.00  0.00    +0.000 A 
ENDBRANCH   3   6
ENDBRANCH   1   4
BRANCH   1  12
ATOM     12  C   UNL     1       6.391   5.743  18.897  0.00  0.00    +0.000 C 
BRANCH  12  13
ATOM     13  O   UNL     1       5.150   5.175  19.364  0.00  0.00    +0.000 OA
BRANCH  13  14
ATOM     14  C   UNL     1       4.052   5.552  18.668  0.00  0.00    +0.000 C 
ATOM     15  O   UNL     1       3.984   6.521  17.922  0.00  0.00    +0.000 OA
BRANCH  14  16
ATOM     16  C   UNL     1       2.904   4.639  18.914  0.00  0.00    +0.000 A 
ATOM     17  C   UNL     1       2.127   4.860  20.059  0.00  0.00    +0.000 A 
ATOM     18  C   UNL     1       1.066   4.009  20.369  0.00  0.00    +0.000 A 
ATOM     19  C   UNL     1       0.771   2.933  19.533  0.00  0.00    +0.000 A 
ATOM     20  C   UNL     1       1.527   2.717  18.380  0.00  0.00    +0.000 A 
ATOM     21  C   UNL     1       2.591   3.569  18.065  0.00  0.00    +0.000 A 
ENDBRANCH  14  16
ENDBRANCH  13  14
ENDBRANCH  12  13
ENDBRANCH   1  12
TORSDOF 6
ENDMDL
MODEL 5
REMARK VINA RESULT:      -7.1      1.400      1.825
REMARK  Name = 
REMARK  6 active torsions:
REMARK  status: ('A' for Active; 'I' for Inactive)
REMARK    1  A    between atoms: C_2  and  C_15
REMARK    2  A    between atoms: N_3  and  C_4
REMARK    3  A    between atoms: C_4  and  C_5
REMARK    4  A    between atoms: C_5  and  O_6
REMARK    5  A    between atoms: O_6  and  C_7
REMARK    6  A    between atoms: C_7  and  C_9
REMARK                            x       y       z     vdW  Elec       q    Type
REMARK                         _______ _______ _______ _____ _____    ______ ____
ROOT
ATOM      1  C   UNL     1       6.339   5.469  18.377  0.00  0.00    +0.000 C 
ENDROOT
BRANCH   1   4
ATOM      2  O   UNL     1       7.752   6.477  16.139  0.00  0.00    +0.000 OA
ATOM      3  C   UNL     1       6.968   5.549  15.987  0.00  0.00    +0.000 C 
ATOM      4  N   UNL     1       6.230   4.996  17.011  0.00  0.00    +0.000 N 
ATOM      5  H   UNL     1       5.718   4.138  16.852  0.00  0.00    +0.000 HD
BRANCH   3   6
ATOM      6  C   UNL     1       6.787   4.926  14.647  0.00  0.00    +0.000 A 
ATOM      7  C   UNL     1       5.732   4.027  14.451  0.00  0.00    +0.000 A 
ATOM      8  C   UNL     1       5.544   3.433  13.202  0.00  0.00    +0.000 A 
ATOM      9  C   UNL     1       6.414   3.726  12.151  0.00  0.00    +0.000 A 
ATOM     10  C   UNL     1       7.476   4.607  12.346  0.00  0.00    +0.000 A 
ATOM     11  C   UNL     1       7.667   5.206  13.592  0.00  0.00    +0.000 A 
ENDBRANCH   3   6
ENDBRANCH   1   4
BRANCH   1  12
ATOM     12  C   UNL     1       5.021   5.386  19.150  0.00  0.00    +0.000 C 
BRANCH  12  13
ATOM     13  O   UNL     1       4.004   6.191  18.520  0.00  0.00    +0.000 OA
BRANCH  13  14
ATOM     14  C   UNL     1       2.860   6.326  19.234  0.00  0.00    +0.000 C 
ATOM     15  O   UNL     1       2.469   7.363  19.756  0.00  0.00    +0.000 OA
BRANCH  14  16
ATOM     16  C   UNL     1       2.111   5.045  19.320  0.00  0.00    +0.000 A 
ATOM     17  C   UNL     1       1.748   4.584  20.594  0.00  0.00    +0.000 A 
ATOM     18  C   UNL     1       1.085   3.365  20.742  0.00  0.00    +0.000 A 
ATOM     19  C   UNL     1       0.776   2.601  19.619  0.00  0.00    +0.000 A 
ATOM     20  C   UNL     1       1.115   3.062  18.345  0.00  0.00    +0.000 A 
ATOM     21  C   UNL     1       1.779   4.283  18.192  0.00  0.00    +0.000 A 
ENDBRANCH  14  16
ENDBRANCH  13  14
ENDBRANCH  12  13
ENDBRANCH   1  12
TORSDOF 6
ENDMDL
MODEL 6
REMARK VINA RESULT:      -7.1      0.724      1.681
REMARK  Name = 
REMARK  6 active torsions:
REMARK  status: ('A' for Active; 'I' for Inactive)
REMARK    1  A    between atoms: C_2  and  C_15
REMARK    2  A    between atoms: N_3  and  C_4
REMARK    3  A    between atoms: C_4  and  C_5
REMARK    4  A    between atoms: C_5  and  O_6
REMARK    5  A    between atoms: O_6  and  C_7
REMARK    6  A    between atoms: C_7  and  C_9
REMARK                            x       y       z     vdW  Elec       q    Type
REMARK                         _______ _______ _______ _____ _____    ______ ____
ROOT
ATOM      1  C   UNL     1       7.345   5.403  17.874  0.00  0.00    +0.000 C 
ENDROOT
BRANCH   1   4
ATOM      2  O   UNL     1       5.881   6.480  15.702  0.00  0.00    +0.000 OA
ATOM      3  C   UNL     1       6.558   5.473  15.531  0.00  0.00    +0.000 C 
ATOM      4  N   UNL     1       7.297   4.871  16.526  0.00  0.00    +0.000 N 
ATOM      5  H   UNL     1       7.951   4.137  16.288  0.00  0.00    +0.000 HD
BRANCH   3   6
ATOM      6  C   UNL     1       6.644   4.842  14.185  0.00  0.00    +0.000 A 
ATOM      7  C   UNL     1       7.621   5.287  13.286  0.00  0.00    +0.000 A 
ATOM      8  C   UNL     1       7.720   4.708  12.019  0.00  0.00    +0.000 A 
ATOM      9  C   UNL     1       6.839   3.693  11.644  0.00  0.00    +0.000 A 
ATOM     10  C   UNL     1       5.854   3.258  12.530  0.00  0.00    +0.000 A 
ATOM     11  C   UNL     1       5.753   3.832  13.799  0.00  0.00    +0.000 A 
ENDBRANCH   3   6
ENDBRANCH   1   4
BRANCH   1  12
ATOM     12  C   UNL     1       6.401   4.683  18.838  0.00  0.00    +0.000 C 
BRANCH  12  13
ATOM     13  O   UNL     1       5.027   5.028  18.566  0.00  0.00    +0.000 OA
BRANCH  13  14
ATOM     14  C   UNL     1       4.274   4.018  18.066  0.00  0.00    +0.000 C 
ATOM     15  O   UNL     1       4.556   3.344  17.084  0.00  0.00    +0.000 OA
BRANCH  14  16
ATOM     16  C   UNL     1       3.034   3.813  18.860  0.00  0.00    +0.000 A 
ATOM     17  C   UNL     1       2.956   4.421  20.121  0.00  0.00    +0.000 A 
ATOM     18  C   UNL     1       1.837   4.227  20.931  0.00  0.00    +0.000 A 
ATOM     19  C   UNL     1       0.786   3.428  20.485  0.00  0.00    +0.000 A 
ATOM     20  C   UNL     1       0.846   2.835  19.223  0.00  0.00    +0.000 A 
ATOM     21  C   UNL     1       1.965   3.028  18.407  0.00  0.00    +0.000 A 
ENDBRANCH  14  16
ENDBRANCH  13  14
ENDBRANCH  12  13
ENDBRANCH   1  12
TORSDOF 6
ENDMDL
MODEL 7
REMARK VINA RESULT:      -7.1      1.743      1.905
REMARK  Name = 
REMARK  6 active torsions:
REMARK  status: ('A' for Active; 'I' for Inactive)
REMARK    1  A    between atoms: C_2  and  C_15
REMARK    2  A    between atoms: N_3  and  C_4
REMARK    3  A    between atoms: C_4  and  C_5
REMARK    4  A    between atoms: C_5  and  O_6
REMARK    5  A    between atoms: O_6  and  C_7
REMARK    6  A    between atoms: C_7  and  C_9
REMARK                            x       y       z     vdW  Elec       q    Type
REMARK                         _______ _______ _______ _____ _____    ______ ____
ROOT
ATOM      1  C   UNL     1       5.738   7.009  17.231  0.00  0.00    +0.000 C 
ENDROOT
BRANCH   1   4
ATOM      2  O   UNL     1       7.579   4.992  16.482  0.00  0.00    +0.000 OA
ATOM      3  C   UNL     1       6.762   5.394  15.663  0.00  0.00    +0.000 C 
ATOM      4  N   UNL     1       5.832   6.376  15.930  0.00  0.00    +0.000 N 
ATOM      5  H   UNL     1       5.090   6.556  15.267  0.00  0.00    +0.000 HD
BRANCH   3   6
ATOM      6  C   UNL     1       6.707   4.802  14.298  0.00  0.00    +0.000 A 
ATOM      7  C   UNL     1       5.688   3.891  13.992  0.00  0.00    +0.000 A 
ATOM      8  C   UNL     1       5.619   3.325  12.717  0.00  0.00    +0.000 A 
ATOM      9  C   UNL     1       6.569   3.658  11.752  0.00  0.00    +0.000 A 
ATOM     10  C   UNL     1       7.595   4.551  12.057  0.00  0.00    +0.000 A 
ATOM     11  C   UNL     1       7.668   5.122  13.329  0.00  0.00    +0.000 A 
ENDBRANCH   3   6
ENDBRANCH   1   4
BRANCH   1  12
ATOM     12  C   UNL     1       4.829   6.253  18.203  0.00  0.00    +0.000 C 
BRANCH  12  13
ATOM     13  O   UNL     1       3.439   6.510  17.913  0.00  0.00    +0.000 OA
BRANCH  13  14
ATOM     14  C   UNL     1       2.627   6.544  18.997  0.00  0.00    +0.000 C 
ATOM     15  O   UNL     1       2.375   7.540  19.662  0.00  0.00    +0.000 OA
BRANCH  14  16
ATOM     16  C   UNL     1       2.062   5.203  19.301  0.00  0.00    +0.000 A 
ATOM     17  C   UNL     1       1.774   4.354  18.223  0.00  0.00    +0.000 A 
ATOM     18  C   UNL     1       1.198   3.102  18.442  0.00  0.00    +0.000 A 
ATOM     19  C   UNL     1       0.911   2.688  19.741  0.00  0.00    +0.000 A 
ATOM     20  C   UNL     1       1.212   3.518  20.823  0.00  0.00    +0.000 A 
ATOM     21  C   UNL     1       1.790   4.773  20.607  0.00  0.00    +0.000 A 
ENDBRANCH  14  16
ENDBRANCH  13  14
ENDBRANCH  12  13
ENDBRANCH   1  12
TORSDOF 6
ENDMDL
MODEL 8
REMARK VINA RESULT:      -7.1      0.721      1.328
REMARK  Name = 
REMARK  6 active torsions:
REMARK  status: ('A' for Active; 'I' for Inactive)
REMARK    1  A    between atoms: C_2  and  C_15
REMARK    2  A    between atoms: N_3  and  C_4
REMARK    3  A    between atoms: C_4  and  C_5
REMARK    4  A    between atoms: C_5  and  O_6
REMARK    5  A    between atoms: O_6  and  C_7
REMARK    6  A    between atoms: C_7  and  C_9
REMARK                            x       y       z     vdW  Elec       q    Type
REMARK                         _______ _______ _______ _____ _____    ______ ____
ROOT
ATOM      1  C   UNL     1       7.203   4.871  18.310  0.00  0.00    +0.000 C 
ENDROOT
BRANCH   1   4
ATOM      2  O   UNL     1       7.698   6.400  15.978  0.00  0.00    +0.000 OA
ATOM      3  C   UNL     1       7.193   5.289  15.873  0.00  0.00    +0.000 C 
ATOM      4  N   UNL     1       6.906   4.474  16.947  0.00  0.00    +0.000 N 
ATOM      5  H   UNL     1       6.632   3.514  16.788  0.00  0.00    +0.000 HD
BRANCH   3   6
ATOM      6  C   UNL     1       6.877   4.727  14.530  0.00  0.00    +0.000 A 
ATOM      7  C   UNL     1       7.673   5.089  13.437  0.00  0.00    +0.000 A 
ATOM      8  C   UNL     1       7.395   4.574  12.170  0.00  0.00    +0.000 A 
ATOM      9  C   UNL     1       6.317   3.706  11.990  0.00  0.00    +0.000 A 
ATOM     10  C   UNL     1       5.511   3.356  13.072  0.00  0.00    +0.000 A 
ATOM     11  C   UNL     1       5.787   3.867  14.342  0.00  0.00    +0.000 A 
ENDBRANCH   3   6
ENDBRANCH   1   4
BRANCH   1  12
ATOM     12  C   UNL     1       6.035   4.641  19.271  0.00  0.00    +0.000 C 
BRANCH  12  13
ATOM     13  O   UNL     1       5.396   3.374  19.010  0.00  0.00    +0.000 OA
BRANCH  13  14
ATOM     14  C   UNL     1       4.169   3.460  18.443  0.00  0.00    +0.000 C 
ATOM     15  O   UNL     1       3.951   3.662  17.254  0.00  0.00    +0.000 OA
BRANCH  14  16
ATOM     16  C   UNL     1       3.086   3.281  19.445  0.00  0.00    +0.000 A 
ATOM     17  C   UNL     1       1.817   3.788  19.134  0.00  0.00    +0.000 A 
ATOM     18  C   UNL     1       0.772   3.691  20.054  0.00  0.00    +0.000 A 
ATOM     19  C   UNL     1       0.987   3.083  21.289  0.00  0.00    +0.000 A 
ATOM     20  C   UNL     1       2.243   2.557  21.599  0.00  0.00    +0.000 A 
ATOM     21  C   UNL     1       3.292   2.651  20.679  0.00  0.00    +0.000 A 
ENDBRANCH  14  16
ENDBRANCH  13  14
ENDBRANCH  12  13
ENDBRANCH   1  12
TORSDOF 6
ENDMDL
MODEL 9
REMARK VINA RESULT:      -7.0      1.301      1.540
REMARK  Name = 
REMARK  6 active torsions:
REMARK  status: ('A' for Active; 'I' for Inactive)
REMARK    1  A    between atoms: C_2  and  C_15
REMARK    2  A    between atoms: N_3  and  C_4
REMARK    3  A    between atoms: C_4  and  C_5
REMARK    4  A    between atoms: C_5  and  O_6
REMARK    5  A    between atoms: O_6  and  C_7
REMARK    6  A    between atoms: C_7  and  C_9
REMARK                            x       y       z     vdW  Elec       q    Type
REMARK                         _______ _______ _______ _____ _____    ______ ____
ROOT
ATOM      1  C   UNL     1       5.195   6.974  17.085  0.00  0.00    +0.000 C 
ENDROOT
BRANCH   1   4
ATOM      2  O   UNL     1       7.553   5.687  16.186  0.00  0.00    +0.000 OA
ATOM      3  C   UNL     1       6.544   5.649  15.491  0.00  0.00    +0.000 C 
ATOM      4  N   UNL     1       5.354   6.251  15.838  0.00  0.00    +0.000 N 
ATOM      5  H   UNL     1       4.520   6.057  15.300  0.00  0.00    +0.000 HD
BRANCH   3   6
ATOM      6  C   UNL     1       6.543   4.901  14.204  0.00  0.00    +0.000 A 
ATOM      7  C   UNL     1       5.524   3.972  13.958  0.00  0.00    +0.000 A 
ATOM      8  C   UNL     1       5.503   3.260  12.757  0.00  0.00    +0.000 A 
ATOM      9  C   UNL     1       6.503   3.466  11.806  0.00  0.00    +0.000 A 
ATOM     10  C   UNL     1       7.529   4.377  12.053  0.00  0.00    +0.000 A 
ATOM     11  C   UNL     1       7.553   5.093  13.252  0.00  0.00    +0.000 A 
ENDBRANCH   3   6
ENDBRANCH   1   4
BRANCH   1  12
ATOM     12  C   UNL     1       4.029   6.462  17.933  0.00  0.00    +0.000 C 
BRANCH  12  13
ATOM     13  O   UNL     1       4.504   5.889  19.168  0.00  0.00    +0.000 OA
BRANCH  13  14
ATOM     14  C   UNL     1       4.576   4.536  19.179  0.00  0.00    +0.000 C 
ATOM     15  O   UNL     1       5.603   3.880  19.054  0.00  0.00    +0.000 OA
BRANCH  14  16
ATOM     16  C   UNL     1       3.237   3.916  19.362  0.00  0.00    +0.000 A 
ATOM     17  C   UNL     1       2.799   3.007  18.388  0.00  0.00    +0.000 A 
ATOM     18  C   UNL     1       1.533   2.428  18.480  0.00  0.00    +0.000 A 
ATOM     19  C   UNL     1       0.698   2.749  19.548  0.00  0.00    +0.000 A 
ATOM     20  C   UNL     1       1.134   3.637  20.534  0.00  0.00    +0.000 A 
ATOM     21  C   UNL     1       2.402   4.219  20.445  0.00  0.00    +0.000 A 
ENDBRANCH  14  16
ENDBRANCH  13  14
ENDBRANCH  12  13
ENDBRANCH   1  12
TORSDOF 6
ENDMDL
