MODEL 1
REMARK VINA RESULT:      -8.5      0.000      0.000
REMARK  Name = 
REMARK  7 active torsions:
REMARK  status: ('A' for Active; 'I' for Inactive)
REMARK    1  A    between atoms: C_1  and  C_2
REMARK    2  A    between atoms: C_5  and  C_6
REMARK    3  A    between atoms: C_10  and  C_11
REMARK    4  A    between atoms: C_14  and  C_15
REMARK    5  A    between atoms: C_21  and  C_22
REMARK    6  A    between atoms: C_25  and  C_26
REMARK    7  A    between atoms: C_29  and  C_30
REMARK                            x       y       z     vdW  Elec       q    Type
REMARK                         _______ _______ _______ _____ _____    ______ ____
ROOT
ATOM      1  C   UNL     1       2.946   2.854  19.715  0.00  0.00    +0.000 C 
ATOM      2  C   UNL     1       2.588   4.308  19.875  0.00  0.00    +0.000 A 
ATOM      3  C   UNL     1       1.479   4.602  20.691  0.00  0.00    +0.000 A 
ATOM      4  C   UNL     1       1.106   5.916  20.950  0.00  0.00    +0.000 A 
ATOM      5  C   UNL     1       1.828   6.972  20.396  0.00  0.00    +0.000 A 
ATOM      6  C   UNL     1       2.923   6.687  19.572  0.00  0.00    +0.000 A 
ATOM      7  C   UNL     1       3.308   5.364  19.271  0.00  0.00    +0.000 A 
ENDROOT
BRANCH   7   8
ATOM      8  C   UNL     1       4.409   5.156  18.308  0.00  0.00    +0.000 A 
ATOM      9  N   UNL     1       5.693   5.565  18.568  0.00  0.00    +0.000 N 
ATOM     10  N   UNL     1       6.591   5.252  17.633  0.00  0.00    +0.000 NA
ATOM     11  C   UNL     1       5.885   4.564  16.738  0.00  0.00    +0.000 A 
ATOM     12  C   UNL     1       4.506   4.477  17.087  0.00  0.00    +0.000 A 
ATOM     13  C   UNL     1       3.429   3.789  16.330  0.00  0.00    +0.000 C 
ATOM     14  H   UNL     1       6.034   6.050  19.386  0.00  0.00    +0.000 HD
BRANCH  11  15
ATOM     15  C   UNL     1       6.547   3.931  15.516  0.00  0.00    +0.000 C 
ATOM     16  C   UNL     1       5.881   4.093  14.161  0.00  0.00    +0.000 C 
ATOM     17  C   UNL     1       7.114   4.870  14.463  0.00  0.00    +0.000 C 
ENDBRANCH  11  15
ENDBRANCH   7   8
BRANCH   5  18
ATOM     18  C   UNL     1       1.404   8.354  20.757  0.00  0.00    +0.000 C 
ATOM     19  O   UNL     1       1.124   8.604  21.931  0.00  0.00    +0.000 OA
ATOM     20  N   UNL     1       1.368   9.329  19.796  0.00  0.00    +0.000 N 
ATOM     21  C   UNL     1       0.782  10.652  19.951  0.00  0.00    +0.000 C 
ATOM     22  C   UNL     1       0.480  10.625  18.441  0.00  0.00    +0.000 C 
ATOM     23  C   UNL     1       1.225   9.294  18.351  0.00  0.00    +0.000 C 
BRANCH  22  24
ATOM     24  C   UNL     1      -1.029  10.769  17.962  0.00  0.00    +0.000 A 
ATOM     25  C   UNL     1      -1.752   9.718  17.365  0.00  0.00    +0.000 A 
ATOM     26  C   UNL     1      -3.149   9.705  17.372  0.00  0.00    +0.000 A 
ATOM     27  C   UNL     1      -3.846  10.774  17.935  0.00  0.00    +0.000 A 
ATOM     28  C   UNL     1      -3.155  11.923  18.313  0.00  0.00    +0.000 A 
ATOM     29  C   UNL     1      -1.760  11.924  18.300  0.00  0.00    +0.000 A 
BRANCH  27  30
ATOM     30  C   UNL     1      -5.239  10.644  18.247  0.00  0.00    +0.000 C 
ATOM     31  N   UNL     1      -6.367  10.620  18.518  0.00  0.00    +0.000 NA
ENDBRANCH  27  30
ENDBRANCH  22  24
ENDBRANCH   5  18
TORSDOF 5
ENDMDL
MODEL 2
REMARK VINA RESULT:      -8.2      2.659      3.254
REMARK  Name = 
REMARK  7 active torsions:
REMARK  status: ('A' for Active; 'I' for Inactive)
REMARK    1  A    between atoms: C_1  and  C_2
REMARK    2  A    between atoms: C_5  and  C_6
REMARK    3  A    between atoms: C_10  and  C_11
REMARK    4  A    between atoms: C_14  and  C_15
REMARK    5  A    between atoms: C_21  and  C_22
REMARK    6  A    between atoms: C_25  and  C_26
REMARK    7  A    between atoms: C_29  and  C_30
REMARK                            x       y       z     vdW  Elec       q    Type
REMARK                         _______ _______ _______ _____ _____    ______ ____
ROOT
ATOM      1  C   UNL     1       2.582   4.824  20.766  0.00  0.00    +0.000 C 
ATOM      2  C   UNL     1       2.265   6.141  20.108  0.00  0.00    +0.000 A 
ATOM      3  C   UNL     1       1.436   7.025  20.825  0.00  0.00    +0.000 A 
ATOM      4  C   UNL     1       1.136   8.288  20.330  0.00  0.00    +0.000 A 
ATOM      5  C   UNL     1       1.651   8.701  19.103  0.00  0.00    +0.000 A 
ATOM      6  C   UNL     1       2.464   7.821  18.377  0.00  0.00    +0.000 A 
ATOM      7  C   UNL     1       2.764   6.525  18.842  0.00  0.00    +0.000 A 
ENDROOT
BRANCH   7   8
ATOM      8  C   UNL     1       3.540   5.626  17.964  0.00  0.00    +0.000 A 
ATOM      9  N   UNL     1       3.008   4.471  17.448  0.00  0.00    +0.000 N 
ATOM     10  N   UNL     1       3.806   3.795  16.622  0.00  0.00    +0.000 NA
ATOM     11  C   UNL     1       4.895   4.556  16.545  0.00  0.00    +0.000 A 
ATOM     12  C   UNL     1       4.806   5.713  17.373  0.00  0.00    +0.000 A 
ATOM     13  C   UNL     1       5.826   6.782  17.538  0.00  0.00    +0.000 C 
ATOM     14  H   UNL     1       2.084   4.091  17.605  0.00  0.00    +0.000 HD
BRANCH  11  15
ATOM     15  C   UNL     1       6.059   4.195  15.624  0.00  0.00    +0.000 C 
ATOM     16  C   UNL     1       5.758   3.792  14.192  0.00  0.00    +0.000 C 
ATOM     17  C   UNL     1       6.349   5.132  14.463  0.00  0.00    +0.000 C 
ENDBRANCH  11  15
ENDBRANCH   7   8
BRANCH   5  18
ATOM     18  C   UNL     1       1.330  10.086  18.657  0.00  0.00    +0.000 C 
ATOM     19  O   UNL     1       2.254  10.882  18.473  0.00  0.00    +0.000 OA
ATOM     20  N   UNL     1       0.029  10.443  18.423  0.00  0.00    +0.000 N 
ATOM     21  C   UNL     1      -0.450  11.797  18.192  0.00  0.00    +0.000 C 
ATOM     22  C   UNL     1      -1.787  11.363  18.823  0.00  0.00    +0.000 C 
ATOM     23  C   UNL     1      -1.242   9.938  18.911  0.00  0.00    +0.000 C 
BRANCH  22  24
ATOM     24  C   UNL     1      -2.310  12.136  20.110  0.00  0.00    +0.000 A 
ATOM     25  C   UNL     1      -3.617  12.649  20.225  0.00  0.00    +0.000 A 
ATOM     26  C   UNL     1      -4.187  12.902  21.474  0.00  0.00    +0.000 A 
ATOM     27  C   UNL     1      -3.438  12.693  22.631  0.00  0.00    +0.000 A 
ATOM     28  C   UNL     1      -2.077  12.415  22.527  0.00  0.00    +0.000 A 
ATOM     29  C   UNL     1      -1.518  12.166  21.274  0.00  0.00    +0.000 A 
BRANCH  27  30
ATOM     30  C   UNL     1      -4.083  12.629  23.909  0.00  0.00    +0.000 C 
ATOM     31  N   UNL     1      -4.535  12.550  24.975  0.00  0.00    +0.000 NA
ENDBRANCH  27  30
ENDBRANCH  22  24
ENDBRANCH   5  18
TORSDOF 5
ENDMDL
MODEL 3
REMARK VINA RESULT:      -8.0      0.765      1.123
REMARK  Name = 
REMARK  7 active torsions:
REMARK  status: ('A' for Active; 'I' for Inactive)
REMARK    1  A    between atoms: C_1  and  C_2
REMARK    2  A    between atoms: C_5  and  C_6
REMARK    3  A    between atoms: C_10  and  C_11
REMARK    4  A    between atoms: C_14  and  C_15
REMARK    5  A    between atoms: C_21  and  C_22
REMARK    6  A    between atoms: C_25  and  C_26
REMARK    7  A    between atoms: C_29  and  C_30
REMARK                            x       y       z     vdW  Elec       q    Type
REMARK                         _______ _______ _______ _____ _____    ______ ____
ROOT
ATOM      1  C   UNL     1       2.858   2.865  19.349  0.00  0.00    +0.000 C 
ATOM      2  C   UNL     1       2.577   4.320  19.618  0.00  0.00    +0.000 A 
ATOM      3  C   UNL     1       1.400   4.617  20.332  0.00  0.00    +0.000 A 
ATOM      4  C   UNL     1       1.084   5.924  20.683  0.00  0.00    +0.000 A 
ATOM      5  C   UNL     1       1.932   6.971  20.324  0.00  0.00    +0.000 A 
ATOM      6  C   UNL     1       3.096   6.684  19.602  0.00  0.00    +0.000 A 
ATOM      7  C   UNL     1       3.429   5.371  19.210  0.00  0.00    +0.000 A 
ENDROOT
BRANCH   7   8
ATOM      8  C   UNL     1       4.621   5.173  18.358  0.00  0.00    +0.000 A 
ATOM      9  N   UNL     1       5.890   5.443  18.806  0.00  0.00    +0.000 N 
ATOM     10  N   UNL     1       6.869   5.156  17.948  0.00  0.00    +0.000 NA
ATOM     11  C   UNL     1       6.229   4.629  16.907  0.00  0.00    +0.000 A 
ATOM     12  C   UNL     1       4.816   4.622  17.087  0.00  0.00    +0.000 A 
ATOM     13  C   UNL     1       3.791   4.111  16.140  0.00  0.00    +0.000 C 
ATOM     14  H   UNL     1       6.163   5.809  19.708  0.00  0.00    +0.000 HD
BRANCH  11  15
ATOM     15  C   UNL     1       6.986   4.075  15.701  0.00  0.00    +0.000 C 
ATOM     16  C   UNL     1       6.244   3.908  14.388  0.00  0.00    +0.000 C 
ATOM     17  C   UNL     1       7.227   5.017  14.533  0.00  0.00    +0.000 C 
ENDBRANCH  11  15
ENDBRANCH   7   8
BRANCH   5  18
ATOM     18  C   UNL     1       1.557   8.340  20.777  0.00  0.00    +0.000 C 
ATOM     19  O   UNL     1       1.542   8.585  21.985  0.00  0.00    +0.000 OA
ATOM     20  N   UNL     1       1.276   9.311  19.852  0.00  0.00    +0.000 N 
ATOM     21  C   UNL     1       0.698  10.615  20.142  0.00  0.00    +0.000 C 
ATOM     22  C   UNL     1       0.065  10.574  18.738  0.00  0.00    +0.000 C 
ATOM     23  C   UNL     1       0.812   9.267  18.477  0.00  0.00    +0.000 C 
BRANCH  22  24
ATOM     24  C   UNL     1      -1.517  10.669  18.612  0.00  0.00    +0.000 A 
ATOM     25  C   UNL     1      -2.305  11.522  19.409  0.00  0.00    +0.000 A 
ATOM     26  C   UNL     1      -3.577  11.926  18.997  0.00  0.00    +0.000 A 
ATOM     27  C   UNL     1      -4.103  11.441  17.800  0.00  0.00    +0.000 A 
ATOM     28  C   UNL     1      -3.440  10.418  17.124  0.00  0.00    +0.000 A 
ATOM     29  C   UNL     1      -2.171  10.023  17.545  0.00  0.00    +0.000 A 
BRANCH  27  30
ATOM     30  C   UNL     1      -5.239  12.074  17.199  0.00  0.00    +0.000 C 
ATOM     31  N   UNL     1      -6.136  12.657  16.749  0.00  0.00    +0.000 NA
ENDBRANCH  27  30
ENDBRANCH  22  24
ENDBRANCH   5  18
TORSDOF 5
ENDMDL
MODEL 4
REMARK VINA RESULT:      -8.0      1.241      1.629
REMARK  Name = 
REMARK  7 active torsions:
REMARK  status: ('A' for Active; 'I' for Inactive)
REMARK    1  A    between atoms: C_1  and  C_2
REMARK    2  A    between atoms: C_5  and  C_6
REMARK    3  A    between atoms: C_10  and  C_11
REMARK    4  A    between atoms: C_14  and  C_15
REMARK    5  A    between atoms: C_21  and  C_22
REMARK    6  A    between atoms: C_25  and  C_26
REMARK    7  A    between atoms: C_29  and  C_30
REMARK                            x       y       z     vdW  Elec       q    Type
REMARK                         _______ _______ _______ _____ _____    ______ ____
ROOT
ATOM      1  C   UNL     1       2.379   2.520  19.478  0.00  0.00    +0.000 C 
ATOM      2  C   UNL     1       2.211   4.010  19.622  0.00  0.00    +0.000 A 
ATOM      3  C   UNL     1       1.246   4.452  20.548  0.00  0.00    +0.000 A 
ATOM      4  C   UNL     1       1.058   5.806  20.797  0.00  0.00    +0.000 A 
ATOM      5  C   UNL     1       1.825   6.756  20.125  0.00  0.00    +0.000 A 
ATOM      6  C   UNL     1       2.777   6.324  19.193  0.00  0.00    +0.000 A 
ATOM      7  C   UNL     1       2.971   4.958  18.901  0.00  0.00    +0.000 A 
ENDROOT
BRANCH   7   8
ATOM      8  C   UNL     1       3.920   4.598  17.828  0.00  0.00    +0.000 A 
ATOM      9  N   UNL     1       3.516   3.965  16.678  0.00  0.00    +0.000 N 
ATOM     10  N   UNL     1       4.474   3.761  15.774  0.00  0.00    +0.000 NA
ATOM     11  C   UNL     1       5.548   4.325  16.322  0.00  0.00    +0.000 A 
ATOM     12  C   UNL     1       5.280   4.857  17.616  0.00  0.00    +0.000 A 
ATOM     13  C   UNL     1       6.233   5.555  18.518  0.00  0.00    +0.000 C 
ATOM     14  H   UNL     1       2.583   3.660  16.435  0.00  0.00    +0.000 HD
BRANCH  11  15
ATOM     15  C   UNL     1       6.880   4.396  15.577  0.00  0.00    +0.000 C 
ATOM     16  C   UNL     1       6.873   4.310  14.062  0.00  0.00    +0.000 C 
ATOM     17  C   UNL     1       7.135   5.623  14.716  0.00  0.00    +0.000 C 
ENDBRANCH  11  15
ENDBRANCH   7   8
BRANCH   5  18
ATOM     18  C   UNL     1       1.607   8.187  20.479  0.00  0.00    +0.000 C 
ATOM     19  O   UNL     1       1.745   8.538  21.653  0.00  0.00    +0.000 OA
ATOM     20  N   UNL     1       1.298   9.092  19.499  0.00  0.00    +0.000 N 
ATOM     21  C   UNL     1       0.856  10.461  19.719  0.00  0.00    +0.000 C 
ATOM     22  C   UNL     1       0.069  10.350  18.399  0.00  0.00    +0.000 C 
ATOM     23  C   UNL     1       0.682   8.966  18.190  0.00  0.00    +0.000 C 
BRANCH  22  24
ATOM     24  C   UNL     1      -1.506  10.568  18.430  0.00  0.00    +0.000 A 
ATOM     25  C   UNL     1      -2.140  11.505  19.269  0.00  0.00    +0.000 A 
ATOM     26  C   UNL     1      -3.413  11.997  18.972  0.00  0.00    +0.000 A 
ATOM     27  C   UNL     1      -4.095  11.519  17.853  0.00  0.00    +0.000 A 
ATOM     28  C   UNL     1      -3.586  10.428  17.153  0.00  0.00    +0.000 A 
ATOM     29  C   UNL     1      -2.314   9.945  17.459  0.00  0.00    +0.000 A 
BRANCH  27  30
ATOM     30  C   UNL     1      -5.235  12.224  17.346  0.00  0.00    +0.000 C 
ATOM     31  N   UNL     1      -6.139  12.765  16.861  0.00  0.00    +0.000 NA
ENDBRANCH  27  30
ENDBRANCH  22  24
ENDBRANCH   5  18
TORSDOF 5
ENDMDL
MODEL 5
REMARK VINA RESULT:      -7.8      2.173      3.173
REMARK  Name = 
REMARK  7 active torsions:
REMARK  status: ('A' for Active; 'I' for Inactive)
REMARK    1  A    between atoms: C_1  and  C_2
REMARK    2  A    between atoms: C_5  and  C_6
REMARK    3  A    between atoms: C_10  and  C_11
REMARK    4  A    between atoms: C_14  and  C_15
REMARK    5  A    between atoms: C_21  and  C_22
REMARK    6  A    between atoms: C_25  and  C_26
REMARK    7  A    between atoms: C_29  and  C_30
REMARK                            x       y       z     vdW  Elec       q    Type
REMARK                         _______ _______ _______ _____ _____    ______ ____
ROOT
ATOM      1  C   UNL     1       2.376   5.723  20.863  0.00  0.00    +0.000 C 
ATOM      2  C   UNL     1       1.924   7.033  20.274  0.00  0.00    +0.000 A 
ATOM      3  C   UNL     1       1.001   7.783  21.029  0.00  0.00    +0.000 A 
ATOM      4  C   UNL     1       0.570   9.033  20.601  0.00  0.00    +0.000 A 
ATOM      5  C   UNL     1       1.043   9.566  19.403  0.00  0.00    +0.000 A 
ATOM      6  C   UNL     1       1.949   8.819  18.640  0.00  0.00    +0.000 A 
ATOM      7  C   UNL     1       2.385   7.538  19.037  0.00  0.00    +0.000 A 
ENDROOT
BRANCH   7   8
ATOM      8  C   UNL     1       3.258   6.778  18.119  0.00  0.00    +0.000 A 
ATOM      9  N   UNL     1       4.482   7.252  17.717  0.00  0.00    +0.000 N 
ATOM     10  N   UNL     1       5.183   6.428  16.938  0.00  0.00    +0.000 NA
ATOM     11  C   UNL     1       4.417   5.342  16.860  0.00  0.00    +0.000 A 
ATOM     12  C   UNL     1       3.187   5.495  17.562  0.00  0.00    +0.000 A 
ATOM     13  C   UNL     1       2.095   4.496  17.693  0.00  0.00    +0.000 C 
ATOM     14  H   UNL     1       4.914   8.133  17.959  0.00  0.00    +0.000 HD
BRANCH  11  15
ATOM     15  C   UNL     1       4.880   4.090  16.117  0.00  0.00    +0.000 C 
ATOM     16  C   UNL     1       5.473   4.244  14.728  0.00  0.00    +0.000 C 
ATOM     17  C   UNL     1       6.372   3.933  15.873  0.00  0.00    +0.000 C 
ENDBRANCH  11  15
ENDBRANCH   7   8
BRANCH   5  18
ATOM     18  C   UNL     1       0.579  10.931  19.031  0.00  0.00    +0.000 C 
ATOM     19  O   UNL     1       1.271  11.902  19.343  0.00  0.00    +0.000 OA
ATOM     20  N   UNL     1      -0.582  11.086  18.319  0.00  0.00    +0.000 N 
ATOM     21  C   UNL     1      -1.261  12.348  18.071  0.00  0.00    +0.000 C 
ATOM     22  C   UNL     1      -2.581  11.556  18.031  0.00  0.00    +0.000 C 
ATOM     23  C   UNL     1      -1.772  10.268  18.171  0.00  0.00    +0.000 C 
BRANCH  22  24
ATOM     24  C   UNL     1      -3.729  11.934  19.065  0.00  0.00    +0.000 A 
ATOM     25  C   UNL     1      -3.481  12.577  20.293  0.00  0.00    +0.000 A 
ATOM     26  C   UNL     1      -4.484  13.291  20.952  0.00  0.00    +0.000 A 
ATOM     27  C   UNL     1      -5.771  13.330  20.415  0.00  0.00    +0.000 A 
ATOM     28  C   UNL     1      -6.089  12.509  19.335  0.00  0.00    +0.000 A 
ATOM     29  C   UNL     1      -5.079  11.800  18.686  0.00  0.00    +0.000 A 
BRANCH  27  30
ATOM     30  C   UNL     1      -6.719  14.299  20.878  0.00  0.00    +0.000 C 
ATOM     31  N   UNL     1      -7.530  15.022  21.286  0.00  0.00    +0.000 NA
ENDBRANCH  27  30
ENDBRANCH  22  24
ENDBRANCH   5  18
TORSDOF 5
ENDMDL
MODEL 6
REMARK VINA RESULT:      -7.8      1.036      1.246
REMARK  Name = 
REMARK  7 active torsions:
REMARK  status: ('A' for Active; 'I' for Inactive)
REMARK    1  A    between atoms: C_1  and  C_2
REMARK    2  A    between atoms: C_5  and  C_6
REMARK    3  A    between atoms: C_10  and  C_11
REMARK    4  A    between atoms: C_14  and  C_15
REMARK    5  A    between atoms: C_21  and  C_22
REMARK    6  A    between atoms: C_25  and  C_26
REMARK    7  A    between atoms: C_29  and  C_30
REMARK                            x       y       z     vdW  Elec       q    Type
REMARK                         _______ _______ _______ _____ _____    ______ ____
ROOT
ATOM      1  C   UNL     1       2.910   2.783  19.692  0.00  0.00    +0.000 C 
ATOM      2  C   UNL     1       2.543   4.240  19.805  0.00  0.00    +0.000 A 
ATOM      3  C   UNL     1       1.689   4.598  20.866  0.00  0.00    +0.000 A 
ATOM      4  C   UNL     1       1.342   5.925  21.092  0.00  0.00    +0.000 A 
ATOM      5  C   UNL     1       1.833   6.930  20.259  0.00  0.00    +0.000 A 
ATOM      6  C   UNL     1       2.671   6.579  19.193  0.00  0.00    +0.000 A 
ATOM      7  C   UNL     1       3.019   5.239  18.925  0.00  0.00    +0.000 A 
ENDROOT
BRANCH   7   8
ATOM      8  C   UNL     1       3.820   4.950  17.718  0.00  0.00    +0.000 A 
ATOM      9  N   UNL     1       3.700   3.768  17.029  0.00  0.00    +0.000 N 
ATOM     10  N   UNL     1       4.441   3.676  15.925  0.00  0.00    +0.000 NA
ATOM     11  C   UNL     1       5.040   4.862  15.848  0.00  0.00    +0.000 A 
ATOM     12  C   UNL     1       4.710   5.707  16.947  0.00  0.00    +0.000 A 
ATOM     13  C   UNL     1       5.187   7.093  17.192  0.00  0.00    +0.000 C 
ATOM     14  H   UNL     1       3.106   2.980  17.250  0.00  0.00    +0.000 HD
BRANCH  11  15
ATOM     15  C   UNL     1       5.937   5.229  14.668  0.00  0.00    +0.000 C 
ATOM     16  C   UNL     1       7.385   4.773  14.685  0.00  0.00    +0.000 C 
ATOM     17  C   UNL     1       6.418   4.095  13.777  0.00  0.00    +0.000 C 
ENDBRANCH  11  15
ENDBRANCH   7   8
BRANCH   5  18
ATOM     18  C   UNL     1       1.462   8.334  20.590  0.00  0.00    +0.000 C 
ATOM     19  O   UNL     1       1.248   8.633  21.767  0.00  0.00    +0.000 OA
ATOM     20  N   UNL     1       1.403   9.276  19.596  0.00  0.00    +0.000 N 
ATOM     21  C   UNL     1       0.858  10.618  19.732  0.00  0.00    +0.000 C 
ATOM     22  C   UNL     1       0.481  10.546  18.240  0.00  0.00    +0.000 C 
ATOM     23  C   UNL     1       1.187   9.193  18.163  0.00  0.00    +0.000 C 
BRANCH  22  24
ATOM     24  C   UNL     1      -1.047  10.712  17.831  0.00  0.00    +0.000 A 
ATOM     25  C   UNL     1      -1.813   9.672  17.269  0.00  0.00    +0.000 A 
ATOM     26  C   UNL     1      -3.208   9.681  17.341  0.00  0.00    +0.000 A 
ATOM     27  C   UNL     1      -3.862  10.760  17.933  0.00  0.00    +0.000 A 
ATOM     28  C   UNL     1      -3.136  11.899  18.277  0.00  0.00    +0.000 A 
ATOM     29  C   UNL     1      -1.744  11.878  18.200  0.00  0.00    +0.000 A 
BRANCH  27  30
ATOM     30  C   UNL     1      -5.240  10.653  18.309  0.00  0.00    +0.000 C 
ATOM     31  N   UNL     1      -6.337  10.604  18.685  0.00  0.00    +0.000 NA
ENDBRANCH  27  30
ENDBRANCH  22  24
ENDBRANCH   5  18
TORSDOF 5
ENDMDL
MODEL 7
REMARK VINA RESULT:      -7.7      1.242      1.566
REMARK  Name = 
REMARK  7 active torsions:
REMARK  status: ('A' for Active; 'I' for Inactive)
REMARK    1  A    between atoms: C_1  and  C_2
REMARK    2  A    between atoms: C_5  and  C_6
REMARK    3  A    between atoms: C_10  and  C_11
REMARK    4  A    between atoms: C_14  and  C_15
REMARK    5  A    between atoms: C_21  and  C_22
REMARK    6  A    between atoms: C_25  and  C_26
REMARK    7  A    between atoms: C_29  and  C_30
REMARK                            x       y       z     vdW  Elec       q    Type
REMARK                         _______ _______ _______ _____ _____    ______ ____
ROOT
ATOM      1  C   UNL     1       2.960   2.337  19.191  0.00  0.00    +0.000 C 
ATOM      2  C   UNL     1       2.694   3.807  19.382  0.00  0.00    +0.000 A 
ATOM      3  C   UNL     1       1.718   4.156  20.334  0.00  0.00    +0.000 A 
ATOM      4  C   UNL     1       1.444   5.487  20.626  0.00  0.00    +0.000 A 
ATOM      5  C   UNL     1       2.134   6.506  19.971  0.00  0.00    +0.000 A 
ATOM      6  C   UNL     1       3.096   6.165  19.013  0.00  0.00    +0.000 A 
ATOM      7  C   UNL     1       3.376   4.825  18.677  0.00  0.00    +0.000 A 
ENDROOT
BRANCH   7   8
ATOM      8  C   UNL     1       4.329   4.561  17.579  0.00  0.00    +0.000 A 
ATOM      9  N   UNL     1       4.855   3.312  17.354  0.00  0.00    +0.000 N 
ATOM     10  N   UNL     1       5.651   3.214  16.290  0.00  0.00    +0.000 NA
ATOM     11  C   UNL     1       5.615   4.433  15.756  0.00  0.00    +0.000 A 
ATOM     12  C   UNL     1       4.818   5.334  16.520  0.00  0.00    +0.000 A 
ATOM     13  C   UNL     1       4.550   6.767  16.228  0.00  0.00    +0.000 C 
ATOM     14  H   UNL     1       4.691   2.468  17.884  0.00  0.00    +0.000 HD
BRANCH  11  15
ATOM     15  C   UNL     1       6.336   4.754  14.449  0.00  0.00    +0.000 C 
ATOM     16  C   UNL     1       6.715   3.610  13.525  0.00  0.00    +0.000 C 
ATOM     17  C   UNL     1       5.582   4.502  13.153  0.00  0.00    +0.000 C 
ENDBRANCH  11  15
ENDBRANCH   7   8
BRANCH   5  18
ATOM     18  C   UNL     1       1.826   7.907  20.371  0.00  0.00    +0.000 C 
ATOM     19  O   UNL     1       1.849   8.205  21.567  0.00  0.00    +0.000 OA
ATOM     20  N   UNL     1       1.564   8.848  19.410  0.00  0.00    +0.000 N 
ATOM     21  C   UNL     1       1.047  10.186  19.654  0.00  0.00    +0.000 C 
ATOM     22  C   UNL     1       0.381  10.112  18.267  0.00  0.00    +0.000 C 
ATOM     23  C   UNL     1       1.067   8.764  18.049  0.00  0.00    +0.000 C 
BRANCH  22  24
ATOM     24  C   UNL     1      -1.199  10.267  18.170  0.00  0.00    +0.000 A 
ATOM     25  C   UNL     1      -1.964  10.975  19.118  0.00  0.00    +0.000 A 
ATOM     26  C   UNL     1      -3.226  11.480  18.797  0.00  0.00    +0.000 A 
ATOM     27  C   UNL     1      -3.765  11.241  17.533  0.00  0.00    +0.000 A 
ATOM     28  C   UNL     1      -3.128  10.349  16.673  0.00  0.00    +0.000 A 
ATOM     29  C   UNL     1      -1.869   9.850  17.005  0.00  0.00    +0.000 A 
BRANCH  27  30
ATOM     30  C   UNL     1      -4.885  12.004  17.069  0.00  0.00    +0.000 C 
ATOM     31  N   UNL     1      -5.841  12.558  16.712  0.00  0.00    +0.000 NA
ENDBRANCH  27  30
ENDBRANCH  22  24
ENDBRANCH   5  18
TORSDOF 5
ENDMDL
MODEL 8
REMARK VINA RESULT:      -7.7      3.007     10.707
REMARK  Name = 
REMARK  7 active torsions:
REMARK  status: ('A' for Active; 'I' for Inactive)
REMARK    1  A    between atoms: C_1  and  C_2
REMARK    2  A    between atoms: C_5  and  C_6
REMARK    3  A    between atoms: C_10  and  C_11
REMARK    4  A    between atoms: C_14  and  C_15
REMARK    5  A    between atoms: C_21  and  C_22
REMARK    6  A    between atoms: C_25  and  C_26
REMARK    7  A    between atoms: C_29  and  C_30
REMARK                            x       y       z     vdW  Elec       q    Type
REMARK                         _______ _______ _______ _____ _____    ______ ____
ROOT
ATOM      1  C   UNL     1      -5.115  11.979  17.074  0.00  0.00    +0.000 C 
ATOM      2  C   UNL     1      -3.870  11.787  17.900  0.00  0.00    +0.000 A 
ATOM      3  C   UNL     1      -2.740  11.274  17.234  0.00  0.00    +0.000 A 
ATOM      4  C   UNL     1      -1.527  11.119  17.894  0.00  0.00    +0.000 A 
ATOM      5  C   UNL     1      -1.411  11.465  19.239  0.00  0.00    +0.000 A 
ATOM      6  C   UNL     1      -2.535  11.962  19.911  0.00  0.00    +0.000 A 
ATOM      7  C   UNL     1      -3.784  12.106  19.274  0.00  0.00    +0.000 A 
ENDROOT
BRANCH   7   8
ATOM      8  C   UNL     1      -4.941  12.536  20.087  0.00  0.00    +0.000 A 
ATOM      9  N   UNL     1      -5.930  11.663  20.467  0.00  0.00    +0.000 N 
ATOM     10  N   UNL     1      -6.876  12.182  21.250  0.00  0.00    +0.000 NA
ATOM     11  C   UNL     1      -6.474  13.436  21.439  0.00  0.00    +0.000 A 
ATOM     12  C   UNL     1      -5.276  13.735  20.727  0.00  0.00    +0.000 A 
ATOM     13  C   UNL     1      -4.541  15.026  20.704  0.00  0.00    +0.000 C 
ATOM     14  H   UNL     1      -6.009  10.681  20.241  0.00  0.00    +0.000 HD
BRANCH  11  15
ATOM     15  C   UNL     1      -7.235  14.388  22.360  0.00  0.00    +0.000 C 
ATOM     16  C   UNL     1      -7.917  13.822  23.592  0.00  0.00    +0.000 C 
ATOM     17  C   UNL     1      -6.668  14.618  23.752  0.00  0.00    +0.000 C 
ENDBRANCH  11  15
ENDBRANCH   7   8
BRANCH   5  18
ATOM     18  C   UNL     1      -0.069  11.321  19.869  0.00  0.00    +0.000 C 
ATOM     19  O   UNL     1       0.802  12.155  19.615  0.00  0.00    +0.000 OA
ATOM     20  N   UNL     1       0.166  10.295  20.747  0.00  0.00    +0.000 N 
ATOM     21  C   UNL     1       1.467   9.908  21.269  0.00  0.00    +0.000 C 
ATOM     22  C   UNL     1       0.928   8.468  21.368  0.00  0.00    +0.000 C 
ATOM     23  C   UNL     1      -0.441   8.988  20.931  0.00  0.00    +0.000 C 
BRANCH  22  24
ATOM     24  C   UNL     1       1.676   7.316  20.566  0.00  0.00    +0.000 A 
ATOM     25  C   UNL     1       1.668   5.966  20.968  0.00  0.00    +0.000 A 
ATOM     26  C   UNL     1       1.919   4.939  20.056  0.00  0.00    +0.000 A 
ATOM     27  C   UNL     1       2.234   5.250  18.734  0.00  0.00    +0.000 A 
ATOM     28  C   UNL     1       2.478   6.576  18.380  0.00  0.00    +0.000 A 
ATOM     29  C   UNL     1       2.224   7.593  19.299  0.00  0.00    +0.000 A 
BRANCH  27  30
ATOM     30  C   UNL     1       2.176   4.240  17.719  0.00  0.00    +0.000 C 
ATOM     31  N   UNL     1       2.206   3.443  16.877  0.00  0.00    +0.000 NA
ENDBRANCH  27  30
ENDBRANCH  22  24
ENDBRANCH   5  18
TORSDOF 5
ENDMDL
MODEL 9
REMARK VINA RESULT:      -7.7      2.526      3.306
REMARK  Name = 
REMARK  7 active torsions:
REMARK  status: ('A' for Active; 'I' for Inactive)
REMARK    1  A    between atoms: C_1  and  C_2
REMARK    2  A    between atoms: C_5  and  C_6
REMARK    3  A    between atoms: C_10  and  C_11
REMARK    4  A    between atoms: C_14  and  C_15
REMARK    5  A    between atoms: C_21  and  C_22
REMARK    6  A    between atoms: C_25  and  C_26
REMARK    7  A    between atoms: C_29  and  C_30
REMARK                            x       y       z     vdW  Elec       q    Type
REMARK                         _______ _______ _______ _____ _____    ______ ____
ROOT
ATOM      1  C   UNL     1       2.471   5.664  20.630  0.00  0.00    +0.000 C 
ATOM      2  C   UNL     1       2.086   6.992  20.034  0.00  0.00    +0.000 A 
ATOM      3  C   UNL     1       1.148   7.760  20.750  0.00  0.00    +0.000 A 
ATOM      4  C   UNL     1       0.775   9.026  20.314  0.00  0.00    +0.000 A 
ATOM      5  C   UNL     1       1.322   9.556  19.147  0.00  0.00    +0.000 A 
ATOM      6  C   UNL     1       2.244   8.791  18.422  0.00  0.00    +0.000 A 
ATOM      7  C   UNL     1       2.622   7.494  18.826  0.00  0.00    +0.000 A 
ENDROOT
BRANCH   7   8
ATOM      8  C   UNL     1       3.519   6.718  17.945  0.00  0.00    +0.000 A 
ATOM      9  N   UNL     1       4.755   7.182  17.570  0.00  0.00    +0.000 N 
ATOM     10  N   UNL     1       5.475   6.344  16.825  0.00  0.00    +0.000 NA
ATOM     11  C   UNL     1       4.709   5.259  16.741  0.00  0.00    +0.000 A 
ATOM     12  C   UNL     1       3.460   5.427  17.407  0.00  0.00    +0.000 A 
ATOM     13  C   UNL     1       2.361   4.432  17.522  0.00  0.00    +0.000 C 
ATOM     14  H   UNL     1       5.183   8.066  17.810  0.00  0.00    +0.000 HD
BRANCH  11  15
ATOM     15  C   UNL     1       5.188   3.995  16.031  0.00  0.00    +0.000 C 
ATOM     16  C   UNL     1       5.309   4.010  14.518  0.00  0.00    +0.000 C 
ATOM     17  C   UNL     1       6.545   4.048  15.348  0.00  0.00    +0.000 C 
ENDBRANCH  11  15
ENDBRANCH   7   8
BRANCH   5  18
ATOM     18  C   UNL     1       0.916  10.938  18.767  0.00  0.00    +0.000 C 
ATOM     19  O   UNL     1       1.764  11.832  18.773  0.00  0.00    +0.000 OA
ATOM     20  N   UNL     1      -0.375  11.186  18.380  0.00  0.00    +0.000 N 
ATOM     21  C   UNL     1      -0.963  12.503  18.187  0.00  0.00    +0.000 C 
ATOM     22  C   UNL     1      -2.316  11.888  18.590  0.00  0.00    +0.000 C 
ATOM     23  C   UNL     1      -1.637  10.520  18.647  0.00  0.00    +0.000 C 
BRANCH  22  24
ATOM     24  C   UNL     1      -3.083  12.489  19.846  0.00  0.00    +0.000 A 
ATOM     25  C   UNL     1      -4.480  12.668  19.884  0.00  0.00    +0.000 A 
ATOM     26  C   UNL     1      -5.166  12.754  21.098  0.00  0.00    +0.000 A 
ATOM     27  C   UNL     1      -4.456  12.712  22.297  0.00  0.00    +0.000 A 
ATOM     28  C   UNL     1      -3.064  12.775  22.274  0.00  0.00    +0.000 A 
ATOM     29  C   UNL     1      -2.390  12.689  21.056  0.00  0.00    +0.000 A 
BRANCH  27  30
ATOM     30  C   UNL     1      -5.138  12.472  23.534  0.00  0.00    +0.000 C 
ATOM     31  N   UNL     1      -5.629  12.318  24.574  0.00  0.00    +0.000 NA
ENDBRANCH  27  30
ENDBRANCH  22  24
ENDBRANCH   5  18
TORSDOF 5
ENDMDL
