MODEL 1
REMARK VINA RESULT:      -7.8      0.000      0.000
REMARK  Name = 
REMARK  7 active torsions:
REMARK  status: ('A' for Active; 'I' for Inactive)
REMARK    1  A    between atoms: C_1  and  C_2
REMARK    2  A    between atoms: C_5  and  C_6
REMARK    3  A    between atoms: C_7  and  C_8
REMARK    4  A    between atoms: C_8  and  C_9
REMARK    5  A    between atoms: C_9  and  O_11
REMARK    6  A    between atoms: C_12  and  C_13
REMARK    7  A    between atoms: C_20  and  S_21
REMARK                            x       y       z     vdW  Elec       q    Type
REMARK                         _______ _______ _______ _____ _____    ______ ____
ROOT
ATOM      1  C   UNL     1       3.887   5.640  18.225  0.00  0.00    +0.000 C 
ATOM      2  C   UNL     1       5.137   5.762  17.722  0.00  0.00    +0.000 C 
ATOM      3  C   UNL     1       5.932   4.523  17.350  0.00  0.00    +0.000 C 
ATOM      4  N   UNL     1       5.224   3.329  17.753  0.00  0.00    +0.000 N 
ATOM      5  C   UNL     1       3.959   3.377  18.233  0.00  0.00    +0.000 C 
ATOM      6  N   UNL     1       3.271   4.444  18.471  0.00  0.00    +0.000 NA
ATOM      7  H   UNL     1       5.635   2.442  17.498  0.00  0.00    +0.000 HD
ENDROOT
BRANCH   1  12
ATOM      8  C   UNL     1       0.549  10.254  19.252  0.00  0.00    +0.000 C 
ATOM      9  C   UNL     1       1.422   9.061  18.996  0.00  0.00    +0.000 A 
ATOM     10  C   UNL     1       1.659   8.116  20.000  0.00  0.00    +0.000 A 
ATOM     11  C   UNL     1       2.482   7.016  19.752  0.00  0.00    +0.000 A 
ATOM     12  C   UNL     1       3.074   6.841  18.494  0.00  0.00    +0.000 A 
ATOM     13  C   UNL     1       2.857   7.798  17.497  0.00  0.00    +0.000 A 
ATOM     14  C   UNL     1       2.036   8.897  17.746  0.00  0.00    +0.000 A 
ENDBRANCH   1  12
BRANCH   3  15
ATOM     15  C   UNL     1       6.196   4.457  15.858  0.00  0.00    +0.000 A 
ATOM     16  C   UNL     1       5.249   3.959  14.950  0.00  0.00    +0.000 A 
ATOM     17  C   UNL     1       5.490   4.032  13.581  0.00  0.00    +0.000 A 
ATOM     18  C   UNL     1       6.684   4.590  13.158  0.00  0.00    +0.000 A 
ATOM     19  N   UNL     1       7.634   5.050  13.998  0.00  0.00    +0.000 NA
ATOM     20  C   UNL     1       7.374   4.971  15.323  0.00  0.00    +0.000 A 
ENDBRANCH   3  15
BRANCH   5  21
ATOM     21  S   UNL     1       3.189   1.838  18.545  0.00  0.00    +0.000 S 
ATOM     22  H   UNL     1       4.254   1.057  18.359  0.00  0.00    +0.000 HD
ENDBRANCH   5  21
BRANCH   2  23
ATOM     23  C   UNL     1       5.797   7.096  17.413  0.00  0.00    +0.000 C 
BRANCH  23  24
ATOM     24  C   UNL     1       7.228   7.166  17.908  0.00  0.00    +0.000 C 
ATOM     25  O   UNL     1       7.650   6.515  18.856  0.00  0.00    +0.000 OA
BRANCH  24  26
ATOM     26  O   UNL     1       8.021   7.987  17.182  0.00  0.00    +0.000 OA
ATOM     27  H   UNL     1       8.190   8.858  17.591  0.00  0.00    +0.000 HD
ENDBRANCH  24  26
ENDBRANCH  23  24
ENDBRANCH   2  23
TORSDOF 6
ENDMDL
MODEL 2
REMARK VINA RESULT:      -7.7      2.730      6.115
REMARK  Name = 
REMARK  7 active torsions:
REMARK  status: ('A' for Active; 'I' for Inactive)
REMARK    1  A    between atoms: C_1  and  C_2
REMARK    2  A    between atoms: C_5  and  C_6
REMARK    3  A    between atoms: C_7  and  C_8
REMARK    4  A    between atoms: C_8  and  C_9
REMARK    5  A    between atoms: C_9  and  O_11
REMARK    6  A    between atoms: C_12  and  C_13
REMARK    7  A    between atoms: C_20  and  S_21
REMARK                            x       y       z     vdW  Elec       q    Type
REMARK                         _______ _______ _______ _____ _____    ______ ____
ROOT
ATOM      1  C   UNL     1       4.295   6.022  17.441  0.00  0.00    +0.000 C 
ATOM      2  C   UNL     1       4.409   5.429  18.651  0.00  0.00    +0.000 C 
ATOM      3  C   UNL     1       3.526   5.876  19.803  0.00  0.00    +0.000 C 
ATOM      4  N   UNL     1       2.754   7.037  19.427  0.00  0.00    +0.000 N 
ATOM      5  C   UNL     1       2.739   7.504  18.157  0.00  0.00    +0.000 C 
ATOM      6  N   UNL     1       3.444   7.058  17.170  0.00  0.00    +0.000 NA
ATOM      7  H   UNL     1       2.084   7.383  20.100  0.00  0.00    +0.000 HD
ENDROOT
BRANCH   1  12
ATOM      8  C   UNL     1       7.286   4.198  12.835  0.00  0.00    +0.000 C 
ATOM      9  C   UNL     1       6.521   4.669  14.037  0.00  0.00    +0.000 A 
ATOM     10  C   UNL     1       6.952   5.780  14.771  0.00  0.00    +0.000 A 
ATOM     11  C   UNL     1       6.237   6.203  15.893  0.00  0.00    +0.000 A 
ATOM     12  C   UNL     1       5.077   5.525  16.293  0.00  0.00    +0.000 A 
ATOM     13  C   UNL     1       4.660   4.401  15.574  0.00  0.00    +0.000 A 
ATOM     14  C   UNL     1       5.375   3.979  14.454  0.00  0.00    +0.000 A 
ENDBRANCH   1  12
BRANCH   3  15
ATOM     15  C   UNL     1       2.577   4.776  20.239  0.00  0.00    +0.000 A 
ATOM     16  C   UNL     1       1.646   4.198  19.363  0.00  0.00    +0.000 A 
ATOM     17  C   UNL     1       0.883   3.110  19.774  0.00  0.00    +0.000 A 
ATOM     18  C   UNL     1       1.062   2.637  21.063  0.00  0.00    +0.000 A 
ATOM     19  N   UNL     1       1.923   3.183  21.947  0.00  0.00    +0.000 NA
ATOM     20  C   UNL     1       2.656   4.238  21.521  0.00  0.00    +0.000 A 
ENDBRANCH   3  15
BRANCH   5  21
ATOM     21  S   UNL     1       1.648   8.832  17.829  0.00  0.00    +0.000 S 
ATOM     22  H   UNL     1       2.152   9.198  16.650  0.00  0.00    +0.000 HD
ENDBRANCH   5  21
BRANCH   2  23
ATOM     23  C   UNL     1       5.326   4.250  18.931  0.00  0.00    +0.000 C 
BRANCH  23  24
ATOM     24  C   UNL     1       6.770   4.671  19.122  0.00  0.00    +0.000 C 
ATOM     25  O   UNL     1       7.153   5.381  20.043  0.00  0.00    +0.000 OA
BRANCH  24  26
ATOM     26  O   UNL     1       7.618   4.157  18.201  0.00  0.00    +0.000 OA
ATOM     27  H   UNL     1       8.503   4.572  18.183  0.00  0.00    +0.000 HD
ENDBRANCH  24  26
ENDBRANCH  23  24
ENDBRANCH   2  23
TORSDOF 6
ENDMDL
MODEL 3
REMARK VINA RESULT:      -7.6      0.655      1.014
REMARK  Name = 
REMARK  7 active torsions:
REMARK  status: ('A' for Active; 'I' for Inactive)
REMARK    1  A    between atoms: C_1  and  C_2
REMARK    2  A    between atoms: C_5  and  C_6
REMARK    3  A    between atoms: C_7  and  C_8
REMARK    4  A    between atoms: C_8  and  C_9
REMARK    5  A    between atoms: C_9  and  O_11
REMARK    6  A    between atoms: C_12  and  C_13
REMARK    7  A    between atoms: C_20  and  S_21
REMARK                            x       y       z     vdW  Elec       q    Type
REMARK                         _______ _______ _______ _____ _____    ______ ____
ROOT
ATOM      1  C   UNL     1       3.873   5.615  18.036  0.00  0.00    +0.000 C 
ATOM      2  C   UNL     1       5.105   5.743  17.492  0.00  0.00    +0.000 C 
ATOM      3  C   UNL     1       5.871   4.509  17.045  0.00  0.00    +0.000 C 
ATOM      4  N   UNL     1       5.164   3.309  17.429  0.00  0.00    +0.000 N 
ATOM      5  C   UNL     1       3.919   3.352  17.957  0.00  0.00    +0.000 C 
ATOM      6  N   UNL     1       3.253   4.417  18.260  0.00  0.00    +0.000 NA
ATOM      7  H   UNL     1       5.555   2.428  17.126  0.00  0.00    +0.000 HD
ENDROOT
BRANCH   1  12
ATOM      8  C   UNL     1       0.629  10.222  19.356  0.00  0.00    +0.000 C 
ATOM      9  C   UNL     1       1.479   9.030  19.024  0.00  0.00    +0.000 A 
ATOM     10  C   UNL     1       1.733   8.041  19.980  0.00  0.00    +0.000 A 
ATOM     11  C   UNL     1       2.533   6.943  19.662  0.00  0.00    +0.000 A 
ATOM     12  C   UNL     1       3.084   6.813  18.379  0.00  0.00    +0.000 A 
ATOM     13  C   UNL     1       2.850   7.813  17.431  0.00  0.00    +0.000 A 
ATOM     14  C   UNL     1       2.051   8.911  17.750  0.00  0.00    +0.000 A 
ENDBRANCH   1  12
BRANCH   3  15
ATOM     15  C   UNL     1       6.079   4.497  15.543  0.00  0.00    +0.000 A 
ATOM     16  C   UNL     1       7.275   4.925  14.947  0.00  0.00    +0.000 A 
ATOM     17  C   UNL     1       7.463   4.780  13.576  0.00  0.00    +0.000 A 
ATOM     18  C   UNL     1       6.437   4.223  12.833  0.00  0.00    +0.000 A 
ATOM     19  N   UNL     1       5.259   3.828  13.360  0.00  0.00    +0.000 NA
ATOM     20  C   UNL     1       5.103   3.976  14.696  0.00  0.00    +0.000 A 
ENDBRANCH   3  15
BRANCH   5  21
ATOM     21  S   UNL     1       3.142   1.811  18.241  0.00  0.00    +0.000 S 
ATOM     22  H   UNL     1       3.960   1.054  17.507  0.00  0.00    +0.000 HD
ENDBRANCH   5  21
BRANCH   2  23
ATOM     23  C   UNL     1       5.768   7.080  17.208  0.00  0.00    +0.000 C 
BRANCH  23  24
ATOM     24  C   UNL     1       7.172   7.164  17.774  0.00  0.00    +0.000 C 
ATOM     25  O   UNL     1       7.579   6.456  18.686  0.00  0.00    +0.000 OA
BRANCH  24  26
ATOM     26  O   UNL     1       7.961   8.072  17.153  0.00  0.00    +0.000 OA
ATOM     27  H   UNL     1       7.502   8.631  16.496  0.00  0.00    +0.000 HD
ENDBRANCH  24  26
ENDBRANCH  23  24
ENDBRANCH   2  23
TORSDOF 6
ENDMDL
MODEL 4
REMARK VINA RESULT:      -7.5      3.096      6.382
REMARK  Name = 
REMARK  7 active torsions:
REMARK  status: ('A' for Active; 'I' for Inactive)
REMARK    1  A    between atoms: C_1  and  C_2
REMARK    2  A    between atoms: C_5  and  C_6
REMARK    3  A    between atoms: C_7  and  C_8
REMARK    4  A    between atoms: C_8  and  C_9
REMARK    5  A    between atoms: C_9  and  O_11
REMARK    6  A    between atoms: C_12  and  C_13
REMARK    7  A    between atoms: C_20  and  S_21
REMARK                            x       y       z     vdW  Elec       q    Type
REMARK                         _______ _______ _______ _____ _____    ______ ____
ROOT
ATOM      1  C   UNL     1       4.320   6.037  17.669  0.00  0.00    +0.000 C 
ATOM      2  C   UNL     1       4.394   5.416  18.868  0.00  0.00    +0.000 C 
ATOM      3  C   UNL     1       3.470   5.833  19.999  0.00  0.00    +0.000 C 
ATOM      4  N   UNL     1       2.708   7.001  19.624  0.00  0.00    +0.000 N 
ATOM      5  C   UNL     1       2.736   7.498  18.365  0.00  0.00    +0.000 C 
ATOM      6  N   UNL     1       3.476   7.077  17.393  0.00  0.00    +0.000 NA
ATOM      7  H   UNL     1       2.014   7.329  20.281  0.00  0.00    +0.000 HD
ENDROOT
BRANCH   1  12
ATOM      8  C   UNL     1       7.519   4.359  13.148  0.00  0.00    +0.000 C 
ATOM      9  C   UNL     1       6.699   4.789  14.329  0.00  0.00    +0.000 A 
ATOM     10  C   UNL     1       7.241   5.620  15.315  0.00  0.00    +0.000 A 
ATOM     11  C   UNL     1       6.471   6.005  16.414  0.00  0.00    +0.000 A 
ATOM     12  C   UNL     1       5.144   5.570  16.538  0.00  0.00    +0.000 A 
ATOM     13  C   UNL     1       4.609   4.721  15.564  0.00  0.00    +0.000 A 
ATOM     14  C   UNL     1       5.380   4.336  14.468  0.00  0.00    +0.000 A 
ENDBRANCH   1  12
BRANCH   3  15
ATOM     15  C   UNL     1       2.511   4.720  20.375  0.00  0.00    +0.000 A 
ATOM     16  C   UNL     1       1.530   4.245  19.492  0.00  0.00    +0.000 A 
ATOM     17  C   UNL     1       0.755   3.142  19.838  0.00  0.00    +0.000 A 
ATOM     18  C   UNL     1       0.974   2.552  21.070  0.00  0.00    +0.000 A 
ATOM     19  N   UNL     1       1.884   2.996  21.962  0.00  0.00    +0.000 NA
ATOM     20  C   UNL     1       2.627   4.067  21.600  0.00  0.00    +0.000 A 
ENDBRANCH   3  15
BRANCH   5  21
ATOM     21  S   UNL     1       1.652   8.829  18.031  0.00  0.00    +0.000 S 
ATOM     22  H   UNL     1       2.000   9.036  16.760  0.00  0.00    +0.000 HD
ENDBRANCH   5  21
BRANCH   2  23
ATOM     23  C   UNL     1       5.306   4.234  19.152  0.00  0.00    +0.000 C 
BRANCH  23  24
ATOM     24  C   UNL     1       4.621   2.902  18.918  0.00  0.00    +0.000 C 
ATOM     25  O   UNL     1       3.920   2.661  17.944  0.00  0.00    +0.000 OA
BRANCH  24  26
ATOM     26  O   UNL     1       4.884   1.975  19.869  0.00  0.00    +0.000 OA
ATOM     27  H   UNL     1       5.012   1.067  19.531  0.00  0.00    +0.000 HD
ENDBRANCH  24  26
ENDBRANCH  23  24
ENDBRANCH   2  23
TORSDOF 6
ENDMDL
MODEL 5
REMARK VINA RESULT:      -7.3      2.718      6.101
REMARK  Name = 
REMARK  7 active torsions:
REMARK  status: ('A' for Active; 'I' for Inactive)
REMARK    1  A    between atoms: C_1  and  C_2
REMARK    2  A    between atoms: C_5  and  C_6
REMARK    3  A    between atoms: C_7  and  C_8
REMARK    4  A    between atoms: C_8  and  C_9
REMARK    5  A    between atoms: C_9  and  O_11
REMARK    6  A    between atoms: C_12  and  C_13
REMARK    7  A    between atoms: C_20  and  S_21
REMARK                            x       y       z     vdW  Elec       q    Type
REMARK                         _______ _______ _______ _____ _____    ______ ____
ROOT
ATOM      1  C   UNL     1       4.399   6.060  17.295  0.00  0.00    +0.000 C 
ATOM      2  C   UNL     1       4.534   5.406  18.471  0.00  0.00    +0.000 C 
ATOM      3  C   UNL     1       3.660   5.782  19.655  0.00  0.00    +0.000 C 
ATOM      4  N   UNL     1       2.870   6.952  19.349  0.00  0.00    +0.000 N 
ATOM      5  C   UNL     1       2.835   7.484  18.105  0.00  0.00    +0.000 C 
ATOM      6  N   UNL     1       3.534   7.099  17.089  0.00  0.00    +0.000 NA
ATOM      7  H   UNL     1       2.204   7.254  20.047  0.00  0.00    +0.000 HD
ENDROOT
BRANCH   1  12
ATOM      8  C   UNL     1       7.503   4.249  12.760  0.00  0.00    +0.000 C 
ATOM      9  C   UNL     1       6.688   4.721  13.928  0.00  0.00    +0.000 A 
ATOM     10  C   UNL     1       5.456   4.130  14.229  0.00  0.00    +0.000 A 
ATOM     11  C   UNL     1       4.702   4.585  15.312  0.00  0.00    +0.000 A 
ATOM     12  C   UNL     1       5.174   5.634  16.115  0.00  0.00    +0.000 A 
ATOM     13  C   UNL     1       6.393   6.240  15.800  0.00  0.00    +0.000 A 
ATOM     14  C   UNL     1       7.145   5.786  14.716  0.00  0.00    +0.000 A 
ENDBRANCH   1  12
BRANCH   3  15
ATOM     15  C   UNL     1       2.729   4.649  20.043  0.00  0.00    +0.000 A 
ATOM     16  C   UNL     1       2.687   4.123  21.343  0.00  0.00    +0.000 A 
ATOM     17  C   UNL     1       1.732   3.168  21.680  0.00  0.00    +0.000 A 
ATOM     18  C   UNL     1       0.851   2.753  20.697  0.00  0.00    +0.000 A 
ATOM     19  N   UNL     1       0.877   3.208  19.427  0.00  0.00    +0.000 NA
ATOM     20  C   UNL     1       1.813   4.138  19.126  0.00  0.00    +0.000 A 
ENDBRANCH   3  15
BRANCH   5  21
ATOM     21  S   UNL     1       1.725   8.814  17.860  0.00  0.00    +0.000 S 
ATOM     22  H   UNL     1       0.593   8.107  17.839  0.00  0.00    +0.000 HD
ENDBRANCH   5  21
BRANCH   2  23
ATOM     23  C   UNL     1       5.468   4.226  18.679  0.00  0.00    +0.000 C 
BRANCH  23  24
ATOM     24  C   UNL     1       6.888   4.656  18.992  0.00  0.00    +0.000 C 
ATOM     25  O   UNL     1       7.192   5.334  19.965  0.00  0.00    +0.000 OA
BRANCH  24  26
ATOM     26  O   UNL     1       7.809   4.190  18.116  0.00  0.00    +0.000 OA
ATOM     27  H   UNL     1       8.737   4.359  18.370  0.00  0.00    +0.000 HD
ENDBRANCH  24  26
ENDBRANCH  23  24
ENDBRANCH   2  23
TORSDOF 6
ENDMDL
MODEL 6
REMARK VINA RESULT:      -7.2      3.203      4.587
REMARK  Name = 
REMARK  7 active torsions:
REMARK  status: ('A' for Active; 'I' for Inactive)
REMARK    1  A    between atoms: C_1  and  C_2
REMARK    2  A    between atoms: C_5  and  C_6
REMARK    3  A    between atoms: C_7  and  C_8
REMARK    4  A    between atoms: C_8  and  C_9
REMARK    5  A    between atoms: C_9  and  O_11
REMARK    6  A    between atoms: C_12  and  C_13
REMARK    7  A    between atoms: C_20  and  S_21
REMARK                            x       y       z     vdW  Elec       q    Type
REMARK                         _______ _______ _______ _____ _____    ______ ____
ROOT
ATOM      1  C   UNL     1       3.352   6.719  18.015  0.00  0.00    +0.000 C 
ATOM      2  C   UNL     1       2.949   5.471  17.682  0.00  0.00    +0.000 C 
ATOM      3  C   UNL     1       3.961   4.451  17.192  0.00  0.00    +0.000 C 
ATOM      4  N   UNL     1       5.256   5.067  17.018  0.00  0.00    +0.000 N 
ATOM      5  C   UNL     1       5.502   6.336  17.418  0.00  0.00    +0.000 C 
ATOM      6  N   UNL     1       4.640   7.165  17.905  0.00  0.00    +0.000 NA
ATOM      7  H   UNL     1       6.022   4.463  16.752  0.00  0.00    +0.000 HD
ENDROOT
BRANCH   1  12
ATOM      8  C   UNL     1      -0.284  10.620  20.261  0.00  0.00    +0.000 C 
ATOM      9  C   UNL     1       0.649   9.604  19.671  0.00  0.00    +0.000 A 
ATOM     10  C   UNL     1       0.934   9.603  18.301  0.00  0.00    +0.000 A 
ATOM     11  C   UNL     1       1.796   8.647  17.762  0.00  0.00    +0.000 A 
ATOM     12  C   UNL     1       2.391   7.682  18.586  0.00  0.00    +0.000 A 
ATOM     13  C   UNL     1       2.088   7.669  19.951  0.00  0.00    +0.000 A 
ATOM     14  C   UNL     1       1.226   8.624  20.489  0.00  0.00    +0.000 A 
ENDBRANCH   1  12
BRANCH   3  15
ATOM     15  C   UNL     1       4.096   3.290  18.159  0.00  0.00    +0.000 A 
ATOM     16  C   UNL     1       3.656   1.995  17.843  0.00  0.00    +0.000 A 
ATOM     17  C   UNL     1       3.911   0.940  18.713  0.00  0.00    +0.000 A 
ATOM     18  C   UNL     1       4.590   1.214  19.888  0.00  0.00    +0.000 A 
ATOM     19  N   UNL     1       5.002   2.448  20.245  0.00  0.00    +0.000 NA
ATOM     20  C   UNL     1       4.744   3.456  19.380  0.00  0.00    +0.000 A 
ENDBRANCH   3  15
BRANCH   5  21
ATOM     21  S   UNL     1       7.154   6.892  17.267  0.00  0.00    +0.000 S 
ATOM     22  H   UNL     1       7.066   7.399  16.036  0.00  0.00    +0.000 HD
ENDBRANCH   5  21
BRANCH   2  23
ATOM     23  C   UNL     1       1.523   4.972  17.848  0.00  0.00    +0.000 C 
BRANCH  23  24
ATOM     24  C   UNL     1       1.323   4.201  19.137  0.00  0.00    +0.000 C 
ATOM     25  O   UNL     1       1.638   4.631  20.240  0.00  0.00    +0.000 OA
BRANCH  24  26
ATOM     26  O   UNL     1       0.724   2.999  18.971  0.00  0.00    +0.000 OA
ATOM     27  H   UNL     1      -0.132   2.901  19.431  0.00  0.00    +0.000 HD
ENDBRANCH  24  26
ENDBRANCH  23  24
ENDBRANCH   2  23
TORSDOF 6
ENDMDL
MODEL 7
REMARK VINA RESULT:      -7.1      1.069      1.215
REMARK  Name = 
REMARK  7 active torsions:
REMARK  status: ('A' for Active; 'I' for Inactive)
REMARK    1  A    between atoms: C_1  and  C_2
REMARK    2  A    between atoms: C_5  and  C_6
REMARK    3  A    between atoms: C_7  and  C_8
REMARK    4  A    between atoms: C_8  and  C_9
REMARK    5  A    between atoms: C_9  and  O_11
REMARK    6  A    between atoms: C_12  and  C_13
REMARK    7  A    between atoms: C_20  and  S_21
REMARK                            x       y       z     vdW  Elec       q    Type
REMARK                         _______ _______ _______ _____ _____    ______ ____
ROOT
ATOM      1  C   UNL     1       3.242   5.606  18.626  0.00  0.00    +0.000 C 
ATOM      2  C   UNL     1       4.577   5.558  18.415  0.00  0.00    +0.000 C 
ATOM      3  C   UNL     1       5.246   4.236  18.082  0.00  0.00    +0.000 C 
ATOM      4  N   UNL     1       4.301   3.149  18.192  0.00  0.00    +0.000 N 
ATOM      5  C   UNL     1       2.982   3.369  18.397  0.00  0.00    +0.000 C 
ATOM      6  N   UNL     1       2.420   4.514  18.602  0.00  0.00    +0.000 NA
ATOM      7  H   UNL     1       4.625   2.228  17.932  0.00  0.00    +0.000 HD
ENDROOT
BRANCH   1  12
ATOM      8  C   UNL     1       0.455  10.602  19.503  0.00  0.00    +0.000 C 
ATOM      9  C   UNL     1       1.187   9.310  19.284  0.00  0.00    +0.000 A 
ATOM     10  C   UNL     1       1.461   8.450  20.354  0.00  0.00    +0.000 A 
ATOM     11  C   UNL     1       2.151   7.257  20.139  0.00  0.00    +0.000 A 
ATOM     12  C   UNL     1       2.571   6.902  18.849  0.00  0.00    +0.000 A 
ATOM     13  C   UNL     1       2.319   7.771  17.784  0.00  0.00    +0.000 A 
ATOM     14  C   UNL     1       1.630   8.965  18.000  0.00  0.00    +0.000 A 
ENDBRANCH   1  12
BRANCH   3  15
ATOM     15  C   UNL     1       5.828   4.242  16.682  0.00  0.00    +0.000 A 
ATOM     16  C   UNL     1       5.030   4.085  15.538  0.00  0.00    +0.000 A 
ATOM     17  C   UNL     1       5.592   4.219  14.272  0.00  0.00    +0.000 A 
ATOM     18  C   UNL     1       6.946   4.492  14.185  0.00  0.00    +0.000 A 
ATOM     19  N   UNL     1       7.755   4.619  15.258  0.00  0.00    +0.000 NA
ATOM     20  C   UNL     1       7.183   4.487  16.477  0.00  0.00    +0.000 A 
ENDBRANCH   3  15
BRANCH   5  21
ATOM     21  S   UNL     1       1.945   1.959  18.367  0.00  0.00    +0.000 S 
ATOM     22  H   UNL     1       2.899   1.032  18.265  0.00  0.00    +0.000 HD
ENDBRANCH   5  21
BRANCH   2  23
ATOM     23  C   UNL     1       5.475   6.784  18.402  0.00  0.00    +0.000 C 
BRANCH  23  24
ATOM     24  C   UNL     1       5.833   7.227  16.997  0.00  0.00    +0.000 C 
ATOM     25  O   UNL     1       5.025   7.292  16.080  0.00  0.00    +0.000 OA
BRANCH  24  26
ATOM     26  O   UNL     1       7.129   7.588  16.849  0.00  0.00    +0.000 OA
ATOM     27  H   UNL     1       7.770   6.856  16.943  0.00  0.00    +0.000 HD
ENDBRANCH  24  26
ENDBRANCH  23  24
ENDBRANCH   2  23
TORSDOF 6
ENDMDL
MODEL 8
REMARK VINA RESULT:      -7.0      5.688      9.624
REMARK  Name = 
REMARK  7 active torsions:
REMARK  status: ('A' for Active; 'I' for Inactive)
REMARK    1  A    between atoms: C_1  and  C_2
REMARK    2  A    between atoms: C_5  and  C_6
REMARK    3  A    between atoms: C_7  and  C_8
REMARK    4  A    between atoms: C_8  and  C_9
REMARK    5  A    between atoms: C_9  and  O_11
REMARK    6  A    between atoms: C_12  and  C_13
REMARK    7  A    between atoms: C_20  and  S_21
REMARK                            x       y       z     vdW  Elec       q    Type
REMARK                         _______ _______ _______ _____ _____    ______ ____
ROOT
ATOM      1  C   UNL     1      -0.060  10.823  18.881  0.00  0.00    +0.000 C 
ATOM      2  C   UNL     1       0.413  12.061  19.148  0.00  0.00    +0.000 C 
ATOM      3  C   UNL     1      -0.525  13.255  19.124  0.00  0.00    +0.000 C 
ATOM      4  N   UNL     1      -1.832  12.862  18.651  0.00  0.00    +0.000 N 
ATOM      5  C   UNL     1      -2.153  11.564  18.440  0.00  0.00    +0.000 C 
ATOM      6  N   UNL     1      -1.356  10.552  18.541  0.00  0.00    +0.000 NA
ATOM      7  H   UNL     1      -2.555  13.568  18.653  0.00  0.00    +0.000 HD
ENDROOT
BRANCH   1  12
ATOM      8  C   UNL     1       3.276   6.111  19.286  0.00  0.00    +0.000 C 
ATOM      9  C   UNL     1       2.422   7.340  19.177  0.00  0.00    +0.000 A 
ATOM     10  C   UNL     1       2.282   8.011  17.956  0.00  0.00    +0.000 A 
ATOM     11  C   UNL     1       1.493   9.158  17.870  0.00  0.00    +0.000 A 
ATOM     12  C   UNL     1       0.824   9.648  19.001  0.00  0.00    +0.000 A 
ATOM     13  C   UNL     1       0.982   8.991  20.225  0.00  0.00    +0.000 A 
ATOM     14  C   UNL     1       1.773   7.846  20.311  0.00  0.00    +0.000 A 
ENDBRANCH   1  12
BRANCH   3  15
ATOM     15  C   UNL     1      -0.668  13.879  20.499  0.00  0.00    +0.000 A 
ATOM     16  C   UNL     1      -1.063  13.137  21.622  0.00  0.00    +0.000 A 
ATOM     17  C   UNL     1      -1.062  13.726  22.883  0.00  0.00    +0.000 A 
ATOM     18  C   UNL     1      -0.680  15.052  22.983  0.00  0.00    +0.000 A 
ATOM     19  N   UNL     1      -0.325  15.811  21.925  0.00  0.00    +0.000 NA
ATOM     20  C   UNL     1      -0.331  15.214  20.711  0.00  0.00    +0.000 A 
ENDBRANCH   3  15
BRANCH   5  21
ATOM     21  S   UNL     1      -3.815  11.237  18.002  0.00  0.00    +0.000 S 
ATOM     22  H   UNL     1      -3.607  10.897  16.729  0.00  0.00    +0.000 HD
ENDBRANCH   5  21
BRANCH   2  23
ATOM     23  C   UNL     1       1.846  12.346  19.567  0.00  0.00    +0.000 C 
BRANCH  23  24
ATOM     24  C   UNL     1       2.620  13.108  18.509  0.00  0.00    +0.000 C 
ATOM     25  O   UNL     1       3.172  14.182  18.716  0.00  0.00    +0.000 OA
BRANCH  24  26
ATOM     26  O   UNL     1       2.685  12.477  17.314  0.00  0.00    +0.000 OA
ATOM     27  H   UNL     1       3.572  12.145  17.074  0.00  0.00    +0.000 HD
ENDBRANCH  24  26
ENDBRANCH  23  24
ENDBRANCH   2  23
TORSDOF 6
ENDMDL
MODEL 9
REMARK VINA RESULT:      -7.0      5.802      8.769
REMARK  Name = 
REMARK  7 active torsions:
REMARK  status: ('A' for Active; 'I' for Inactive)
REMARK    1  A    between atoms: C_1  and  C_2
REMARK    2  A    between atoms: C_5  and  C_6
REMARK    3  A    between atoms: C_7  and  C_8
REMARK    4  A    between atoms: C_8  and  C_9
REMARK    5  A    between atoms: C_9  and  O_11
REMARK    6  A    between atoms: C_12  and  C_13
REMARK    7  A    between atoms: C_20  and  S_21
REMARK                            x       y       z     vdW  Elec       q    Type
REMARK                         _______ _______ _______ _____ _____    ______ ____
ROOT
ATOM      1  C   UNL     1      -0.595  12.274  20.326  0.00  0.00    +0.000 C 
ATOM      2  C   UNL     1      -0.510  11.396  19.300  0.00  0.00    +0.000 C 
ATOM      3  C   UNL     1       0.823  11.157  18.612  0.00  0.00    +0.000 C 
ATOM      4  N   UNL     1       1.821  12.074  19.112  0.00  0.00    +0.000 N 
ATOM      5  C   UNL     1       1.579  12.888  20.166  0.00  0.00    +0.000 C 
ATOM      6  N   UNL     1       0.454  13.020  20.787  0.00  0.00    +0.000 NA
ATOM      7  H   UNL     1       2.764  11.962  18.767  0.00  0.00    +0.000 HD
ENDROOT
BRANCH   1  12
ATOM      8  C   UNL     1      -5.527  13.081  23.243  0.00  0.00    +0.000 C 
ATOM      9  C   UNL     1      -4.255  12.864  22.478  0.00  0.00    +0.000 A 
ATOM     10  C   UNL     1      -4.154  13.236  21.132  0.00  0.00    +0.000 A 
ATOM     11  C   UNL     1      -2.968  13.020  20.429  0.00  0.00    +0.000 A 
ATOM     12  C   UNL     1      -1.863  12.435  21.063  0.00  0.00    +0.000 A 
ATOM     13  C   UNL     1      -1.970  12.043  22.400  0.00  0.00    +0.000 A 
ATOM     14  C   UNL     1      -3.156  12.258  23.102  0.00  0.00    +0.000 A 
ENDBRANCH   1  12
BRANCH   3  15
ATOM     15  C   UNL     1       1.312   9.737  18.823  0.00  0.00    +0.000 A 
ATOM     16  C   UNL     1       1.925   8.995  17.801  0.00  0.00    +0.000 A 
ATOM     17  C   UNL     1       2.465   7.743  18.076  0.00  0.00    +0.000 A 
ATOM     18  C   UNL     1       2.363   7.258  19.369  0.00  0.00    +0.000 A 
ATOM     19  N   UNL     1       1.754   7.923  20.372  0.00  0.00    +0.000 NA
ATOM     20  C   UNL     1       1.240   9.140  20.079  0.00  0.00    +0.000 A 
ENDBRANCH   3  15
BRANCH   5  21
ATOM     21  S   UNL     1       2.931  13.838  20.740  0.00  0.00    +0.000 S 
ATOM     22  H   UNL     1       2.235  14.811  21.331  0.00  0.00    +0.000 HD
ENDBRANCH   5  21
BRANCH   2  23
ATOM     23  C   UNL     1      -1.671  10.540  18.823  0.00  0.00    +0.000 C 
BRANCH  23  24
ATOM     24  C   UNL     1      -1.982  10.749  17.354  0.00  0.00    +0.000 C 
ATOM     25  O   UNL     1      -2.225   9.835  16.576  0.00  0.00    +0.000 OA
BRANCH  24  26
ATOM     26  O   UNL     1      -2.006  12.048  16.977  0.00  0.00    +0.000 OA
ATOM     27  H   UNL     1      -1.512  12.246  16.158  0.00  0.00    +0.000 HD
ENDBRANCH  24  26
ENDBRANCH  23  24
ENDBRANCH   2  23
TORSDOF 6
ENDMDL
