MODEL 1
REMARK VINA RESULT:      -7.0      0.000      0.000
REMARK  Name = 
REMARK  11 active torsions:
REMARK  status: ('A' for Active; 'I' for Inactive)
REMARK    1  A    between atoms: C_2  and  O_3
REMARK    2  A    between atoms: C_2  and  C_4
REMARK    3  A    between atoms: C_4  and  C_5
REMARK    4  A    between atoms: C_5  and  C_6
REMARK    5  A    between atoms: C_6  and  C_7
REMARK    6  A    between atoms: C_7  and  C_9
REMARK    7  A    between atoms: C_12  and  O_13
REMARK    8  A    between atoms: O_13  and  C_14
REMARK    9  A    between atoms: C_14  and  C_15
REMARK   10  A    between atoms: C_15  and  C_16
REMARK   11  A    between atoms: C_16  and  C_17
REMARK                            x       y       z     vdW  Elec       q    Type
REMARK                         _______ _______ _______ _____ _____    ______ ____
ROOT
ATOM      1  C   UNL     1       5.781   5.371  17.214  0.00  0.00    +0.000 A 
ATOM      2  C   UNL     1       4.741   6.172  16.714  0.00  0.00    +0.000 A 
ATOM      3  C   UNL     1       3.636   6.477  17.501  0.00  0.00    +0.000 A 
ATOM      4  C   UNL     1       3.536   5.998  18.822  0.00  0.00    +0.000 A 
ATOM      5  C   UNL     1       4.573   5.209  19.334  0.00  0.00    +0.000 A 
ATOM      6  C   UNL     1       5.683   4.892  18.538  0.00  0.00    +0.000 A 
ENDROOT
BRANCH   1   7
ATOM      7  C   UNL     1       6.943   4.995  16.351  0.00  0.00    +0.000 C 
ATOM      8  O   UNL     1       7.912   4.450  16.858  0.00  0.00    +0.000 OA
BRANCH   7   9
ATOM      9  C   UNL     1       6.949   5.217  14.855  0.00  0.00    +0.000 C 
BRANCH   9  10
ATOM     10  C   UNL     1       6.643   3.909  14.113  0.00  0.00    +0.000 C 
BRANCH  10  11
ATOM     11  C   UNL     1       5.242   3.934  13.491  0.00  0.00    +0.000 C 
BRANCH  11  13
ATOM     12  O   UNL     1       6.208   2.615  11.783  0.00  0.00    +0.000 OA
ATOM     13  C   UNL     1       5.239   3.267  12.140  0.00  0.00    +0.000 C 
BRANCH  13  14
ATOM     14  O   UNL     1       4.185   3.393  11.307  0.00  0.00    +0.000 OA
ATOM     15  H   UNL     1       4.072   4.168  10.738  0.00  0.00    +0.000 HD
ENDBRANCH  13  14
ENDBRANCH  11  13
ENDBRANCH  10  11
ENDBRANCH   9  10
ENDBRANCH   7   9
ENDBRANCH   1   7
BRANCH   4  16
ATOM     16  O   UNL     1       2.460   6.280  19.606  0.00  0.00    +0.000 OA
BRANCH  16  17
ATOM     17  C   UNL     1       2.146   5.566  20.748  0.00  0.00    +0.000 C 
BRANCH  17  18
ATOM     18  C   UNL     1       0.972   4.621  20.522  0.00  0.00    +0.000 C 
BRANCH  18  19
ATOM     19  C   UNL     1       1.420   3.188  20.837  0.00  0.00    +0.000 C 
BRANCH  19  20
ATOM     20  C   UNL     1       2.106   2.562  19.668  0.00  0.00    +0.000 A 
ATOM     21  C   UNL     1       1.574   2.398  18.407  0.00  0.00    +0.000 A 
ATOM     22  N   UNL     1       2.494   1.786  17.652  0.00  0.00    +0.000 N 
ATOM     23  C   UNL     1       3.558   1.588  18.454  0.00  0.00    +0.000 A 
ATOM     24  N   UNL     1       3.352   2.052  19.701  0.00  0.00    +0.000 NA
ATOM     25  H   UNL     1       2.406   1.512  16.646  0.00  0.00    +0.000 HD
ENDBRANCH  19  20
ENDBRANCH  18  19
ENDBRANCH  17  18
ENDBRANCH  16  17
ENDBRANCH   4  16
TORSDOF 11
ENDMDL
MODEL 2
REMARK VINA RESULT:      -6.7      1.445      1.982
REMARK  Name = 
REMARK  11 active torsions:
REMARK  status: ('A' for Active; 'I' for Inactive)
REMARK    1  A    between atoms: C_2  and  O_3
REMARK    2  A    between atoms: C_2  and  C_4
REMARK    3  A    between atoms: C_4  and  C_5
REMARK    4  A    between atoms: C_5  and  C_6
REMARK    5  A    between atoms: C_6  and  C_7
REMARK    6  A    between atoms: C_7  and  C_9
REMARK    7  A    between atoms: C_12  and  O_13
REMARK    8  A    between atoms: O_13  and  C_14
REMARK    9  A    between atoms: C_14  and  C_15
REMARK   10  A    between atoms: C_15  and  C_16
REMARK   11  A    between atoms: C_16  and  C_17
REMARK                            x       y       z     vdW  Elec       q    Type
REMARK                         _______ _______ _______ _____ _____    ______ ____
ROOT
ATOM      1  C   UNL     1       4.675   6.255  17.586  0.00  0.00    +0.000 A 
ATOM      2  C   UNL     1       3.390   6.821  17.586  0.00  0.00    +0.000 A 
ATOM      3  C   UNL     1       2.498   6.560  18.620  0.00  0.00    +0.000 A 
ATOM      4  C   UNL     1       2.864   5.728  19.698  0.00  0.00    +0.000 A 
ATOM      5  C   UNL     1       4.148   5.170  19.712  0.00  0.00    +0.000 A 
ATOM      6  C   UNL     1       5.045   5.425  18.665  0.00  0.00    +0.000 A 
ENDROOT
BRANCH   1   7
ATOM      7  C   UNL     1       5.616   6.490  16.448  0.00  0.00    +0.000 C 
ATOM      8  O   UNL     1       5.246   7.157  15.493  0.00  0.00    +0.000 OA
BRANCH   7   9
ATOM      9  C   UNL     1       7.039   5.976  16.451  0.00  0.00    +0.000 C 
BRANCH   9  10
ATOM     10  C   UNL     1       7.112   4.584  15.810  0.00  0.00    +0.000 C 
BRANCH  10  11
ATOM     11  C   UNL     1       7.247   4.677  14.285  0.00  0.00    +0.000 C 
BRANCH  11  13
ATOM     12  O   UNL     1       4.984   4.110  13.900  0.00  0.00    +0.000 OA
ATOM     13  C   UNL     1       6.149   3.907  13.598  0.00  0.00    +0.000 C 
BRANCH  13  14
ATOM     14  O   UNL     1       6.436   2.978  12.662  0.00  0.00    +0.000 OA
ATOM     15  H   UNL     1       7.346   2.787  12.392  0.00  0.00    +0.000 HD
ENDBRANCH  13  14
ENDBRANCH  11  13
ENDBRANCH  10  11
ENDBRANCH   9  10
ENDBRANCH   7   9
ENDBRANCH   1   7
BRANCH   4  16
ATOM     16  O   UNL     1       2.003   5.454  20.716  0.00  0.00    +0.000 OA
BRANCH  16  17
ATOM     17  C   UNL     1       0.878   4.665  20.566  0.00  0.00    +0.000 C 
BRANCH  17  18
ATOM     18  C   UNL     1       1.201   3.184  20.710  0.00  0.00    +0.000 C 
BRANCH  18  19
ATOM     19  C   UNL     1       0.877   2.474  19.390  0.00  0.00    +0.000 C 
BRANCH  19  20
ATOM     20  C   UNL     1       2.053   2.469  18.471  0.00  0.00    +0.000 A 
ATOM     21  C   UNL     1       3.232   1.780  18.664  0.00  0.00    +0.000 A 
ATOM     22  N   UNL     1       4.035   2.045  17.627  0.00  0.00    +0.000 N 
ATOM     23  C   UNL     1       3.344   2.882  16.828  0.00  0.00    +0.000 A 
ATOM     24  N   UNL     1       2.121   3.164  17.319  0.00  0.00    +0.000 NA
ATOM     25  H   UNL     1       5.004   1.683  17.469  0.00  0.00    +0.000 HD
ENDBRANCH  19  20
ENDBRANCH  18  19
ENDBRANCH  17  18
ENDBRANCH  16  17
ENDBRANCH   4  16
TORSDOF 11
ENDMDL
MODEL 3
REMARK VINA RESULT:      -6.7      3.346      5.032
REMARK  Name = 
REMARK  11 active torsions:
REMARK  status: ('A' for Active; 'I' for Inactive)
REMARK    1  A    between atoms: C_2  and  O_3
REMARK    2  A    between atoms: C_2  and  C_4
REMARK    3  A    between atoms: C_4  and  C_5
REMARK    4  A    between atoms: C_5  and  C_6
REMARK    5  A    between atoms: C_6  and  C_7
REMARK    6  A    between atoms: C_7  and  C_9
REMARK    7  A    between atoms: C_12  and  O_13
REMARK    8  A    between atoms: O_13  and  C_14
REMARK    9  A    between atoms: C_14  and  C_15
REMARK   10  A    between atoms: C_15  and  C_16
REMARK   11  A    between atoms: C_16  and  C_17
REMARK                            x       y       z     vdW  Elec       q    Type
REMARK                         _______ _______ _______ _____ _____    ______ ____
ROOT
ATOM      1  C   UNL     1       5.918   6.468  17.850  0.00  0.00    +0.000 A 
ATOM      2  C   UNL     1       5.707   5.680  18.993  0.00  0.00    +0.000 A 
ATOM      3  C   UNL     1       4.420   5.379  19.423  0.00  0.00    +0.000 A 
ATOM      4  C   UNL     1       3.294   5.850  18.718  0.00  0.00    +0.000 A 
ATOM      5  C   UNL     1       3.494   6.626  17.569  0.00  0.00    +0.000 A 
ATOM      6  C   UNL     1       4.792   6.938  17.141  0.00  0.00    +0.000 A 
ENDROOT
BRANCH   1   7
ATOM      7  C   UNL     1       7.300   6.839  17.417  0.00  0.00    +0.000 C 
ATOM      8  O   UNL     1       7.685   6.516  16.304  0.00  0.00    +0.000 OA
BRANCH   7   9
ATOM      9  C   UNL     1       8.234   7.649  18.289  0.00  0.00    +0.000 C 
BRANCH   9  10
ATOM     10  C   UNL     1       8.171   9.135  17.912  0.00  0.00    +0.000 C 
BRANCH  10  11
ATOM     11  C   UNL     1       9.074   9.981  18.819  0.00  0.00    +0.000 C 
BRANCH  11  13
ATOM     12  O   UNL     1      10.681  11.516  18.013  0.00  0.00    +0.000 OA
ATOM     13  C   UNL     1       9.495  11.251  18.128  0.00  0.00    +0.000 C 
BRANCH  13  14
ATOM     14  O   UNL     1       8.576  12.116  17.648  0.00  0.00    +0.000 OA
ATOM     15  H   UNL     1       8.699  12.579  16.807  0.00  0.00    +0.000 HD
ENDBRANCH  13  14
ENDBRANCH  11  13
ENDBRANCH  10  11
ENDBRANCH   9  10
ENDBRANCH   7   9
ENDBRANCH   1   7
BRANCH   4  16
ATOM     16  O   UNL     1       2.026   5.573  19.126  0.00  0.00    +0.000 OA
BRANCH  16  17
ATOM     17  C   UNL     1       1.714   5.172  20.412  0.00  0.00    +0.000 C 
BRANCH  17  18
ATOM     18  C   UNL     1       0.752   3.991  20.421  0.00  0.00    +0.000 C 
BRANCH  18  19
ATOM     19  C   UNL     1       1.441   2.793  21.086  0.00  0.00    +0.000 C 
BRANCH  19  20
ATOM     20  C   UNL     1       2.632   2.347  20.306  0.00  0.00    +0.000 A 
ATOM     21  C   UNL     1       2.641   1.978  18.977  0.00  0.00    +0.000 A 
ATOM     22  N   UNL     1       3.894   1.632  18.657  0.00  0.00    +0.000 N 
ATOM     23  C   UNL     1       4.620   1.792  19.780  0.00  0.00    +0.000 A 
ATOM     24  N   UNL     1       3.874   2.230  20.814  0.00  0.00    +0.000 NA
ATOM     25  H   UNL     1       4.240   1.301  17.727  0.00  0.00    +0.000 HD
ENDBRANCH  19  20
ENDBRANCH  18  19
ENDBRANCH  17  18
ENDBRANCH  16  17
ENDBRANCH   4  16
TORSDOF 11
ENDMDL
MODEL 4
REMARK VINA RESULT:      -6.7      1.201      1.409
REMARK  Name = 
REMARK  11 active torsions:
REMARK  status: ('A' for Active; 'I' for Inactive)
REMARK    1  A    between atoms: C_2  and  O_3
REMARK    2  A    between atoms: C_2  and  C_4
REMARK    3  A    between atoms: C_4  and  C_5
REMARK    4  A    between atoms: C_5  and  C_6
REMARK    5  A    between atoms: C_6  and  C_7
REMARK    6  A    between atoms: C_7  and  C_9
REMARK    7  A    between atoms: C_12  and  O_13
REMARK    8  A    between atoms: O_13  and  C_14
REMARK    9  A    between atoms: C_14  and  C_15
REMARK   10  A    between atoms: C_15  and  C_16
REMARK   11  A    between atoms: C_16  and  C_17
REMARK                            x       y       z     vdW  Elec       q    Type
REMARK                         _______ _______ _______ _____ _____    ______ ____
ROOT
ATOM      1  C   UNL     1       4.967   5.873  17.305  0.00  0.00    +0.000 A 
ATOM      2  C   UNL     1       3.731   6.520  17.466  0.00  0.00    +0.000 A 
ATOM      3  C   UNL     1       2.980   6.341  18.621  0.00  0.00    +0.000 A 
ATOM      4  C   UNL     1       3.442   5.512  19.663  0.00  0.00    +0.000 A 
ATOM      5  C   UNL     1       4.679   4.873  19.517  0.00  0.00    +0.000 A 
ATOM      6  C   UNL     1       5.434   5.045  18.348  0.00  0.00    +0.000 A 
ENDROOT
BRANCH   1   7
ATOM      7  C   UNL     1       5.752   6.020  16.040  0.00  0.00    +0.000 C 
ATOM      8  O   UNL     1       5.431   6.881  15.235  0.00  0.00    +0.000 OA
BRANCH   7   9
ATOM      9  C   UNL     1       6.968   5.174  15.736  0.00  0.00    +0.000 C 
BRANCH   9  10
ATOM     10  C   UNL     1       7.080   4.910  14.228  0.00  0.00    +0.000 C 
BRANCH  10  11
ATOM     11  C   UNL     1       6.044   3.880  13.763  0.00  0.00    +0.000 C 
BRANCH  11  13
ATOM     12  O   UNL     1       7.111   4.018  11.658  0.00  0.00    +0.000 OA
ATOM     13  C   UNL     1       6.370   3.373  12.382  0.00  0.00    +0.000 C 
BRANCH  13  14
ATOM     14  O   UNL     1       5.838   2.221  11.923  0.00  0.00    +0.000 OA
ATOM     15  H   UNL     1       4.919   2.165  11.622  0.00  0.00    +0.000 HD
ENDBRANCH  13  14
ENDBRANCH  11  13
ENDBRANCH  10  11
ENDBRANCH   9  10
ENDBRANCH   7   9
ENDBRANCH   1   7
BRANCH   4  16
ATOM     16  O   UNL     1       2.718   5.318  20.799  0.00  0.00    +0.000 OA
BRANCH  16  17
ATOM     17  C   UNL     1       1.378   4.976  20.795  0.00  0.00    +0.000 C 
BRANCH  17  18
ATOM     18  C   UNL     1       1.174   3.480  20.999  0.00  0.00    +0.000 C 
BRANCH  18  19
ATOM     19  C   UNL     1       0.706   2.858  19.678  0.00  0.00    +0.000 C 
BRANCH  19  20
ATOM     20  C   UNL     1       1.860   2.526  18.792  0.00  0.00    +0.000 A 
ATOM     21  C   UNL     1       2.094   3.043  17.536  0.00  0.00    +0.000 A 
ATOM     22  N   UNL     1       3.218   2.488  17.068  0.00  0.00    +0.000 N 
ATOM     23  C   UNL     1       3.647   1.651  18.033  0.00  0.00    +0.000 A 
ATOM     24  N   UNL     1       2.834   1.650  19.107  0.00  0.00    +0.000 NA
ATOM     25  H   UNL     1       3.671   2.662  16.141  0.00  0.00    +0.000 HD
ENDBRANCH  19  20
ENDBRANCH  18  19
ENDBRANCH  17  18
ENDBRANCH  16  17
ENDBRANCH   4  16
TORSDOF 11
ENDMDL
MODEL 5
REMARK VINA RESULT:      -6.6      2.757      4.553
REMARK  Name = 
REMARK  11 active torsions:
REMARK  status: ('A' for Active; 'I' for Inactive)
REMARK    1  A    between atoms: C_2  and  O_3
REMARK    2  A    between atoms: C_2  and  C_4
REMARK    3  A    between atoms: C_4  and  C_5
REMARK    4  A    between atoms: C_5  and  C_6
REMARK    5  A    between atoms: C_6  and  C_7
REMARK    6  A    between atoms: C_7  and  C_9
REMARK    7  A    between atoms: C_12  and  O_13
REMARK    8  A    between atoms: O_13  and  C_14
REMARK    9  A    between atoms: C_14  and  C_15
REMARK   10  A    between atoms: C_15  and  C_16
REMARK   11  A    between atoms: C_16  and  C_17
REMARK                            x       y       z     vdW  Elec       q    Type
REMARK                         _______ _______ _______ _____ _____    ______ ____
ROOT
ATOM      1  C   UNL     1       5.006   6.328  17.780  0.00  0.00    +0.000 A 
ATOM      2  C   UNL     1       3.741   6.934  17.700  0.00  0.00    +0.000 A 
ATOM      3  C   UNL     1       2.761   6.662  18.647  0.00  0.00    +0.000 A 
ATOM      4  C   UNL     1       3.013   5.778  19.715  0.00  0.00    +0.000 A 
ATOM      5  C   UNL     1       4.275   5.179  19.810  0.00  0.00    +0.000 A 
ATOM      6  C   UNL     1       5.262   5.446  18.850  0.00  0.00    +0.000 A 
ENDROOT
BRANCH   1   7
ATOM      7  C   UNL     1       6.043   6.577  16.732  0.00  0.00    +0.000 C 
ATOM      8  O   UNL     1       5.690   6.869  15.599  0.00  0.00    +0.000 OA
BRANCH   7   9
ATOM      9  C   UNL     1       7.525   6.532  17.030  0.00  0.00    +0.000 C 
BRANCH   9  10
ATOM     10  C   UNL     1       7.882   7.519  18.149  0.00  0.00    +0.000 C 
BRANCH  10  11
ATOM     11  C   UNL     1       7.803   8.971  17.660  0.00  0.00    +0.000 C 
BRANCH  11  13
ATOM     12  O   UNL     1       9.091   9.600  19.540  0.00  0.00    +0.000 OA
ATOM     13  C   UNL     1       8.807   9.836  18.377  0.00  0.00    +0.000 C 
BRANCH  13  14
ATOM     14  O   UNL     1       9.387  10.885  17.755  0.00  0.00    +0.000 OA
ATOM     15  H   UNL     1       9.199  11.800  18.012  0.00  0.00    +0.000 HD
ENDBRANCH  13  14
ENDBRANCH  11  13
ENDBRANCH  10  11
ENDBRANCH   9  10
ENDBRANCH   7   9
ENDBRANCH   1   7
BRANCH   4  16
ATOM     16  O   UNL     1       2.065   5.493  20.649  0.00  0.00    +0.000 OA
BRANCH  16  17
ATOM     17  C   UNL     1       1.715   4.204  21.005  0.00  0.00    +0.000 C 
BRANCH  17  18
ATOM     18  C   UNL     1       0.629   3.639  20.099  0.00  0.00    +0.000 C 
BRANCH  18  19
ATOM     19  C   UNL     1       1.094   2.286  19.548  0.00  0.00    +0.000 C 
BRANCH  19  20
ATOM     20  C   UNL     1       2.189   2.452  18.547  0.00  0.00    +0.000 A 
ATOM     21  C   UNL     1       3.432   1.858  18.597  0.00  0.00    +0.000 A 
ATOM     22  N   UNL     1       4.124   2.268  17.528  0.00  0.00    +0.000 N 
ATOM     23  C   UNL     1       3.305   3.097  16.852  0.00  0.00    +0.000 A 
ATOM     24  N   UNL     1       2.107   3.233  17.453  0.00  0.00    +0.000 NA
ATOM     25  H   UNL     1       5.104   2.005  17.270  0.00  0.00    +0.000 HD
ENDBRANCH  19  20
ENDBRANCH  18  19
ENDBRANCH  17  18
ENDBRANCH  16  17
ENDBRANCH   4  16
TORSDOF 11
ENDMDL
MODEL 6
REMARK VINA RESULT:      -6.5      0.948      1.386
REMARK  Name = 
REMARK  11 active torsions:
REMARK  status: ('A' for Active; 'I' for Inactive)
REMARK    1  A    between atoms: C_2  and  O_3
REMARK    2  A    between atoms: C_2  and  C_4
REMARK    3  A    between atoms: C_4  and  C_5
REMARK    4  A    between atoms: C_5  and  C_6
REMARK    5  A    between atoms: C_6  and  C_7
REMARK    6  A    between atoms: C_7  and  C_9
REMARK    7  A    between atoms: C_12  and  O_13
REMARK    8  A    between atoms: O_13  and  C_14
REMARK    9  A    between atoms: C_14  and  C_15
REMARK   10  A    between atoms: C_15  and  C_16
REMARK   11  A    between atoms: C_16  and  C_17
REMARK                            x       y       z     vdW  Elec       q    Type
REMARK                         _______ _______ _______ _____ _____    ______ ____
ROOT
ATOM      1  C   UNL     1       5.968   5.079  16.620  0.00  0.00    +0.000 A 
ATOM      2  C   UNL     1       6.515   5.052  17.913  0.00  0.00    +0.000 A 
ATOM      3  C   UNL     1       5.719   5.296  19.027  0.00  0.00    +0.000 A 
ATOM      4  C   UNL     1       4.344   5.568  18.888  0.00  0.00    +0.000 A 
ATOM      5  C   UNL     1       3.787   5.585  17.603  0.00  0.00    +0.000 A 
ATOM      6  C   UNL     1       4.590   5.348  16.478  0.00  0.00    +0.000 A 
ENDROOT
BRANCH   1   7
ATOM      7  C   UNL     1       6.831   4.872  15.417  0.00  0.00    +0.000 C 
ATOM      8  O   UNL     1       7.702   5.689  15.158  0.00  0.00    +0.000 OA
BRANCH   7   9
ATOM      9  C   UNL     1       6.706   3.655  14.527  0.00  0.00    +0.000 C 
BRANCH   9  10
ATOM     10  C   UNL     1       6.372   4.070  13.088  0.00  0.00    +0.000 C 
BRANCH  10  11
ATOM     11  C   UNL     1       4.879   3.892  12.787  0.00  0.00    +0.000 C 
BRANCH  11  13
ATOM     12  O   UNL     1       5.418   2.026  11.439  0.00  0.00    +0.000 OA
ATOM     13  C   UNL     1       4.672   2.977  11.608  0.00  0.00    +0.000 C 
BRANCH  13  14
ATOM     14  O   UNL     1       3.681   3.205  10.720  0.00  0.00    +0.000 OA
ATOM     15  H   UNL     1       3.830   3.163   9.764  0.00  0.00    +0.000 HD
ENDBRANCH  13  14
ENDBRANCH  11  13
ENDBRANCH  10  11
ENDBRANCH   9  10
ENDBRANCH   7   9
ENDBRANCH   1   7
BRANCH   4  16
ATOM     16  O   UNL     1       3.550   5.817  19.965  0.00  0.00    +0.000 OA
BRANCH  16  17
ATOM     17  C   UNL     1       2.169   5.790  19.911  0.00  0.00    +0.000 C 
BRANCH  17  18
ATOM     18  C   UNL     1       1.589   4.670  20.765  0.00  0.00    +0.000 C 
BRANCH  18  19
ATOM     19  C   UNL     1       1.109   3.541  19.845  0.00  0.00    +0.000 C 
BRANCH  19  20
ATOM     20  C   UNL     1       2.252   2.717  19.352  0.00  0.00    +0.000 A 
ATOM     21  C   UNL     1       2.383   2.186  18.087  0.00  0.00    +0.000 A 
ATOM     22  N   UNL     1       3.534   1.504  18.047  0.00  0.00    +0.000 N 
ATOM     23  C   UNL     1       4.080   1.627  19.273  0.00  0.00    +0.000 A 
ATOM     24  N   UNL     1       3.315   2.366  20.100  0.00  0.00    +0.000 NA
ATOM     25  H   UNL     1       3.930   0.978  17.234  0.00  0.00    +0.000 HD
ENDBRANCH  19  20
ENDBRANCH  18  19
ENDBRANCH  17  18
ENDBRANCH  16  17
ENDBRANCH   4  16
TORSDOF 11
ENDMDL
MODEL 7
REMARK VINA RESULT:      -6.5      5.964      8.770
REMARK  Name = 
REMARK  11 active torsions:
REMARK  status: ('A' for Active; 'I' for Inactive)
REMARK    1  A    between atoms: C_2  and  O_3
REMARK    2  A    between atoms: C_2  and  C_4
REMARK    3  A    between atoms: C_4  and  C_5
REMARK    4  A    between atoms: C_5  and  C_6
REMARK    5  A    between atoms: C_6  and  C_7
REMARK    6  A    between atoms: C_7  and  C_9
REMARK    7  A    between atoms: C_12  and  O_13
REMARK    8  A    between atoms: O_13  and  C_14
REMARK    9  A    between atoms: C_14  and  C_15
REMARK   10  A    between atoms: C_15  and  C_16
REMARK   11  A    between atoms: C_16  and  C_17
REMARK                            x       y       z     vdW  Elec       q    Type
REMARK                         _______ _______ _______ _____ _____    ______ ____
ROOT
ATOM      1  C   UNL     1       5.621   4.941  18.220  0.00  0.00    +0.000 A 
ATOM      2  C   UNL     1       6.859   5.148  18.849  0.00  0.00    +0.000 A 
ATOM      3  C   UNL     1       7.621   6.276  18.566  0.00  0.00    +0.000 A 
ATOM      4  C   UNL     1       7.167   7.243  17.647  0.00  0.00    +0.000 A 
ATOM      5  C   UNL     1       5.927   7.052  17.024  0.00  0.00    +0.000 A 
ATOM      6  C   UNL     1       5.163   5.910  17.302  0.00  0.00    +0.000 A 
ENDROOT
BRANCH   1   7
ATOM      7  C   UNL     1       4.825   3.702  18.481  0.00  0.00    +0.000 C 
ATOM      8  O   UNL     1       4.926   3.144  19.563  0.00  0.00    +0.000 OA
BRANCH   7   9
ATOM      9  C   UNL     1       3.852   3.134  17.471  0.00  0.00    +0.000 C 
BRANCH   9  10
ATOM     10  C   UNL     1       2.435   3.079  18.059  0.00  0.00    +0.000 C 
BRANCH  10  11
ATOM     11  C   UNL     1       1.924   4.479  18.417  0.00  0.00    +0.000 C 
BRANCH  11  13
ATOM     12  O   UNL     1       0.776   4.212  20.467  0.00  0.00    +0.000 OA
ATOM     13  C   UNL     1       1.776   4.635  19.908  0.00  0.00    +0.000 C 
BRANCH  13  14
ATOM     14  O   UNL     1       2.728   5.253  20.638  0.00  0.00    +0.000 OA
ATOM     15  H   UNL     1       2.853   5.066  21.580  0.00  0.00    +0.000 HD
ENDBRANCH  13  14
ENDBRANCH  11  13
ENDBRANCH  10  11
ENDBRANCH   9  10
ENDBRANCH   7   9
ENDBRANCH   1   7
BRANCH   4  16
ATOM     16  O   UNL     1       7.901   8.350  17.351  0.00  0.00    +0.000 OA
BRANCH  16  17
ATOM     17  C   UNL     1       8.580   9.087  18.304  0.00  0.00    +0.000 C 
BRANCH  17  18
ATOM     18  C   UNL     1       8.684  10.557  17.917  0.00  0.00    +0.000 C 
BRANCH  18  19
ATOM     19  C   UNL     1       9.831  11.199  18.708  0.00  0.00    +0.000 C 
BRANCH  19  20
ATOM     20  C   UNL     1      10.446  12.331  17.955  0.00  0.00    +0.000 A 
ATOM     21  C   UNL     1       9.840  13.534  17.661  0.00  0.00    +0.000 A 
ATOM     22  N   UNL     1      10.714  14.272  16.964  0.00  0.00    +0.000 N 
ATOM     23  C   UNL     1      11.823  13.517  16.846  0.00  0.00    +0.000 A 
ATOM     24  N   UNL     1      11.691  12.317  17.443  0.00  0.00    +0.000 NA
ATOM     25  H   UNL     1      10.566  15.236  16.585  0.00  0.00    +0.000 HD
ENDBRANCH  19  20
ENDBRANCH  18  19
ENDBRANCH  17  18
ENDBRANCH  16  17
ENDBRANCH   4  16
TORSDOF 11
ENDMDL
MODEL 8
REMARK VINA RESULT:      -6.5      3.279      7.401
REMARK  Name = 
REMARK  11 active torsions:
REMARK  status: ('A' for Active; 'I' for Inactive)
REMARK    1  A    between atoms: C_2  and  O_3
REMARK    2  A    between atoms: C_2  and  C_4
REMARK    3  A    between atoms: C_4  and  C_5
REMARK    4  A    between atoms: C_5  and  C_6
REMARK    5  A    between atoms: C_6  and  C_7
REMARK    6  A    between atoms: C_7  and  C_9
REMARK    7  A    between atoms: C_12  and  O_13
REMARK    8  A    between atoms: O_13  and  C_14
REMARK    9  A    between atoms: C_14  and  C_15
REMARK   10  A    between atoms: C_15  and  C_16
REMARK   11  A    between atoms: C_16  and  C_17
REMARK                            x       y       z     vdW  Elec       q    Type
REMARK                         _______ _______ _______ _____ _____    ______ ____
ROOT
ATOM      1  C   UNL     1       2.232   8.024  18.684  0.00  0.00    +0.000 A 
ATOM      2  C   UNL     1       3.086   8.011  17.569  0.00  0.00    +0.000 A 
ATOM      3  C   UNL     1       4.035   7.008  17.410  0.00  0.00    +0.000 A 
ATOM      4  C   UNL     1       4.159   5.974  18.360  0.00  0.00    +0.000 A 
ATOM      5  C   UNL     1       3.304   5.971  19.469  0.00  0.00    +0.000 A 
ATOM      6  C   UNL     1       2.352   6.988  19.634  0.00  0.00    +0.000 A 
ENDROOT
BRANCH   1   7
ATOM      7  C   UNL     1       1.248   9.132  18.885  0.00  0.00    +0.000 C 
ATOM      8  O   UNL     1       0.587   9.523  17.935  0.00  0.00    +0.000 OA
BRANCH   7   9
ATOM      9  C   UNL     1       0.997   9.760  20.238  0.00  0.00    +0.000 C 
BRANCH   9  10
ATOM     10  C   UNL     1      -0.449   9.514  20.688  0.00  0.00    +0.000 C 
BRANCH  10  11
ATOM     11  C   UNL     1      -0.501   8.868  22.078  0.00  0.00    +0.000 C 
BRANCH  11  13
ATOM     12  O   UNL     1       0.644   9.530  24.038  0.00  0.00    +0.000 OA
ATOM     13  C   UNL     1      -0.123   9.860  23.147  0.00  0.00    +0.000 C 
BRANCH  13  14
ATOM     14  O   UNL     1      -0.636  11.109  23.147  0.00  0.00    +0.000 OA
ATOM     15  H   UNL     1      -0.203  11.840  22.683  0.00  0.00    +0.000 HD
ENDBRANCH  13  14
ENDBRANCH  11  13
ENDBRANCH  10  11
ENDBRANCH   9  10
ENDBRANCH   7   9
ENDBRANCH   1   7
BRANCH   4  16
ATOM     16  O   UNL     1       5.086   4.987  18.227  0.00  0.00    +0.000 OA
BRANCH  16  17
ATOM     17  C   UNL     1       4.791   3.645  18.375  0.00  0.00    +0.000 C 
BRANCH  17  18
ATOM     18  C   UNL     1       3.699   3.194  17.415  0.00  0.00    +0.000 C 
BRANCH  18  19
ATOM     19  C   UNL     1       2.918   2.040  18.056  0.00  0.00    +0.000 C 
BRANCH  19  20
ATOM     20  C   UNL     1       2.089   2.513  19.203  0.00  0.00    +0.000 A 
ATOM     21  C   UNL     1       0.853   3.117  19.116  0.00  0.00    +0.000 A 
ATOM     22  N   UNL     1       0.449   3.402  20.360  0.00  0.00    +0.000 N 
ATOM     23  C   UNL     1       1.432   2.973  21.176  0.00  0.00    +0.000 A 
ATOM     24  N   UNL     1       2.456   2.423  20.496  0.00  0.00    +0.000 NA
ATOM     25  H   UNL     1      -0.445   3.866  20.644  0.00  0.00    +0.000 HD
ENDBRANCH  19  20
ENDBRANCH  18  19
ENDBRANCH  17  18
ENDBRANCH  16  17
ENDBRANCH   4  16
TORSDOF 11
ENDMDL
MODEL 9
REMARK VINA RESULT:      -6.5      5.071      8.286
REMARK  Name = 
REMARK  11 active torsions:
REMARK  status: ('A' for Active; 'I' for Inactive)
REMARK    1  A    between atoms: C_2  and  O_3
REMARK    2  A    between atoms: C_2  and  C_4
REMARK    3  A    between atoms: C_4  and  C_5
REMARK    4  A    between atoms: C_5  and  C_6
REMARK    5  A    between atoms: C_6  and  C_7
REMARK    6  A    between atoms: C_7  and  C_9
REMARK    7  A    between atoms: C_12  and  O_13
REMARK    8  A    between atoms: O_13  and  C_14
REMARK    9  A    between atoms: C_14  and  C_15
REMARK   10  A    between atoms: C_15  and  C_16
REMARK   11  A    between atoms: C_16  and  C_17
REMARK                            x       y       z     vdW  Elec       q    Type
REMARK                         _______ _______ _______ _____ _____    ______ ____
ROOT
ATOM      1  C   UNL     1       3.619   4.703  17.380  0.00  0.00    +0.000 A 
ATOM      2  C   UNL     1       4.835   4.053  17.113  0.00  0.00    +0.000 A 
ATOM      3  C   UNL     1       6.005   4.781  16.927  0.00  0.00    +0.000 A 
ATOM      4  C   UNL     1       6.002   6.187  17.011  0.00  0.00    +0.000 A 
ATOM      5  C   UNL     1       4.797   6.843  17.290  0.00  0.00    +0.000 A 
ATOM      6  C   UNL     1       3.615   6.111  17.468  0.00  0.00    +0.000 A 
ENDROOT
BRANCH   1   7
ATOM      7  C   UNL     1       2.350   3.926  17.526  0.00  0.00    +0.000 C 
ATOM      8  O   UNL     1       1.282   4.484  17.329  0.00  0.00    +0.000 OA
BRANCH   7   9
ATOM      9  C   UNL     1       2.335   2.450  17.860  0.00  0.00    +0.000 C 
BRANCH   9  10
ATOM     10  C   UNL     1       1.341   2.163  18.993  0.00  0.00    +0.000 C 
BRANCH  10  11
ATOM     11  C   UNL     1       1.385   3.258  20.066  0.00  0.00    +0.000 C 
BRANCH  11  13
ATOM     12  O   UNL     1       3.459   2.416  20.829  0.00  0.00    +0.000 OA
ATOM     13  C   UNL     1       2.392   2.923  21.136  0.00  0.00    +0.000 C 
BRANCH  13  14
ATOM     14  O   UNL     1       2.123   3.159  22.438  0.00  0.00    +0.000 OA
ATOM     15  H   UNL     1       1.382   3.717  22.715  0.00  0.00    +0.000 HD
ENDBRANCH  13  14
ENDBRANCH  11  13
ENDBRANCH  10  11
ENDBRANCH   9  10
ENDBRANCH   7   9
ENDBRANCH   1   7
BRANCH   4  16
ATOM     16  O   UNL     1       7.135   6.918  16.825  0.00  0.00    +0.000 OA
BRANCH  16  17
ATOM     17  C   UNL     1       7.868   7.458  17.866  0.00  0.00    +0.000 C 
BRANCH  17  18
ATOM     18  C   UNL     1       7.941   8.977  17.781  0.00  0.00    +0.000 C 
BRANCH  18  19
ATOM     19  C   UNL     1       8.910   9.489  18.853  0.00  0.00    +0.000 C 
BRANCH  19  20
ATOM     20  C   UNL     1       9.411  10.857  18.529  0.00  0.00    +0.000 A 
ATOM     21  C   UNL     1      10.668  11.349  18.808  0.00  0.00    +0.000 A 
ATOM     22  N   UNL     1      10.718  12.614  18.372  0.00  0.00    +0.000 N 
ATOM     23  C   UNL     1       9.507  12.870  17.841  0.00  0.00    +0.000 A 
ATOM     24  N   UNL     1       8.678  11.811  17.922  0.00  0.00    +0.000 NA
ATOM     25  H   UNL     1      11.529  13.272  18.433  0.00  0.00    +0.000 HD
ENDBRANCH  19  20
ENDBRANCH  18  19
ENDBRANCH  17  18
ENDBRANCH  16  17
ENDBRANCH   4  16
TORSDOF 11
ENDMDL
