MODEL 1
REMARK VINA RESULT:      -7.4      0.000      0.000
REMARK  Name = 
REMARK  2 active torsions:
REMARK  status: ('A' for Active; 'I' for Inactive)
REMARK    1  A    between atoms: C_4  and  C_5
REMARK    2  A    between atoms: N_10  and  C_11
REMARK                            x       y       z     vdW  Elec       q    Type
REMARK                         _______ _______ _______ _____ _____    ______ ____
ROOT
ATOM      1  C   UNL     1       0.957   9.494  19.540  0.00  0.00    +0.000 A 
ATOM      2  C   UNL     1       0.568   8.999  20.776  0.00  0.00    +0.000 A 
ATOM      3  C   UNL     1       1.130   7.821  21.164  0.00  0.00    +0.000 A 
ATOM      4  N   UNL     1       2.003   7.143  20.412  0.00  0.00    +0.000 NA
ATOM      5  C   UNL     1       2.313   7.652  19.211  0.00  0.00    +0.000 A 
ATOM      6  N   UNL     1       3.153   6.933  18.367  0.00  0.00    +0.000 N 
ATOM      7  N   UNL     1       1.822   8.808  18.742  0.00  0.00    +0.000 NA
ATOM      8  H   UNL     1       3.009   7.279  17.428  0.00  0.00    +0.000 HD
ENDROOT
BRANCH   6   9
ATOM      9  C   UNL     1       3.141   5.476  18.561  0.00  0.00    +0.000 C 
ATOM     10  C   UNL     1       4.195   5.086  19.622  0.00  0.00    +0.000 C 
ATOM     11  C   UNL     1       5.655   5.185  19.147  0.00  0.00    +0.000 C 
ATOM     12  C   UNL     1       5.849   4.555  17.776  0.00  0.00    +0.000 C 
ATOM     13  C   UNL     1       7.120   4.893  17.004  0.00  0.00    +0.000 C 
ATOM     14  C   UNL     1       6.809   4.357  15.593  0.00  0.00    +0.000 C 
ATOM     15  C   UNL     1       5.275   4.249  15.511  0.00  0.00    +0.000 C 
ATOM     16  C   UNL     1       4.807   4.997  16.753  0.00  0.00    +0.000 C 
ATOM     17  C   UNL     1       3.394   4.742  17.234  0.00  0.00    +0.000 C 
ENDBRANCH   6   9
BRANCH   1  21
ATOM     18  C   UNL     1      -0.594  13.130  18.148  0.00  0.00    +0.000 A 
ATOM     19  C   UNL     1      -1.360  11.979  18.184  0.00  0.00    +0.000 A 
ATOM     20  N   UNL     1      -0.872  10.799  18.626  0.00  0.00    +0.000 NA
ATOM     21  C   UNL     1       0.431  10.786  19.044  0.00  0.00    +0.000 A 
ATOM     22  C   UNL     1       1.183  11.958  19.001  0.00  0.00    +0.000 A 
ATOM     23  N   UNL     1       0.692  13.148  18.555  0.00  0.00    +0.000 NA
ENDBRANCH   1  21
TORSDOF 2
ENDMDL
MODEL 2
REMARK VINA RESULT:      -7.4      0.584      1.017
REMARK  Name = 
REMARK  2 active torsions:
REMARK  status: ('A' for Active; 'I' for Inactive)
REMARK    1  A    between atoms: C_4  and  C_5
REMARK    2  A    between atoms: N_10  and  C_11
REMARK                            x       y       z     vdW  Elec       q    Type
REMARK                         _______ _______ _______ _____ _____    ______ ____
ROOT
ATOM      1  C   UNL     1       0.931   9.502  19.554  0.00  0.00    +0.000 A 
ATOM      2  C   UNL     1       0.553   9.000  20.791  0.00  0.00    +0.000 A 
ATOM      3  C   UNL     1       1.122   7.823  21.170  0.00  0.00    +0.000 A 
ATOM      4  N   UNL     1       1.992   7.151  20.408  0.00  0.00    +0.000 NA
ATOM      5  C   UNL     1       2.292   7.666  19.208  0.00  0.00    +0.000 A 
ATOM      6  N   UNL     1       3.128   6.954  18.355  0.00  0.00    +0.000 N 
ATOM      7  N   UNL     1       1.792   8.823  18.747  0.00  0.00    +0.000 NA
ATOM      8  H   UNL     1       2.976   7.303  17.418  0.00  0.00    +0.000 HD
ENDROOT
BRANCH   6   9
ATOM      9  C   UNL     1       3.123   5.497  18.542  0.00  0.00    +0.000 C 
ATOM     10  C   UNL     1       4.169   5.108  19.613  0.00  0.00    +0.000 C 
ATOM     11  C   UNL     1       5.633   5.218  19.152  0.00  0.00    +0.000 C 
ATOM     12  C   UNL     1       5.844   4.595  17.781  0.00  0.00    +0.000 C 
ATOM     13  C   UNL     1       7.121   4.944  17.023  0.00  0.00    +0.000 C 
ATOM     14  C   UNL     1       6.828   4.412  15.607  0.00  0.00    +0.000 C 
ATOM     15  C   UNL     1       5.295   4.295  15.509  0.00  0.00    +0.000 C 
ATOM     16  C   UNL     1       4.810   5.035  16.750  0.00  0.00    +0.000 C 
ATOM     17  C   UNL     1       3.394   4.770  17.215  0.00  0.00    +0.000 C 
ENDBRANCH   6   9
BRANCH   1  21
ATOM     18  C   UNL     1      -0.519  13.180  18.165  0.00  0.00    +0.000 A 
ATOM     19  C   UNL     1       0.785  13.030  18.597  0.00  0.00    +0.000 A 
ATOM     20  N   UNL     1       1.266  11.850  19.051  0.00  0.00    +0.000 NA
ATOM     21  C   UNL     1       0.397  10.793  19.068  0.00  0.00    +0.000 A 
ATOM     22  C   UNL     1      -0.913  10.968  18.626  0.00  0.00    +0.000 A 
ATOM     23  N   UNL     1      -1.398  12.157  18.168  0.00  0.00    +0.000 NA
ENDBRANCH   1  21
TORSDOF 2
ENDMDL
MODEL 3
REMARK VINA RESULT:      -7.4      2.213      3.397
REMARK  Name = 
REMARK  2 active torsions:
REMARK  status: ('A' for Active; 'I' for Inactive)
REMARK    1  A    between atoms: C_4  and  C_5
REMARK    2  A    between atoms: N_10  and  C_11
REMARK                            x       y       z     vdW  Elec       q    Type
REMARK                         _______ _______ _______ _____ _____    ______ ____
ROOT
ATOM      1  C   UNL     1       1.055   9.329  20.041  0.00  0.00    +0.000 A 
ATOM      2  C   UNL     1       1.228   9.907  18.792  0.00  0.00    +0.000 A 
ATOM      3  C   UNL     1       1.931   9.184  17.877  0.00  0.00    +0.000 A 
ATOM      4  N   UNL     1       2.453   7.982  18.139  0.00  0.00    +0.000 NA
ATOM      5  C   UNL     1       2.285   7.488  19.374  0.00  0.00    +0.000 A 
ATOM      6  N   UNL     1       2.885   6.279  19.708  0.00  0.00    +0.000 N 
ATOM      7  N   UNL     1       1.602   8.118  20.342  0.00  0.00    +0.000 NA
ATOM      8  H   UNL     1       2.938   6.234  20.716  0.00  0.00    +0.000 HD
ENDROOT
BRANCH   6   9
ATOM      9  C   UNL     1       4.100   5.951  18.951  0.00  0.00    +0.000 C 
ATOM     10  C   UNL     1       3.742   5.732  17.463  0.00  0.00    +0.000 C 
ATOM     11  C   UNL     1       2.994   4.419  17.167  0.00  0.00    +0.000 C 
ATOM     12  C   UNL     1       3.640   3.231  17.862  0.00  0.00    +0.000 C 
ATOM     13  C   UNL     1       2.830   1.945  17.986  0.00  0.00    +0.000 C 
ATOM     14  C   UNL     1       3.656   1.122  18.994  0.00  0.00    +0.000 C 
ATOM     15  C   UNL     1       4.532   2.138  19.750  0.00  0.00    +0.000 C 
ATOM     16  C   UNL     1       3.943   3.481  19.336  0.00  0.00    +0.000 C 
ATOM     17  C   UNL     1       4.799   4.714  19.539  0.00  0.00    +0.000 C 
ENDBRANCH   6   9
BRANCH   1  21
ATOM     18  C   UNL     1      -1.197  11.304  22.971  0.00  0.00    +0.000 A 
ATOM     19  C   UNL     1      -1.267  11.661  21.637  0.00  0.00    +0.000 A 
ATOM     20  N   UNL     1      -0.544  11.035  20.682  0.00  0.00    +0.000 NA
ATOM     21  C   UNL     1       0.275  10.019  21.092  0.00  0.00    +0.000 A 
ATOM     22  C   UNL     1       0.328   9.676  22.441  0.00  0.00    +0.000 A 
ATOM     23  N   UNL     1      -0.401  10.306  23.405  0.00  0.00    +0.000 NA
ENDBRANCH   1  21
TORSDOF 2
ENDMDL
MODEL 4
REMARK VINA RESULT:      -7.3      2.235      3.910
REMARK  Name = 
REMARK  2 active torsions:
REMARK  status: ('A' for Active; 'I' for Inactive)
REMARK    1  A    between atoms: C_4  and  C_5
REMARK    2  A    between atoms: N_10  and  C_11
REMARK                            x       y       z     vdW  Elec       q    Type
REMARK                         _______ _______ _______ _____ _____    ______ ____
ROOT
ATOM      1  C   UNL     1      -0.608  10.630  18.028  0.00  0.00    +0.000 A 
ATOM      2  C   UNL     1       0.111  11.598  18.713  0.00  0.00    +0.000 A 
ATOM      3  C   UNL     1       1.411  11.305  18.996  0.00  0.00    +0.000 A 
ATOM      4  N   UNL     1       1.991  10.149  18.658  0.00  0.00    +0.000 NA
ATOM      5  C   UNL     1       1.237   9.237  18.028  0.00  0.00    +0.000 A 
ATOM      6  N   UNL     1       1.782   7.992  17.736  0.00  0.00    +0.000 N 
ATOM      7  N   UNL     1      -0.049   9.433  17.698  0.00  0.00    +0.000 NA
ATOM      8  H   UNL     1       1.015   7.352  17.584  0.00  0.00    +0.000 HD
ENDROOT
BRANCH   6   9
ATOM      9  C   UNL     1       2.862   7.553  18.630  0.00  0.00    +0.000 C 
ATOM     10  C   UNL     1       3.863   6.677  17.843  0.00  0.00    +0.000 C 
ATOM     11  C   UNL     1       3.349   5.270  17.490  0.00  0.00    +0.000 C 
ATOM     12  C   UNL     1       2.689   4.593  18.681  0.00  0.00    +0.000 C 
ATOM     13  C   UNL     1       1.806   3.378  18.418  0.00  0.00    +0.000 C 
ATOM     14  C   UNL     1       1.084   3.186  19.765  0.00  0.00    +0.000 C 
ATOM     15  C   UNL     1       1.181   4.541  20.492  0.00  0.00    +0.000 C 
ATOM     16  C   UNL     1       1.683   5.483  19.404  0.00  0.00    +0.000 C 
ATOM     17  C   UNL     1       2.298   6.795  19.844  0.00  0.00    +0.000 C 
ENDBRANCH   6   9
BRANCH   1  21
ATOM     18  C   UNL     1      -4.592  11.255  16.889  0.00  0.00    +0.000 A 
ATOM     19  C   UNL     1      -3.686  10.633  16.050  0.00  0.00    +0.000 A 
ATOM     20  N   UNL     1      -2.397  10.429  16.403  0.00  0.00    +0.000 NA
ATOM     21  C   UNL     1      -2.017  10.868  17.642  0.00  0.00    +0.000 A 
ATOM     22  C   UNL     1      -2.948  11.489  18.470  0.00  0.00    +0.000 A 
ATOM     23  N   UNL     1      -4.248  11.697  18.116  0.00  0.00    +0.000 NA
ENDBRANCH   1  21
TORSDOF 2
ENDMDL
MODEL 5
REMARK VINA RESULT:      -7.2      2.177      3.776
REMARK  Name = 
REMARK  2 active torsions:
REMARK  status: ('A' for Active; 'I' for Inactive)
REMARK    1  A    between atoms: C_4  and  C_5
REMARK    2  A    between atoms: N_10  and  C_11
REMARK                            x       y       z     vdW  Elec       q    Type
REMARK                         _______ _______ _______ _____ _____    ______ ____
ROOT
ATOM      1  C   UNL     1      -0.652  10.383  18.172  0.00  0.00    +0.000 A 
ATOM      2  C   UNL     1      -0.084  11.262  19.083  0.00  0.00    +0.000 A 
ATOM      3  C   UNL     1       1.183  10.979  19.494  0.00  0.00    +0.000 A 
ATOM      4  N   UNL     1       1.868   9.910  19.073  0.00  0.00    +0.000 NA
ATOM      5  C   UNL     1       1.254   9.077  18.221  0.00  0.00    +0.000 A 
ATOM      6  N   UNL     1       1.904   7.912  17.827  0.00  0.00    +0.000 N 
ATOM      7  N   UNL     1       0.013   9.272  17.751  0.00  0.00    +0.000 NA
ATOM      8  H   UNL     1       1.200   7.274  17.480  0.00  0.00    +0.000 HD
ENDROOT
BRANCH   6   9
ATOM      9  C   UNL     1       2.883   7.383  18.786  0.00  0.00    +0.000 C 
ATOM     10  C   UNL     1       3.995   6.624  18.027  0.00  0.00    +0.000 C 
ATOM     11  C   UNL     1       3.567   5.264  17.450  0.00  0.00    +0.000 C 
ATOM     12  C   UNL     1       2.791   4.437  18.463  0.00  0.00    +0.000 C 
ATOM     13  C   UNL     1       1.981   3.250  17.951  0.00  0.00    +0.000 C 
ATOM     14  C   UNL     1       1.112   2.885  19.169  0.00  0.00    +0.000 C 
ATOM     15  C   UNL     1       1.082   4.142  20.059  0.00  0.00    +0.000 C 
ATOM     16  C   UNL     1       1.682   5.217  19.160  0.00  0.00    +0.000 C 
ATOM     17  C   UNL     1       2.202   6.475  19.824  0.00  0.00    +0.000 C 
ENDBRANCH   6   9
BRANCH   1  21
ATOM     18  C   UNL     1      -4.507  11.116  16.701  0.00  0.00    +0.000 A 
ATOM     19  C   UNL     1      -4.113  11.549  17.953  0.00  0.00    +0.000 A 
ATOM     20  N   UNL     1      -2.874  11.316  18.442  0.00  0.00    +0.000 NA
ATOM     21  C   UNL     1      -2.011  10.624  17.638  0.00  0.00    +0.000 A 
ATOM     22  C   UNL     1      -2.429  10.199  16.379  0.00  0.00    +0.000 A 
ATOM     23  N   UNL     1      -3.678  10.432  15.885  0.00  0.00    +0.000 NA
ENDBRANCH   1  21
TORSDOF 2
ENDMDL
MODEL 6
REMARK VINA RESULT:      -7.1      2.199      3.400
REMARK  Name = 
REMARK  2 active torsions:
REMARK  status: ('A' for Active; 'I' for Inactive)
REMARK    1  A    between atoms: C_4  and  C_5
REMARK    2  A    between atoms: N_10  and  C_11
REMARK                            x       y       z     vdW  Elec       q    Type
REMARK                         _______ _______ _______ _____ _____    ______ ____
ROOT
ATOM      1  C   UNL     1       1.028   9.346  20.022  0.00  0.00    +0.000 A 
ATOM      2  C   UNL     1       1.243   9.948  18.791  0.00  0.00    +0.000 A 
ATOM      3  C   UNL     1       1.970   9.239  17.884  0.00  0.00    +0.000 A 
ATOM      4  N   UNL     1       2.477   8.028  18.138  0.00  0.00    +0.000 NA
ATOM      5  C   UNL     1       2.267   7.511  19.356  0.00  0.00    +0.000 A 
ATOM      6  N   UNL     1       2.849   6.292  19.684  0.00  0.00    +0.000 N 
ATOM      7  N   UNL     1       1.558   8.126  20.315  0.00  0.00    +0.000 NA
ATOM      8  H   UNL     1       2.871   6.226  20.693  0.00  0.00    +0.000 HD
ENDROOT
BRANCH   6   9
ATOM      9  C   UNL     1       4.086   5.971  18.959  0.00  0.00    +0.000 C 
ATOM     10  C   UNL     1       3.767   5.749  17.463  0.00  0.00    +0.000 C 
ATOM     11  C   UNL     1       3.037   4.431  17.149  0.00  0.00    +0.000 C 
ATOM     12  C   UNL     1       3.672   3.247  17.860  0.00  0.00    +0.000 C 
ATOM     13  C   UNL     1       2.867   1.956  17.964  0.00  0.00    +0.000 C 
ATOM     14  C   UNL     1       3.671   1.139  18.994  0.00  0.00    +0.000 C 
ATOM     15  C   UNL     1       4.522   2.161  19.772  0.00  0.00    +0.000 C 
ATOM     16  C   UNL     1       3.935   3.500  19.342  0.00  0.00    +0.000 C 
ATOM     17  C   UNL     1       4.777   4.739  19.566  0.00  0.00    +0.000 C 
ENDBRANCH   6   9
BRANCH   1  21
ATOM     18  C   UNL     1      -1.236  11.213  23.013  0.00  0.00    +0.000 A 
ATOM     19  C   UNL     1      -0.717   9.943  23.181  0.00  0.00    +0.000 A 
ATOM     20  N   UNL     1       0.011   9.327  22.223  0.00  0.00    +0.000 NA
ATOM     21  C   UNL     1       0.219  10.019  21.061  0.00  0.00    +0.000 A 
ATOM     22  C   UNL     1      -0.311  11.299  20.916  0.00  0.00    +0.000 A 
ATOM     23  N   UNL     1      -1.046  11.921  21.880  0.00  0.00    +0.000 NA
ENDBRANCH   1  21
TORSDOF 2
ENDMDL
MODEL 7
REMARK VINA RESULT:      -7.0      2.263      8.038
REMARK  Name = 
REMARK  2 active torsions:
REMARK  status: ('A' for Active; 'I' for Inactive)
REMARK    1  A    between atoms: C_4  and  C_5
REMARK    2  A    between atoms: N_10  and  C_11
REMARK                            x       y       z     vdW  Elec       q    Type
REMARK                         _______ _______ _______ _____ _____    ______ ____
ROOT
ATOM      1  C   UNL     1       3.052   5.753  19.191  0.00  0.00    +0.000 A 
ATOM      2  C   UNL     1       3.901   5.799  18.095  0.00  0.00    +0.000 A 
ATOM      3  C   UNL     1       3.944   6.973  17.406  0.00  0.00    +0.000 A 
ATOM      4  N   UNL     1       3.210   8.041  17.734  0.00  0.00    +0.000 NA
ATOM      5  C   UNL     1       2.382   7.927  18.781  0.00  0.00    +0.000 A 
ATOM      6  N   UNL     1       1.542   8.988  19.100  0.00  0.00    +0.000 N 
ATOM      7  N   UNL     1       2.272   6.817  19.527  0.00  0.00    +0.000 NA
ATOM      8  H   UNL     1       0.789   8.621  19.665  0.00  0.00    +0.000 HD
ENDROOT
BRANCH   6   9
ATOM      9  C   UNL     1       1.181   9.863  17.976  0.00  0.00    +0.000 C 
ATOM     10  C   UNL     1       1.966  11.191  18.078  0.00  0.00    +0.000 C 
ATOM     11  C   UNL     1       1.488  12.137  19.194  0.00  0.00    +0.000 C 
ATOM     12  C   UNL     1      -0.026  12.275  19.210  0.00  0.00    +0.000 C 
ATOM     13  C   UNL     1      -0.681  12.858  20.458  0.00  0.00    +0.000 C 
ATOM     14  C   UNL     1      -2.172  12.540  20.237  0.00  0.00    +0.000 C 
ATOM     15  C   UNL     1      -2.211  11.390  19.213  0.00  0.00    +0.000 C 
ATOM     16  C   UNL     1      -0.757  10.937  19.143  0.00  0.00    +0.000 C 
ATOM     17  C   UNL     1      -0.335  10.118  17.942  0.00  0.00    +0.000 C 
ENDBRANCH   6   9
BRANCH   1  21
ATOM     18  C   UNL     1       2.855   2.282  21.530  0.00  0.00    +0.000 A 
ATOM     19  C   UNL     1       3.676   2.365  20.421  0.00  0.00    +0.000 A 
ATOM     20  N   UNL     1       3.747   3.477  19.655  0.00  0.00    +0.000 NA
ATOM     21  C   UNL     1       2.961   4.534  20.025  0.00  0.00    +0.000 A 
ATOM     22  C   UNL     1       2.143   4.428  21.147  0.00  0.00    +0.000 A 
ATOM     23  N   UNL     1       2.071   3.308  21.920  0.00  0.00    +0.000 NA
ENDBRANCH   1  21
TORSDOF 2
ENDMDL
MODEL 8
REMARK VINA RESULT:      -6.9      1.236      1.548
REMARK  Name = 
REMARK  2 active torsions:
REMARK  status: ('A' for Active; 'I' for Inactive)
REMARK    1  A    between atoms: C_4  and  C_5
REMARK    2  A    between atoms: N_10  and  C_11
REMARK                            x       y       z     vdW  Elec       q    Type
REMARK                         _______ _______ _______ _____ _____    ______ ____
ROOT
ATOM      1  C   UNL     1       1.497   8.184  19.812  0.00  0.00    +0.000 A 
ATOM      2  C   UNL     1       1.087   7.372  20.859  0.00  0.00    +0.000 A 
ATOM      3  C   UNL     1       1.733   6.181  20.994  0.00  0.00    +0.000 A 
ATOM      4  N   UNL     1       2.705   5.777  20.171  0.00  0.00    +0.000 NA
ATOM      5  C   UNL     1       3.035   6.588  19.156  0.00  0.00    +0.000 A 
ATOM      6  N   UNL     1       3.983   6.165  18.231  0.00  0.00    +0.000 N 
ATOM      7  N   UNL     1       2.465   7.784  18.942  0.00  0.00    +0.000 NA
ATOM      8  H   UNL     1       3.861   6.720  17.395  0.00  0.00    +0.000 HD
ENDROOT
BRANCH   6   9
ATOM      9  C   UNL     1       4.095   4.709  18.067  0.00  0.00    +0.000 C 
ATOM     10  C   UNL     1       5.423   4.218  18.687  0.00  0.00    +0.000 C 
ATOM     11  C   UNL     1       6.683   4.580  17.880  0.00  0.00    +0.000 C 
ATOM     12  C   UNL     1       6.510   4.287  16.398  0.00  0.00    +0.000 C 
ATOM     13  C   UNL     1       7.492   4.924  15.420  0.00  0.00    +0.000 C 
ATOM     14  C   UNL     1       6.821   4.675  14.056  0.00  0.00    +0.000 C 
ATOM     15  C   UNL     1       5.333   4.417  14.360  0.00  0.00    +0.000 C 
ATOM     16  C   UNL     1       5.201   4.822  15.823  0.00  0.00    +0.000 C 
ATOM     17  C   UNL     1       3.996   4.313  16.585  0.00  0.00    +0.000 C 
ENDBRANCH   6   9
BRANCH   1  21
ATOM     18  C   UNL     1      -0.272  11.946  19.280  0.00  0.00    +0.000 A 
ATOM     19  C   UNL     1      -0.791  11.017  20.163  0.00  0.00    +0.000 A 
ATOM     20  N   UNL     1      -0.233   9.799  20.342  0.00  0.00    +0.000 NA
ATOM     21  C   UNL     1       0.883   9.514  19.603  0.00  0.00    +0.000 A 
ATOM     22  C   UNL     1       1.389  10.466  18.721  0.00  0.00    +0.000 A 
ATOM     23  N   UNL     1       0.827  11.695  18.539  0.00  0.00    +0.000 NA
ENDBRANCH   1  21
TORSDOF 2
ENDMDL
MODEL 9
REMARK VINA RESULT:      -6.8      2.257      8.002
REMARK  Name = 
REMARK  2 active torsions:
REMARK  status: ('A' for Active; 'I' for Inactive)
REMARK    1  A    between atoms: C_4  and  C_5
REMARK    2  A    between atoms: N_10  and  C_11
REMARK                            x       y       z     vdW  Elec       q    Type
REMARK                         _______ _______ _______ _____ _____    ______ ____
ROOT
ATOM      1  C   UNL     1       3.068   5.732  19.162  0.00  0.00    +0.000 A 
ATOM      2  C   UNL     1       3.931   5.787  18.078  0.00  0.00    +0.000 A 
ATOM      3  C   UNL     1       3.980   6.965  17.397  0.00  0.00    +0.000 A 
ATOM      4  N   UNL     1       3.239   8.030  17.722  0.00  0.00    +0.000 NA
ATOM      5  C   UNL     1       2.398   7.907  18.758  0.00  0.00    +0.000 A 
ATOM      6  N   UNL     1       1.551   8.964  19.072  0.00  0.00    +0.000 N 
ATOM      7  N   UNL     1       2.281   6.792  19.496  0.00  0.00    +0.000 NA
ATOM      8  H   UNL     1       0.792   8.592  19.625  0.00  0.00    +0.000 HD
ENDROOT
BRANCH   6   9
ATOM      9  C   UNL     1       1.202   9.845  17.949  0.00  0.00    +0.000 C 
ATOM     10  C   UNL     1       1.957  11.187  18.087  0.00  0.00    +0.000 C 
ATOM     11  C   UNL     1       1.432  12.110  19.200  0.00  0.00    +0.000 C 
ATOM     12  C   UNL     1      -0.085  12.218  19.178  0.00  0.00    +0.000 C 
ATOM     13  C   UNL     1      -0.783  12.773  20.415  0.00  0.00    +0.000 C 
ATOM     14  C   UNL     1      -2.262  12.428  20.151  0.00  0.00    +0.000 C 
ATOM     15  C   UNL     1      -2.250  11.290  19.113  0.00  0.00    +0.000 C 
ATOM     16  C   UNL     1      -0.787  10.867  19.077  0.00  0.00    +0.000 C 
ATOM     17  C   UNL     1      -0.317  10.070  17.878  0.00  0.00    +0.000 C 
ENDBRANCH   6   9
BRANCH   1  21
ATOM     18  C   UNL     1       2.726   2.282  21.516  0.00  0.00    +0.000 A 
ATOM     19  C   UNL     1       1.887   3.366  21.690  0.00  0.00    +0.000 A 
ATOM     20  N   UNL     1       1.988   4.487  20.941  0.00  0.00    +0.000 NA
ATOM     21  C   UNL     1       2.970   4.508  19.988  0.00  0.00    +0.000 A 
ATOM     22  C   UNL     1       3.802   3.403  19.829  0.00  0.00    +0.000 A 
ATOM     23  N   UNL     1       3.701   2.272  20.583  0.00  0.00    +0.000 NA
ENDBRANCH   1  21
TORSDOF 2
ENDMDL
