MODEL 1
REMARK VINA RESULT:      -8.6      0.000      0.000
REMARK  Name = 
REMARK  7 active torsions:
REMARK  status: ('A' for Active; 'I' for Inactive)
REMARK    1  A    between atoms: C_1  and  C_2
REMARK    2  A    between atoms: C_2  and  C_3
REMARK    3  A    between atoms: C_2  and  C_4
REMARK    4  A    between atoms: C_9  and  C_11
REMARK    5  A    between atoms: C_11  and  C_12
REMARK    6  A    between atoms: C_12  and  C_13
REMARK    7  A    between atoms: N_15  and  C_16
REMARK                            x       y       z     vdW  Elec       q    Type
REMARK                         _______ _______ _______ _____ _____    ______ ____
ROOT
ATOM      1  C   UNL     1       8.065   7.350  18.309  0.00  0.00    +0.000 C 
ENDROOT
BRANCH   1   2
ATOM      2  C   UNL     1       8.274   8.844  18.313  0.00  0.00    +0.000 C 
ATOM      3  O   UNL     1       7.675   9.562  17.517  0.00  0.00    +0.000 OA
ATOM      4  N   UNL     1       9.194   9.259  19.264  0.00  0.00    +0.000 N 
ATOM      5  H   UNL     1       9.749   8.543  19.715  0.00  0.00    +0.000 HD
BRANCH   4   6
ATOM      6  C   UNL     1       9.580  10.604  19.505  0.00  0.00    +0.000 A 
ATOM      7  C   UNL     1       9.370  11.220  20.786  0.00  0.00    +0.000 A 
ATOM      8  C   UNL     1       9.633  12.570  21.089  0.00  0.00    +0.000 A 
ATOM      9  C   UNL     1      10.136  13.226  19.980  0.00  0.00    +0.000 A 
ATOM     10  C   UNL     1      10.443  14.554  19.924  0.00  0.00    +0.000 A 
ATOM     11  N   UNL     1      10.883  14.747  18.648  0.00  0.00    +0.000 N 
ATOM     12  N   UNL     1      10.896  13.633  17.885  0.00  0.00    +0.000 NA
ATOM     13  C   UNL     1      10.415  12.665  18.685  0.00  0.00    +0.000 A 
ATOM     14  C   UNL     1      10.163  11.305  18.419  0.00  0.00    +0.000 A 
ATOM     15  H   UNL     1      11.187  15.618  18.224  0.00  0.00    +0.000 HD
ENDBRANCH   4   6
ENDBRANCH   1   2
BRANCH   1  16
ATOM     16  C   UNL     1       7.237   6.918  17.093  0.00  0.00    +0.000 C 
BRANCH  16  22
ATOM     17  C   UNL     1       2.962   3.654  19.718  0.00  0.00    +0.000 A 
ATOM     18  N   UNL     1       3.973   2.838  19.948  0.00  0.00    +0.000 NA
ATOM     19  N   UNL     1       5.176   3.364  19.499  0.00  0.00    +0.000 NA
ATOM     20  C   UNL     1       5.018   4.525  18.906  0.00  0.00    +0.000 A 
ATOM     21  N   UNL     1       6.055   5.244  18.360  0.00  0.00    +0.000 N 
ATOM     22  C   UNL     1       5.913   6.336  17.530  0.00  0.00    +0.000 C 
ATOM     23  O   UNL     1       4.854   6.825  17.137  0.00  0.00    +0.000 OA
ATOM     24  S   UNL     1       3.414   5.104  18.926  0.00  0.00    +0.000 S 
ATOM     25  H   UNL     1       6.969   4.835  18.507  0.00  0.00    +0.000 HD
BRANCH  17  27
ATOM     26  C   UNL     1       0.785   2.610  19.063  0.00  0.00    +0.000 C 
ATOM     27  C   UNL     1       1.532   3.429  20.114  0.00  0.00    +0.000 C 
ATOM     28  C   UNL     1       1.455   2.760  21.484  0.00  0.00    +0.000 C 
ENDBRANCH  17  27
ENDBRANCH  16  22
ENDBRANCH   1  16
TORSDOF 5
ENDMDL
MODEL 2
REMARK VINA RESULT:      -8.4      6.147      7.772
REMARK  Name = 
REMARK  7 active torsions:
REMARK  status: ('A' for Active; 'I' for Inactive)
REMARK    1  A    between atoms: C_1  and  C_2
REMARK    2  A    between atoms: C_2  and  C_3
REMARK    3  A    between atoms: C_2  and  C_4
REMARK    4  A    between atoms: C_9  and  C_11
REMARK    5  A    between atoms: C_11  and  C_12
REMARK    6  A    between atoms: C_12  and  C_13
REMARK    7  A    between atoms: N_15  and  C_16
REMARK                            x       y       z     vdW  Elec       q    Type
REMARK                         _______ _______ _______ _____ _____    ______ ____
ROOT
ATOM      1  C   UNL     1       2.893   3.169  20.209  0.00  0.00    +0.000 C 
ENDROOT
BRANCH   1   2
ATOM      2  C   UNL     1       2.056   4.418  20.088  0.00  0.00    +0.000 C 
ATOM      3  O   UNL     1       0.830   4.353  20.100  0.00  0.00    +0.000 OA
ATOM      4  N   UNL     1       2.817   5.569  19.947  0.00  0.00    +0.000 N 
ATOM      5  H   UNL     1       3.805   5.450  19.760  0.00  0.00    +0.000 HD
BRANCH   4   6
ATOM      6  C   UNL     1       2.304   6.887  19.825  0.00  0.00    +0.000 A 
ATOM      7  C   UNL     1       1.574   7.503  20.898  0.00  0.00    +0.000 A 
ATOM      8  C   UNL     1       0.950   8.764  20.835  0.00  0.00    +0.000 A 
ATOM      9  C   UNL     1       1.146   9.339  19.592  0.00  0.00    +0.000 A 
ATOM     10  C   UNL     1       0.626  10.534  19.188  0.00  0.00    +0.000 A 
ATOM     11  N   UNL     1       1.068  10.679  17.906  0.00  0.00    +0.000 N 
ATOM     12  N   UNL     1       1.848   9.670  17.465  0.00  0.00    +0.000 NA
ATOM     13  C   UNL     1       1.900   8.803  18.491  0.00  0.00    +0.000 A 
ATOM     14  C   UNL     1       2.534   7.549  18.593  0.00  0.00    +0.000 A 
ATOM     15  H   UNL     1       0.871  11.444  17.268  0.00  0.00    +0.000 HD
ENDBRANCH   4   6
ENDBRANCH   1   2
BRANCH   1  16
ATOM     16  C   UNL     1       4.370   3.473  19.930  0.00  0.00    +0.000 C 
BRANCH  16  22
ATOM     17  C   UNL     1       6.767   4.384  14.523  0.00  0.00    +0.000 A 
ATOM     18  N   UNL     1       7.456   5.299  15.177  0.00  0.00    +0.000 NA
ATOM     19  N   UNL     1       7.166   5.294  16.534  0.00  0.00    +0.000 NA
ATOM     20  C   UNL     1       6.237   4.416  16.839  0.00  0.00    +0.000 A 
ATOM     21  N   UNL     1       5.762   4.229  18.115  0.00  0.00    +0.000 N 
ATOM     22  C   UNL     1       4.638   3.501  18.444  0.00  0.00    +0.000 C 
ATOM     23  O   UNL     1       3.883   2.925  17.661  0.00  0.00    +0.000 OA
ATOM     24  S   UNL     1       5.711   3.474  15.519  0.00  0.00    +0.000 S 
ATOM     25  H   UNL     1       6.231   4.782  18.820  0.00  0.00    +0.000 HD
BRANCH  17  27
ATOM     26  C   UNL     1       5.496   3.765  12.458  0.00  0.00    +0.000 C 
ATOM     27  C   UNL     1       6.866   4.078  13.056  0.00  0.00    +0.000 C 
ATOM     28  C   UNL     1       7.535   5.232  12.313  0.00  0.00    +0.000 C 
ENDBRANCH  17  27
ENDBRANCH  16  22
ENDBRANCH   1  16
TORSDOF 5
ENDMDL
MODEL 3
REMARK VINA RESULT:      -8.3      1.464      1.526
REMARK  Name = 
REMARK  7 active torsions:
REMARK  status: ('A' for Active; 'I' for Inactive)
REMARK    1  A    between atoms: C_1  and  C_2
REMARK    2  A    between atoms: C_2  and  C_3
REMARK    3  A    between atoms: C_2  and  C_4
REMARK    4  A    between atoms: C_9  and  C_11
REMARK    5  A    between atoms: C_11  and  C_12
REMARK    6  A    between atoms: C_12  and  C_13
REMARK    7  A    between atoms: N_15  and  C_16
REMARK                            x       y       z     vdW  Elec       q    Type
REMARK                         _______ _______ _______ _____ _____    ______ ____
ROOT
ATOM      1  C   UNL     1       8.124   7.018  18.656  0.00  0.00    +0.000 C 
ENDROOT
BRANCH   1   2
ATOM      2  C   UNL     1       8.239   8.484  18.316  0.00  0.00    +0.000 C 
ATOM      3  O   UNL     1       7.588   8.964  17.393  0.00  0.00    +0.000 OA
ATOM      4  N   UNL     1       9.140   9.158  19.127  0.00  0.00    +0.000 N 
ATOM      5  H   UNL     1       9.743   8.597  19.715  0.00  0.00    +0.000 HD
BRANCH   4   6
ATOM      6  C   UNL     1       9.443  10.543  19.047  0.00  0.00    +0.000 A 
ATOM      7  C   UNL     1       9.089  11.443  20.109  0.00  0.00    +0.000 A 
ATOM      8  C   UNL     1       9.264  12.841  20.079  0.00  0.00    +0.000 A 
ATOM      9  C   UNL     1       9.838  13.231  18.883  0.00  0.00    +0.000 A 
ATOM     10  C   UNL     1      10.089  14.520  18.515  0.00  0.00    +0.000 A 
ATOM     11  N   UNL     1      10.636  14.417  17.270  0.00  0.00    +0.000 N 
ATOM     12  N   UNL     1      10.768  13.152  16.819  0.00  0.00    +0.000 NA
ATOM     13  C   UNL     1      10.258  12.384  17.798  0.00  0.00    +0.000 A 
ATOM     14  C   UNL     1      10.092  10.987  17.868  0.00  0.00    +0.000 A 
ATOM     15  H   UNL     1      10.939  15.173  16.664  0.00  0.00    +0.000 HD
ENDBRANCH   4   6
ENDBRANCH   1   2
BRANCH   1  16
ATOM     16  C   UNL     1       7.385   6.257  17.548  0.00  0.00    +0.000 C 
BRANCH  16  22
ATOM     17  C   UNL     1       2.090   4.513  19.723  0.00  0.00    +0.000 A 
ATOM     18  N   UNL     1       1.930   5.812  19.890  0.00  0.00    +0.000 NA
ATOM     19  N   UNL     1       3.008   6.535  19.399  0.00  0.00    +0.000 NA
ATOM     20  C   UNL     1       3.956   5.754  18.932  0.00  0.00    +0.000 A 
ATOM     21  N   UNL     1       5.134   6.226  18.405  0.00  0.00    +0.000 N 
ATOM     22  C   UNL     1       6.243   5.455  18.124  0.00  0.00    +0.000 C 
ATOM     23  O   UNL     1       6.360   4.244  18.313  0.00  0.00    +0.000 OA
ATOM     24  S   UNL     1       3.572   4.093  18.974  0.00  0.00    +0.000 S 
ATOM     25  H   UNL     1       5.190   7.234  18.346  0.00  0.00    +0.000 HD
BRANCH  17  27
ATOM     26  C   UNL     1       0.944   2.421  18.966  0.00  0.00    +0.000 C 
ATOM     27  C   UNL     1       1.104   3.442  20.091  0.00  0.00    +0.000 C 
ATOM     28  C   UNL     1       1.516   2.760  21.393  0.00  0.00    +0.000 C 
ENDBRANCH  17  27
ENDBRANCH  16  22
ENDBRANCH   1  16
TORSDOF 5
ENDMDL
MODEL 4
REMARK VINA RESULT:      -8.3      4.808      8.713
REMARK  Name = 
REMARK  7 active torsions:
REMARK  status: ('A' for Active; 'I' for Inactive)
REMARK    1  A    between atoms: C_1  and  C_2
REMARK    2  A    between atoms: C_2  and  C_3
REMARK    3  A    between atoms: C_2  and  C_4
REMARK    4  A    between atoms: C_9  and  C_11
REMARK    5  A    between atoms: C_11  and  C_12
REMARK    6  A    between atoms: C_12  and  C_13
REMARK    7  A    between atoms: N_15  and  C_16
REMARK                            x       y       z     vdW  Elec       q    Type
REMARK                         _______ _______ _______ _____ _____    ______ ____
ROOT
ATOM      1  C   UNL     1       7.786   6.582  18.317  0.00  0.00    +0.000 C 
ENDROOT
BRANCH   1   2
ATOM      2  C   UNL     1       6.981   5.666  19.206  0.00  0.00    +0.000 C 
ATOM      3  O   UNL     1       7.479   5.181  20.218  0.00  0.00    +0.000 OA
ATOM      4  N   UNL     1       5.695   5.448  18.736  0.00  0.00    +0.000 N 
ATOM      5  H   UNL     1       5.488   5.756  17.793  0.00  0.00    +0.000 HD
BRANCH   4   6
ATOM      6  C   UNL     1       4.712   4.643  19.369  0.00  0.00    +0.000 A 
ATOM      7  C   UNL     1       4.948   3.251  19.633  0.00  0.00    +0.000 A 
ATOM      8  C   UNL     1       4.002   2.355  20.169  0.00  0.00    +0.000 A 
ATOM      9  C   UNL     1       2.807   3.006  20.419  0.00  0.00    +0.000 A 
ATOM     10  C   UNL     1       1.672   2.413  20.889  0.00  0.00    +0.000 A 
ATOM     11  N   UNL     1       0.765   3.429  20.962  0.00  0.00    +0.000 N 
ATOM     12  N   UNL     1       1.242   4.635  20.589  0.00  0.00    +0.000 NA
ATOM     13  C   UNL     1       2.515   4.401  20.224  0.00  0.00    +0.000 A 
ATOM     14  C   UNL     1       3.490   5.277  19.708  0.00  0.00    +0.000 A 
ATOM     15  H   UNL     1      -0.205   3.370  21.255  0.00  0.00    +0.000 HD
ENDBRANCH   4   6
ENDBRANCH   1   2
BRANCH   1  16
ATOM     16  C   UNL     1       6.873   7.342  17.347  0.00  0.00    +0.000 C 
BRANCH  16  22
ATOM     17  C   UNL     1       6.158   3.607  12.725  0.00  0.00    +0.000 A 
ATOM     18  N   UNL     1       7.314   4.124  12.357  0.00  0.00    +0.000 NA
ATOM     19  N   UNL     1       7.805   5.019  13.297  0.00  0.00    +0.000 NA
ATOM     20  C   UNL     1       6.979   5.180  14.306  0.00  0.00    +0.000 A 
ATOM     21  N   UNL     1       7.228   6.026  15.360  0.00  0.00    +0.000 N 
ATOM     22  C   UNL     1       6.301   6.405  16.309  0.00  0.00    +0.000 C 
ATOM     23  O   UNL     1       5.119   6.065  16.355  0.00  0.00    +0.000 OA
ATOM     24  S   UNL     1       5.590   4.194  14.231  0.00  0.00    +0.000 S 
ATOM     25  H   UNL     1       8.134   6.474  15.330  0.00  0.00    +0.000 HD
BRANCH  17  27
ATOM     26  C   UNL     1       4.276   3.214  11.123  0.00  0.00    +0.000 C 
ATOM     27  C   UNL     1       5.368   2.573  11.977  0.00  0.00    +0.000 C 
ATOM     28  C   UNL     1       6.294   1.710  11.121  0.00  0.00    +0.000 C 
ENDBRANCH  17  27
ENDBRANCH  16  22
ENDBRANCH   1  16
TORSDOF 5
ENDMDL
MODEL 5
REMARK VINA RESULT:      -8.1      2.347     10.091
REMARK  Name = 
REMARK  7 active torsions:
REMARK  status: ('A' for Active; 'I' for Inactive)
REMARK    1  A    between atoms: C_1  and  C_2
REMARK    2  A    between atoms: C_2  and  C_3
REMARK    3  A    between atoms: C_2  and  C_4
REMARK    4  A    between atoms: C_9  and  C_11
REMARK    5  A    between atoms: C_11  and  C_12
REMARK    6  A    between atoms: C_12  and  C_13
REMARK    7  A    between atoms: N_15  and  C_16
REMARK                            x       y       z     vdW  Elec       q    Type
REMARK                         _______ _______ _______ _____ _____    ______ ____
ROOT
ATOM      1  C   UNL     1       7.353   6.511  17.068  0.00  0.00    +0.000 C 
ENDROOT
BRANCH   1   2
ATOM      2  C   UNL     1       5.876   6.252  17.234  0.00  0.00    +0.000 C 
ATOM      3  O   UNL     1       5.056   6.834  16.530  0.00  0.00    +0.000 OA
ATOM      4  N   UNL     1       5.596   5.342  18.242  0.00  0.00    +0.000 N 
ATOM      5  H   UNL     1       6.355   5.092  18.864  0.00  0.00    +0.000 HD
BRANCH   4   6
ATOM      6  C   UNL     1       4.300   4.898  18.615  0.00  0.00    +0.000 A 
ATOM      7  C   UNL     1       3.599   5.493  19.719  0.00  0.00    +0.000 A 
ATOM      8  C   UNL     1       2.355   5.058  20.219  0.00  0.00    +0.000 A 
ATOM      9  C   UNL     1       1.892   3.978  19.489  0.00  0.00    +0.000 A 
ATOM     10  C   UNL     1       0.743   3.289  19.750  0.00  0.00    +0.000 A 
ATOM     11  N   UNL     1       0.708   2.317  18.793  0.00  0.00    +0.000 N 
ATOM     12  N   UNL     1       1.744   2.344  17.928  0.00  0.00    +0.000 NA
ATOM     13  C   UNL     1       2.515   3.362  18.349  0.00  0.00    +0.000 A 
ATOM     14  C   UNL     1       3.747   3.835  17.857  0.00  0.00    +0.000 A 
ATOM     15  H   UNL     1       0.006   1.594  18.674  0.00  0.00    +0.000 HD
ENDBRANCH   4   6
ENDBRANCH   1   2
BRANCH   1  16
ATOM     16  C   UNL     1       7.954   7.088  18.355  0.00  0.00    +0.000 C 
BRANCH  16  22
ATOM     17  C   UNL     1       9.909  12.695  19.098  0.00  0.00    +0.000 A 
ATOM     18  N   UNL     1      10.126  12.268  20.328  0.00  0.00    +0.000 NA
ATOM     19  N   UNL     1       9.822  10.922  20.470  0.00  0.00    +0.000 NA
ATOM     20  C   UNL     1       9.343  10.403  19.363  0.00  0.00    +0.000 A 
ATOM     21  N   UNL     1       8.952   9.090  19.250  0.00  0.00    +0.000 N 
ATOM     22  C   UNL     1       8.231   8.564  18.198  0.00  0.00    +0.000 C 
ATOM     23  O   UNL     1       7.816   9.178  17.216  0.00  0.00    +0.000 OA
ATOM     24  S   UNL     1       9.306  11.485  18.046  0.00  0.00    +0.000 S 
ATOM     25  H   UNL     1       9.121   8.532  20.077  0.00  0.00    +0.000 HD
BRANCH  17  27
ATOM     26  C   UNL     1      10.935  14.042  17.255  0.00  0.00    +0.000 C 
ATOM     27  C   UNL     1      10.174  14.078  18.579  0.00  0.00    +0.000 C 
ATOM     28  C   UNL     1       8.866  14.855  18.435  0.00  0.00    +0.000 C 
ENDBRANCH  17  27
ENDBRANCH  16  22
ENDBRANCH   1  16
TORSDOF 5
ENDMDL
MODEL 6
REMARK VINA RESULT:      -8.1      6.300      7.871
REMARK  Name = 
REMARK  7 active torsions:
REMARK  status: ('A' for Active; 'I' for Inactive)
REMARK    1  A    between atoms: C_1  and  C_2
REMARK    2  A    between atoms: C_2  and  C_3
REMARK    3  A    between atoms: C_2  and  C_4
REMARK    4  A    between atoms: C_9  and  C_11
REMARK    5  A    between atoms: C_11  and  C_12
REMARK    6  A    between atoms: C_12  and  C_13
REMARK    7  A    between atoms: N_15  and  C_16
REMARK                            x       y       z     vdW  Elec       q    Type
REMARK                         _______ _______ _______ _____ _____    ______ ____
ROOT
ATOM      1  C   UNL     1       3.471   3.787  20.602  0.00  0.00    +0.000 C 
ENDROOT
BRANCH   1   2
ATOM      2  C   UNL     1       2.473   4.833  20.170  0.00  0.00    +0.000 C 
ATOM      3  O   UNL     1       1.293   4.538  19.999  0.00  0.00    +0.000 OA
ATOM      4  N   UNL     1       3.044   6.082  19.984  0.00  0.00    +0.000 N 
ATOM      5  H   UNL     1       4.056   6.133  19.974  0.00  0.00    +0.000 HD
BRANCH   4   6
ATOM      6  C   UNL     1       2.349   7.256  19.592  0.00  0.00    +0.000 A 
ATOM      7  C   UNL     1       2.441   7.762  18.250  0.00  0.00    +0.000 A 
ATOM      8  C   UNL     1       1.864   8.965  17.796  0.00  0.00    +0.000 A 
ATOM      9  C   UNL     1       1.183   9.593  18.822  0.00  0.00    +0.000 A 
ATOM     10  C   UNL     1       0.559  10.802  18.727  0.00  0.00    +0.000 A 
ATOM     11  N   UNL     1       0.047  11.018  19.972  0.00  0.00    +0.000 N 
ATOM     12  N   UNL     1       0.284  10.025  20.855  0.00  0.00    +0.000 NA
ATOM     13  C   UNL     1       1.011   9.125  20.172  0.00  0.00    +0.000 A 
ATOM     14  C   UNL     1       1.579   7.906  20.590  0.00  0.00    +0.000 A 
ATOM     15  H   UNL     1      -0.473  11.828  20.294  0.00  0.00    +0.000 HD
ENDBRANCH   4   6
ENDBRANCH   1   2
BRANCH   1  16
ATOM     16  C   UNL     1       3.513   2.626  19.602  0.00  0.00    +0.000 C 
BRANCH  16  22
ATOM     17  C   UNL     1       6.629   4.647  14.909  0.00  0.00    +0.000 A 
ATOM     18  N   UNL     1       7.493   4.977  15.850  0.00  0.00    +0.000 NA
ATOM     19  N   UNL     1       7.074   4.564  17.107  0.00  0.00    +0.000 NA
ATOM     20  C   UNL     1       5.894   3.988  17.071  0.00  0.00    +0.000 A 
ATOM     21  N   UNL     1       5.253   3.506  18.187  0.00  0.00    +0.000 N 
ATOM     22  C   UNL     1       3.931   3.114  18.235  0.00  0.00    +0.000 C 
ATOM     23  O   UNL     1       3.123   3.148  17.308  0.00  0.00    +0.000 OA
ATOM     24  S   UNL     1       5.246   3.828  15.502  0.00  0.00    +0.000 S 
ATOM     25  H   UNL     1       5.792   3.574  19.040  0.00  0.00    +0.000 HD
BRANCH  17  27
ATOM     26  C   UNL     1       8.168   5.443  13.104  0.00  0.00    +0.000 C 
ATOM     27  C   UNL     1       6.783   4.893  13.436  0.00  0.00    +0.000 C 
ATOM     28  C   UNL     1       6.499   3.615  12.649  0.00  0.00    +0.000 C 
ENDBRANCH  17  27
ENDBRANCH  16  22
ENDBRANCH   1  16
TORSDOF 5
ENDMDL
MODEL 7
REMARK VINA RESULT:      -8.1      2.507     10.258
REMARK  Name = 
REMARK  7 active torsions:
REMARK  status: ('A' for Active; 'I' for Inactive)
REMARK    1  A    between atoms: C_1  and  C_2
REMARK    2  A    between atoms: C_2  and  C_3
REMARK    3  A    between atoms: C_2  and  C_4
REMARK    4  A    between atoms: C_9  and  C_11
REMARK    5  A    between atoms: C_11  and  C_12
REMARK    6  A    between atoms: C_12  and  C_13
REMARK    7  A    between atoms: N_15  and  C_16
REMARK                            x       y       z     vdW  Elec       q    Type
REMARK                         _______ _______ _______ _____ _____    ______ ____
ROOT
ATOM      1  C   UNL     1       7.275   5.957  17.073  0.00  0.00    +0.000 C 
ENDROOT
BRANCH   1   2
ATOM      2  C   UNL     1       6.346   5.051  17.843  0.00  0.00    +0.000 C 
ATOM      3  O   UNL     1       6.754   4.410  18.808  0.00  0.00    +0.000 OA
ATOM      4  N   UNL     1       5.060   5.029  17.326  0.00  0.00    +0.000 N 
ATOM      5  H   UNL     1       4.918   5.454  16.418  0.00  0.00    +0.000 HD
BRANCH   4   6
ATOM      6  C   UNL     1       3.973   4.280  17.850  0.00  0.00    +0.000 A 
ATOM      7  C   UNL     1       3.520   3.078  17.207  0.00  0.00    +0.000 A 
ATOM      8  C   UNL     1       2.397   2.322  17.598  0.00  0.00    +0.000 A 
ATOM      9  C   UNL     1       1.791   2.894  18.702  0.00  0.00    +0.000 A 
ATOM     10  C   UNL     1       0.650   2.438  19.295  0.00  0.00    +0.000 A 
ATOM     11  N   UNL     1       0.429   3.313  20.318  0.00  0.00    +0.000 N 
ATOM     12  N   UNL     1       1.356   4.287  20.434  0.00  0.00    +0.000 NA
ATOM     13  C   UNL     1       2.214   4.064  19.423  0.00  0.00    +0.000 A 
ATOM     14  C   UNL     1       3.356   4.785  19.022  0.00  0.00    +0.000 A 
ATOM     15  H   UNL     1      -0.343   3.308  20.978  0.00  0.00    +0.000 HD
ENDBRANCH   4   6
ENDBRANCH   1   2
BRANCH   1  16
ATOM     16  C   UNL     1       6.805   7.415  17.152  0.00  0.00    +0.000 C 
BRANCH  16  22
ATOM     17  C   UNL     1      10.004  11.962  19.368  0.00  0.00    +0.000 A 
ATOM     18  N   UNL     1       9.487  12.597  18.334  0.00  0.00    +0.000 NA
ATOM     19  N   UNL     1       8.605  11.797  17.622  0.00  0.00    +0.000 NA
ATOM     20  C   UNL     1       8.532  10.581  18.114  0.00  0.00    +0.000 A 
ATOM     21  N   UNL     1       7.740   9.594  17.578  0.00  0.00    +0.000 N 
ATOM     22  C   UNL     1       7.807   8.256  17.907  0.00  0.00    +0.000 C 
ATOM     23  O   UNL     1       8.584   7.738  18.708  0.00  0.00    +0.000 OA
ATOM     24  S   UNL     1       9.459  10.345  19.525  0.00  0.00    +0.000 S 
ATOM     25  H   UNL     1       7.164   9.897  16.803  0.00  0.00    +0.000 HD
BRANCH  17  27
ATOM     26  C   UNL     1      12.244  13.019  19.722  0.00  0.00    +0.000 C 
ATOM     27  C   UNL     1      10.954  12.536  20.379  0.00  0.00    +0.000 C 
ATOM     28  C   UNL     1      10.284  13.663  21.162  0.00  0.00    +0.000 C 
ENDBRANCH  17  27
ENDBRANCH  16  22
ENDBRANCH   1  16
TORSDOF 5
ENDMDL
MODEL 8
REMARK VINA RESULT:      -8.0      4.603      7.713
REMARK  Name = 
REMARK  7 active torsions:
REMARK  status: ('A' for Active; 'I' for Inactive)
REMARK    1  A    between atoms: C_1  and  C_2
REMARK    2  A    between atoms: C_2  and  C_3
REMARK    3  A    between atoms: C_2  and  C_4
REMARK    4  A    between atoms: C_9  and  C_11
REMARK    5  A    between atoms: C_11  and  C_12
REMARK    6  A    between atoms: C_12  and  C_13
REMARK    7  A    between atoms: N_15  and  C_16
REMARK                            x       y       z     vdW  Elec       q    Type
REMARK                         _______ _______ _______ _____ _____    ______ ____
ROOT
ATOM      1  C   UNL     1       1.763   2.327  18.915  0.00  0.00    +0.000 C 
ENDROOT
BRANCH   1   2
ATOM      2  C   UNL     1       1.556   3.782  18.574  0.00  0.00    +0.000 C 
ATOM      3  O   UNL     1       1.042   4.108  17.508  0.00  0.00    +0.000 OA
ATOM      4  N   UNL     1       2.021   4.640  19.560  0.00  0.00    +0.000 N 
ATOM      5  H   UNL     1       2.593   4.237  20.292  0.00  0.00    +0.000 HD
BRANCH   4   6
ATOM      6  C   UNL     1       1.950   6.057  19.519  0.00  0.00    +0.000 A 
ATOM      7  C   UNL     1       1.479   6.811  20.647  0.00  0.00    +0.000 A 
ATOM      8  C   UNL     1       1.286   8.206  20.667  0.00  0.00    +0.000 A 
ATOM      9  C   UNL     1       1.625   8.759  19.445  0.00  0.00    +0.000 A 
ATOM     10  C   UNL     1       1.502  10.077  19.118  0.00  0.00    +0.000 A 
ATOM     11  N   UNL     1       1.938  10.147  17.827  0.00  0.00    +0.000 N 
ATOM     12  N   UNL     1       2.346   8.970  17.309  0.00  0.00    +0.000 NA
ATOM     13  C   UNL     1       2.145   8.075  18.291  0.00  0.00    +0.000 A 
ATOM     14  C   UNL     1       2.349   6.681  18.310  0.00  0.00    +0.000 A 
ATOM     15  H   UNL     1       1.978  10.970  17.233  0.00  0.00    +0.000 HD
ENDBRANCH   4   6
ENDBRANCH   1   2
BRANCH   1  16
ATOM     16  C   UNL     1       3.051   1.793  18.276  0.00  0.00    +0.000 C 
BRANCH  16  22
ATOM     17  C   UNL     1       6.834   6.290  17.144  0.00  0.00    +0.000 A 
ATOM     18  N   UNL     1       6.424   6.089  15.907  0.00  0.00    +0.000 NA
ATOM     19  N   UNL     1       5.446   5.108  15.838  0.00  0.00    +0.000 NA
ATOM     20  C   UNL     1       5.196   4.574  17.012  0.00  0.00    +0.000 A 
ATOM     21  N   UNL     1       4.278   3.569  17.207  0.00  0.00    +0.000 N 
ATOM     22  C   UNL     1       4.153   2.823  18.361  0.00  0.00    +0.000 C 
ATOM     23  O   UNL     1       4.840   2.923  19.376  0.00  0.00    +0.000 OA
ATOM     24  S   UNL     1       6.065   5.282  18.296  0.00  0.00    +0.000 S 
ATOM     25  H   UNL     1       3.759   3.312  16.378  0.00  0.00    +0.000 HD
BRANCH  17  27
ATOM     26  C   UNL     1       7.272   8.722  17.541  0.00  0.00    +0.000 C 
ATOM     27  C   UNL     1       7.844   7.307  17.591  0.00  0.00    +0.000 C 
ATOM     28  C   UNL     1       8.354   6.974  18.992  0.00  0.00    +0.000 C 
ENDBRANCH  17  27
ENDBRANCH  16  22
ENDBRANCH   1  16
TORSDOF 5
ENDMDL
MODEL 9
REMARK VINA RESULT:      -8.0      2.490     10.153
REMARK  Name = 
REMARK  7 active torsions:
REMARK  status: ('A' for Active; 'I' for Inactive)
REMARK    1  A    between atoms: C_1  and  C_2
REMARK    2  A    between atoms: C_2  and  C_3
REMARK    3  A    between atoms: C_2  and  C_4
REMARK    4  A    between atoms: C_9  and  C_11
REMARK    5  A    between atoms: C_11  and  C_12
REMARK    6  A    between atoms: C_12  and  C_13
REMARK    7  A    between atoms: N_15  and  C_16
REMARK                            x       y       z     vdW  Elec       q    Type
REMARK                         _______ _______ _______ _____ _____    ______ ____
ROOT
ATOM      1  C   UNL     1       7.619   6.231  17.522  0.00  0.00    +0.000 C 
ENDROOT
BRANCH   1   2
ATOM      2  C   UNL     1       6.545   5.396  18.172  0.00  0.00    +0.000 C 
ATOM      3  O   UNL     1       6.839   4.413  18.846  0.00  0.00    +0.000 OA
ATOM      4  N   UNL     1       5.264   5.853  17.898  0.00  0.00    +0.000 N 
ATOM      5  H   UNL     1       5.168   6.555  17.175  0.00  0.00    +0.000 HD
BRANCH   4   6
ATOM      6  C   UNL     1       4.062   5.275  18.384  0.00  0.00    +0.000 A 
ATOM      7  C   UNL     1       3.444   5.748  19.591  0.00  0.00    +0.000 A 
ATOM      8  C   UNL     1       2.307   5.178  20.197  0.00  0.00    +0.000 A 
ATOM      9  C   UNL     1       1.856   4.098  19.460  0.00  0.00    +0.000 A 
ATOM     10  C   UNL     1       0.808   3.295  19.803  0.00  0.00    +0.000 A 
ATOM     11  N   UNL     1       0.746   2.372  18.801  0.00  0.00    +0.000 N 
ATOM     12  N   UNL     1       1.670   2.536  17.830  0.00  0.00    +0.000 NA
ATOM     13  C   UNL     1       2.395   3.598  18.224  0.00  0.00    +0.000 A 
ATOM     14  C   UNL     1       3.519   4.205  17.629  0.00  0.00    +0.000 A 
ATOM     15  H   UNL     1       0.098   1.595  18.716  0.00  0.00    +0.000 HD
ENDBRANCH   4   6
ENDBRANCH   1   2
BRANCH   1  16
ATOM     16  C   UNL     1       7.158   7.685  17.359  0.00  0.00    +0.000 C 
BRANCH  16  22
ATOM     17  C   UNL     1      10.066  12.518  19.356  0.00  0.00    +0.000 A 
ATOM     18  N   UNL     1       9.591  13.046  18.244  0.00  0.00    +0.000 NA
ATOM     19  N   UNL     1       8.780  12.156  17.554  0.00  0.00    +0.000 NA
ATOM     20  C   UNL     1       8.718  10.983  18.143  0.00  0.00    +0.000 A 
ATOM     21  N   UNL     1       7.992   9.926  17.649  0.00  0.00    +0.000 N 
ATOM     22  C   UNL     1       8.084   8.624  18.095  0.00  0.00    +0.000 C 
ATOM     23  O   UNL     1       8.829   8.203  18.979  0.00  0.00    +0.000 OA
ATOM     24  S   UNL     1       9.567  10.901  19.619  0.00  0.00    +0.000 S 
ATOM     25  H   UNL     1       7.453  10.141  16.820  0.00  0.00    +0.000 HD
BRANCH  17  27
ATOM     26  C   UNL     1      11.885  14.203  19.701  0.00  0.00    +0.000 C 
ATOM     27  C   UNL     1      10.935  13.210  20.367  0.00  0.00    +0.000 C 
ATOM     28  C   UNL     1      10.077  13.902  21.425  0.00  0.00    +0.000 C 
ENDBRANCH  17  27
ENDBRANCH  16  22
ENDBRANCH   1  16
TORSDOF 5
ENDMDL
