MODEL 1
REMARK VINA RESULT:      -8.5      0.000      0.000
REMARK  Name = 
REMARK  0 active torsions:
REMARK  status: ('A' for Active; 'I' for Inactive)
REMARK                            x       y       z     vdW  Elec       q    Type
REMARK                         _______ _______ _______ _____ _____    ______ ____
ROOT
ATOM      1  C   UNL     1       8.430  11.383  23.034  0.00  0.00    +0.000 C 
ATOM      2  N   UNL     1       9.472  11.823  22.243  0.00  0.00    +0.000 NA
ATOM      3  C   UNL     1      10.034  11.477  20.750  0.00  0.00    +0.000 A 
ATOM      4  C   UNL     1      11.323  11.961  20.223  0.00  0.00    +0.000 A 
ATOM      5  C   UNL     1      11.645  12.430  18.860  0.00  0.00    +0.000 A 
ATOM      6  C   UNL     1      10.691  12.432  17.885  0.00  0.00    +0.000 A 
ATOM      7  C   UNL     1       9.855  11.323  18.115  0.00  0.00    +0.000 A 
ATOM      8  C   UNL     1       9.481  10.912  19.504  0.00  0.00    +0.000 A 
ATOM      9  C   UNL     1       9.998  13.762  17.450  0.00  0.00    +0.000 A 
ATOM     10  C   UNL     1       8.598  13.624  17.314  0.00  0.00    +0.000 A 
ATOM     11  C   UNL     1       7.887  13.733  18.499  0.00  0.00    +0.000 A 
ATOM     12  C   UNL     1       8.485  14.381  19.572  0.00  0.00    +0.000 A 
ATOM     13  C   UNL     1       9.758  14.950  19.432  0.00  0.00    +0.000 A 
ATOM     14  C   UNL     1      10.398  14.848  18.214  0.00  0.00    +0.000 A 
ATOM     15  N   UNL     1       7.795  14.292  20.750  0.00  0.00    +0.000 NA
ATOM     16  C   UNL     1       8.317  14.763  21.816  0.00  0.00    +0.000 C 
ATOM     17  C   UNL     1       7.385  14.974  22.869  0.00  0.00    +0.000 A 
ATOM     18  C   UNL     1       6.321  14.091  23.028  0.00  0.00    +0.000 A 
ATOM     19  C   UNL     1       5.340  14.410  23.913  0.00  0.00    +0.000 A 
ATOM     20  C   UNL     1       5.401  15.649  24.538  0.00  0.00    +0.000 A 
ATOM     21  C   UNL     1       6.460  16.542  24.339  0.00  0.00    +0.000 A 
ATOM     22  C   UNL     1       7.474  16.201  23.494  0.00  0.00    +0.000 A 
ATOM     23  O   UNL     1       4.328  15.913  25.293  0.00  0.00    +0.000 OA
ATOM     24  C   UNL     1       4.253  17.239  25.808  0.00  0.00    +0.000 C 
ATOM     25  C   UNL     1       3.247  17.040  26.863  0.00  0.00    +0.000 A 
ATOM     26  C   UNL     1       1.966  17.555  26.782  0.00  0.00    +0.000 A 
ATOM     27  C   UNL     1       1.056  16.930  27.635  0.00  0.00    +0.000 A 
ATOM     28  C   UNL     1       1.453  15.773  28.368  0.00  0.00    +0.000 A 
ATOM     29  C   UNL     1       2.773  15.271  28.259  0.00  0.00    +0.000 A 
ATOM     30  N   UNL     1       3.663  16.075  27.707  0.00  0.00    +0.000 NA
ATOM     31  C   UNL     1       3.443  13.939  28.698  0.00  0.00    +0.000 C 
ATOM     32  O   UNL     1       4.888  13.544  28.179  0.00  0.00    +0.000 OA
ATOM     33  C   UNL     1       5.589  12.961  27.106  0.00  0.00    +0.000 A 
ATOM     34  C   UNL     1       5.329  11.919  26.215  0.00  0.00    +0.000 A 
ATOM     35  C   UNL     1       6.304  11.393  25.052  0.00  0.00    +0.000 A 
ATOM     36  C   UNL     1       7.613  11.901  24.636  0.00  0.00    +0.000 A 
ATOM     37  C   UNL     1       7.943  12.795  25.710  0.00  0.00    +0.000 A 
ATOM     38  C   UNL     1       6.954  13.289  26.887  0.00  0.00    +0.000 A 
ENDROOT
TORSDOF 0
ENDMDL
MODEL 2
REMARK VINA RESULT:      -8.2      1.259      1.445
REMARK  Name = 
REMARK  0 active torsions:
REMARK  status: ('A' for Active; 'I' for Inactive)
REMARK                            x       y       z     vdW  Elec       q    Type
REMARK                         _______ _______ _______ _____ _____    ______ ____
ROOT
ATOM      1  C   UNL     1       8.570  11.492  22.204  0.00  0.00    +0.000 C 
ATOM      2  N   UNL     1       9.768  11.775  21.580  0.00  0.00    +0.000 NA
ATOM      3  C   UNL     1      10.331  11.721  20.048  0.00  0.00    +0.000 A 
ATOM      4  C   UNL     1      11.750  11.884  19.687  0.00  0.00    +0.000 A 
ATOM      5  C   UNL     1      12.333  12.601  18.535  0.00  0.00    +0.000 A 
ATOM      6  C   UNL     1      11.527  13.208  17.617  0.00  0.00    +0.000 A 
ATOM      7  C   UNL     1      10.363  12.423  17.498  0.00  0.00    +0.000 A 
ATOM      8  C   UNL     1       9.748  11.767  18.693  0.00  0.00    +0.000 A 
ATOM      9  C   UNL     1      11.336  14.758  17.623  0.00  0.00    +0.000 A 
ATOM     10  C   UNL     1       9.984  15.138  17.463  0.00  0.00    +0.000 A 
ATOM     11  C   UNL     1       9.235  15.120  18.630  0.00  0.00    +0.000 A 
ATOM     12  C   UNL     1       9.903  15.184  19.845  0.00  0.00    +0.000 A 
ATOM     13  C   UNL     1      11.298  15.314  19.878  0.00  0.00    +0.000 A 
ATOM     14  C   UNL     1      11.985  15.371  18.683  0.00  0.00    +0.000 A 
ATOM     15  N   UNL     1       9.111  14.985  20.943  0.00  0.00    +0.000 NA
ATOM     16  C   UNL     1       9.652  14.918  22.098  0.00  0.00    +0.000 C 
ATOM     17  C   UNL     1       8.740  15.104  23.173  0.00  0.00    +0.000 A 
ATOM     18  C   UNL     1       7.440  14.618  23.059  0.00  0.00    +0.000 A 
ATOM     19  C   UNL     1       6.531  14.967  24.008  0.00  0.00    +0.000 A 
ATOM     20  C   UNL     1       6.923  15.872  24.986  0.00  0.00    +0.000 A 
ATOM     21  C   UNL     1       8.224  16.380  25.066  0.00  0.00    +0.000 A 
ATOM     22  C   UNL     1       9.153  15.989  24.148  0.00  0.00    +0.000 A 
ATOM     23  O   UNL     1       5.922  16.240  25.795  0.00  0.00    +0.000 OA
ATOM     24  C   UNL     1       6.224  17.300  26.698  0.00  0.00    +0.000 C 
ATOM     25  C   UNL     1       5.110  17.142  27.647  0.00  0.00    +0.000 A 
ATOM     26  C   UNL     1       4.073  18.053  27.742  0.00  0.00    +0.000 A 
ATOM     27  C   UNL     1       2.935  17.541  28.366  0.00  0.00    +0.000 A 
ATOM     28  C   UNL     1       2.873  16.156  28.700  0.00  0.00    +0.000 A 
ATOM     29  C   UNL     1       3.969  15.301  28.428  0.00  0.00    +0.000 A 
ATOM     30  N   UNL     1       5.116  15.890  28.146  0.00  0.00    +0.000 NA
ATOM     31  C   UNL     1       4.137  13.756  28.425  0.00  0.00    +0.000 C 
ATOM     32  O   UNL     1       5.425  13.077  27.797  0.00  0.00    +0.000 OA
ATOM     33  C   UNL     1       6.002  12.641  26.589  0.00  0.00    +0.000 A 
ATOM     34  C   UNL     1       5.512  12.057  25.421  0.00  0.00    +0.000 A 
ATOM     35  C   UNL     1       6.375  11.607  24.144  0.00  0.00    +0.000 A 
ATOM     36  C   UNL     1       7.811  11.752  23.895  0.00  0.00    +0.000 A 
ATOM     37  C   UNL     1       8.304  12.126  25.190  0.00  0.00    +0.000 A 
ATOM     38  C   UNL     1       7.415  12.548  26.472  0.00  0.00    +0.000 A 
ENDROOT
TORSDOF 0
ENDMDL
MODEL 3
REMARK VINA RESULT:      -7.7      3.976      5.276
REMARK  Name = 
REMARK  0 active torsions:
REMARK  status: ('A' for Active; 'I' for Inactive)
REMARK                            x       y       z     vdW  Elec       q    Type
REMARK                         _______ _______ _______ _____ _____    ______ ____
ROOT
ATOM      1  C   UNL     1       8.035  15.041  22.320  0.00  0.00    +0.000 C 
ATOM      2  N   UNL     1       9.157  15.084  21.519  0.00  0.00    +0.000 NA
ATOM      3  C   UNL     1      10.373  14.057  21.153  0.00  0.00    +0.000 A 
ATOM      4  C   UNL     1      11.585  14.447  20.410  0.00  0.00    +0.000 A 
ATOM      5  C   UNL     1      12.322  13.686  19.380  0.00  0.00    +0.000 A 
ATOM      6  C   UNL     1      11.913  12.436  19.019  0.00  0.00    +0.000 A 
ATOM      7  C   UNL     1      11.384  11.819  20.169  0.00  0.00    +0.000 A 
ATOM      8  C   UNL     1      10.577  12.595  21.161  0.00  0.00    +0.000 A 
ATOM      9  C   UNL     1      11.148  12.203  17.677  0.00  0.00    +0.000 A 
ATOM     10  C   UNL     1      10.032  11.350  17.831  0.00  0.00    +0.000 A 
ATOM     11  C   UNL     1       8.882  11.976  18.287  0.00  0.00    +0.000 A 
ATOM     12  C   UNL     1       8.770  13.350  18.128  0.00  0.00    +0.000 A 
ATOM     13  C   UNL     1       9.781  14.070  17.475  0.00  0.00    +0.000 A 
ATOM     14  C   UNL     1      10.881  13.385  17.003  0.00  0.00    +0.000 A 
ATOM     15  N   UNL     1       7.694  13.912  18.757  0.00  0.00    +0.000 NA
ATOM     16  C   UNL     1       7.565  15.183  18.759  0.00  0.00    +0.000 C 
ATOM     17  C   UNL     1       6.254  15.629  19.081  0.00  0.00    +0.000 A 
ATOM     18  C   UNL     1       5.499  14.921  20.010  0.00  0.00    +0.000 A 
ATOM     19  C   UNL     1       4.188  15.246  20.165  0.00  0.00    +0.000 A 
ATOM     20  C   UNL     1       3.647  16.200  19.315  0.00  0.00    +0.000 A 
ATOM     21  C   UNL     1       4.411  16.879  18.359  0.00  0.00    +0.000 A 
ATOM     22  C   UNL     1       5.739  16.594  18.238  0.00  0.00    +0.000 A 
ATOM     23  O   UNL     1       2.327  16.357  19.469  0.00  0.00    +0.000 OA
ATOM     24  C   UNL     1       1.692  17.188  18.501  0.00  0.00    +0.000 C 
ATOM     25  C   UNL     1       0.424  17.456  19.197  0.00  0.00    +0.000 A 
ATOM     26  C   UNL     1      -0.786  16.932  18.778  0.00  0.00    +0.000 A 
ATOM     27  C   UNL     1      -1.772  16.941  19.765  0.00  0.00    +0.000 A 
ATOM     28  C   UNL     1      -1.436  17.322  21.097  0.00  0.00    +0.000 A 
ATOM     29  C   UNL     1      -0.116  17.720  21.420  0.00  0.00    +0.000 A 
ATOM     30  N   UNL     1       0.677  18.002  20.403  0.00  0.00    +0.000 NA
ATOM     31  C   UNL     1       0.628  17.943  22.766  0.00  0.00    +0.000 C 
ATOM     32  O   UNL     1       2.204  18.114  22.808  0.00  0.00    +0.000 OA
ATOM     33  C   UNL     1       3.422  17.408  22.828  0.00  0.00    +0.000 A 
ATOM     34  C   UNL     1       3.853  16.211  23.400  0.00  0.00    +0.000 A 
ATOM     35  C   UNL     1       5.332  15.591  23.312  0.00  0.00    +0.000 A 
ATOM     36  C   UNL     1       6.507  16.087  22.594  0.00  0.00    +0.000 A 
ATOM     37  C   UNL     1       6.098  17.414  22.230  0.00  0.00    +0.000 A 
ATOM     38  C   UNL     1       4.609  18.028  22.353  0.00  0.00    +0.000 A 
ENDROOT
TORSDOF 0
ENDMDL
MODEL 4
REMARK VINA RESULT:      -7.5      4.418      6.306
REMARK  Name = 
REMARK  0 active torsions:
REMARK  status: ('A' for Active; 'I' for Inactive)
REMARK                            x       y       z     vdW  Elec       q    Type
REMARK                         _______ _______ _______ _____ _____    ______ ____
ROOT
ATOM      1  C   UNL     1       5.914  18.245  20.993  0.00  0.00    +0.000 C 
ATOM      2  N   UNL     1       6.825  18.244  19.957  0.00  0.00    +0.000 NA
ATOM      3  C   UNL     1       8.451  18.327  19.829  0.00  0.00    +0.000 A 
ATOM      4  C   UNL     1       9.167  18.521  18.556  0.00  0.00    +0.000 A 
ATOM      5  C   UNL     1      10.427  17.897  18.101  0.00  0.00    +0.000 A 
ATOM      6  C   UNL     1      11.100  17.029  18.909  0.00  0.00    +0.000 A 
ATOM      7  C   UNL     1      10.918  17.463  20.236  0.00  0.00    +0.000 A 
ATOM      8  C   UNL     1       9.608  18.023  20.693  0.00  0.00    +0.000 A 
ATOM      9  C   UNL     1      11.035  15.489  18.654  0.00  0.00    +0.000 A 
ATOM     10  C   UNL     1      10.837  14.751  19.843  0.00  0.00    +0.000 A 
ATOM     11  C   UNL     1       9.516  14.659  20.255  0.00  0.00    +0.000 A 
ATOM     12  C   UNL     1       8.515  14.870  19.316  0.00  0.00    +0.000 A 
ATOM     13  C   UNL     1       8.845  15.120  17.977  0.00  0.00    +0.000 A 
ATOM     14  C   UNL     1      10.176  15.155  17.619  0.00  0.00    +0.000 A 
ATOM     15  N   UNL     1       7.251  14.936  19.834  0.00  0.00    +0.000 NA
ATOM     16  C   UNL     1       6.276  15.234  19.065  0.00  0.00    +0.000 C 
ATOM     17  C   UNL     1       5.000  14.896  19.594  0.00  0.00    +0.000 A 
ATOM     18  C   UNL     1       4.776  15.007  20.962  0.00  0.00    +0.000 A 
ATOM     19  C   UNL     1       3.621  14.503  21.474  0.00  0.00    +0.000 A 
ATOM     20  C   UNL     1       2.773  13.815  20.618  0.00  0.00    +0.000 A 
ATOM     21  C   UNL     1       3.030  13.679  19.249  0.00  0.00    +0.000 A 
ATOM     22  C   UNL     1       4.160  14.231  18.723  0.00  0.00    +0.000 A 
ATOM     23  O   UNL     1       1.730  13.257  21.244  0.00  0.00    +0.000 OA
ATOM     24  C   UNL     1       0.930  12.389  20.447  0.00  0.00    +0.000 C 
ATOM     25  C   UNL     1      -0.275  12.317  21.289  0.00  0.00    +0.000 A 
ATOM     26  C   UNL     1      -0.641  11.174  21.975  0.00  0.00    +0.000 A 
ATOM     27  C   UNL     1      -1.537  11.411  23.019  0.00  0.00    +0.000 A 
ATOM     28  C   UNL     1      -1.866  12.751  23.378  0.00  0.00    +0.000 A 
ATOM     29  C   UNL     1      -1.314  13.843  22.665  0.00  0.00    +0.000 A 
ATOM     30  N   UNL     1      -0.748  13.561  21.507  0.00  0.00    +0.000 NA
ATOM     31  C   UNL     1      -1.259  15.372  22.939  0.00  0.00    +0.000 C 
ATOM     32  O   UNL     1      -0.313  16.318  22.087  0.00  0.00    +0.000 OA
ATOM     33  C   UNL     1       1.005  16.797  21.971  0.00  0.00    +0.000 A 
ATOM     34  C   UNL     1       2.009  17.137  22.878  0.00  0.00    +0.000 A 
ATOM     35  C   UNL     1       3.470  17.700  22.518  0.00  0.00    +0.000 A 
ATOM     36  C   UNL     1       4.082  17.925  21.207  0.00  0.00    +0.000 A 
ATOM     37  C   UNL     1       2.957  17.797  20.324  0.00  0.00    +0.000 A 
ATOM     38  C   UNL     1       1.486  17.254  20.715  0.00  0.00    +0.000 A 
ENDROOT
TORSDOF 0
ENDMDL
MODEL 5
REMARK VINA RESULT:      -7.5      1.917      3.970
REMARK  Name = 
REMARK  0 active torsions:
REMARK  status: ('A' for Active; 'I' for Inactive)
REMARK                            x       y       z     vdW  Elec       q    Type
REMARK                         _______ _______ _______ _____ _____    ______ ____
ROOT
ATOM      1  C   UNL     1       6.323  15.208  19.141  0.00  0.00    +0.000 C 
ATOM      2  N   UNL     1       7.115  14.132  18.797  0.00  0.00    +0.000 NA
ATOM      3  C   UNL     1       8.485  13.916  17.934  0.00  0.00    +0.000 A 
ATOM      4  C   UNL     1       9.012  12.597  17.543  0.00  0.00    +0.000 A 
ATOM      5  C   UNL     1      10.416  12.138  17.503  0.00  0.00    +0.000 A 
ATOM      6  C   UNL     1      11.430  12.986  17.837  0.00  0.00    +0.000 A 
ATOM      7  C   UNL     1      11.054  14.276  17.416  0.00  0.00    +0.000 A 
ATOM      8  C   UNL     1       9.639  14.745  17.535  0.00  0.00    +0.000 A 
ATOM      9  C   UNL     1      12.141  12.874  19.223  0.00  0.00    +0.000 A 
ATOM     10  C   UNL     1      12.333  14.133  19.836  0.00  0.00    +0.000 A 
ATOM     11  C   UNL     1      11.233  14.617  20.527  0.00  0.00    +0.000 A 
ATOM     12  C   UNL     1      10.261  13.713  20.938  0.00  0.00    +0.000 A 
ATOM     13  C   UNL     1      10.425  12.342  20.696  0.00  0.00    +0.000 A 
ATOM     14  C   UNL     1      11.563  11.917  20.043  0.00  0.00    +0.000 A 
ATOM     15  N   UNL     1       9.131  14.285  21.453  0.00  0.00    +0.000 NA
ATOM     16  C   UNL     1       8.138  13.542  21.758  0.00  0.00    +0.000 C 
ATOM     17  C   UNL     1       7.199  14.162  22.627  0.00  0.00    +0.000 A 
ATOM     18  C   UNL     1       6.947  15.525  22.501  0.00  0.00    +0.000 A 
ATOM     19  C   UNL     1       6.195  16.137  23.454  0.00  0.00    +0.000 A 
ATOM     20  C   UNL     1       5.803  15.389  24.557  0.00  0.00    +0.000 A 
ATOM     21  C   UNL     1       6.096  14.027  24.687  0.00  0.00    +0.000 A 
ATOM     22  C   UNL     1       6.803  13.397  23.705  0.00  0.00    +0.000 A 
ATOM     23  O   UNL     1       5.175  16.114  25.490  0.00  0.00    +0.000 OA
ATOM     24  C   UNL     1       4.914  15.438  26.717  0.00  0.00    +0.000 C 
ATOM     25  C   UNL     1       3.904  16.342  27.288  0.00  0.00    +0.000 A 
ATOM     26  C   UNL     1       4.153  17.146  28.386  0.00  0.00    +0.000 A 
ATOM     27  C   UNL     1       3.257  18.207  28.518  0.00  0.00    +0.000 A 
ATOM     28  C   UNL     1       2.304  18.461  27.488  0.00  0.00    +0.000 A 
ATOM     29  C   UNL     1       2.241  17.626  26.346  0.00  0.00    +0.000 A 
ATOM     30  N   UNL     1       2.874  16.471  26.428  0.00  0.00    +0.000 NA
ATOM     31  C   UNL     1       1.528  17.758  24.971  0.00  0.00    +0.000 C 
ATOM     32  O   UNL     1       1.878  16.779  23.774  0.00  0.00    +0.000 OA
ATOM     33  C   UNL     1       2.784  16.555  22.719  0.00  0.00    +0.000 A 
ATOM     34  C   UNL     1       3.484  17.376  21.836  0.00  0.00    +0.000 A 
ATOM     35  C   UNL     1       4.471  16.895  20.664  0.00  0.00    +0.000 A 
ATOM     36  C   UNL     1       4.893  15.540  20.302  0.00  0.00    +0.000 A 
ATOM     37  C   UNL     1       3.982  14.730  21.060  0.00  0.00    +0.000 A 
ATOM     38  C   UNL     1       2.975  15.240  22.216  0.00  0.00    +0.000 A 
ENDROOT
TORSDOF 0
ENDMDL
MODEL 6
REMARK VINA RESULT:      -7.4      5.075     10.625
REMARK  Name = 
REMARK  0 active torsions:
REMARK  status: ('A' for Active; 'I' for Inactive)
REMARK                            x       y       z     vdW  Elec       q    Type
REMARK                         _______ _______ _______ _____ _____    ______ ____
ROOT
ATOM      1  C   UNL     1      -0.263  15.425  19.369  0.00  0.00    +0.000 C 
ATOM      2  N   UNL     1      -1.089  16.217  20.139  0.00  0.00    +0.000 NA
ATOM      3  C   UNL     1      -2.558  16.047  20.832  0.00  0.00    +0.000 A 
ATOM      4  C   UNL     1      -3.314  17.157  21.440  0.00  0.00    +0.000 A 
ATOM      5  C   UNL     1      -4.132  17.153  22.671  0.00  0.00    +0.000 A 
ATOM      6  C   UNL     1      -4.282  16.009  23.397  0.00  0.00    +0.000 A 
ATOM      7  C   UNL     1      -4.294  14.934  22.488  0.00  0.00    +0.000 A 
ATOM      8  C   UNL     1      -3.403  14.926  21.287  0.00  0.00    +0.000 A 
ATOM      9  C   UNL     1      -3.493  15.799  24.728  0.00  0.00    +0.000 A 
ATOM     10  C   UNL     1      -2.932  14.506  24.828  0.00  0.00    +0.000 A 
ATOM     11  C   UNL     1      -1.718  14.348  24.175  0.00  0.00    +0.000 A 
ATOM     12  C   UNL     1      -0.968  15.482  23.894  0.00  0.00    +0.000 A 
ATOM     13  C   UNL     1      -1.414  16.744  24.308  0.00  0.00    +0.000 A 
ATOM     14  C   UNL     1      -2.607  16.832  24.993  0.00  0.00    +0.000 A 
ATOM     15  N   UNL     1       0.123  15.261  23.098  0.00  0.00    +0.000 NA
ATOM     16  C   UNL     1       0.814  16.257  22.696  0.00  0.00    +0.000 C 
ATOM     17  C   UNL     1       2.109  15.908  22.224  0.00  0.00    +0.000 A 
ATOM     18  C   UNL     1       2.289  14.705  21.548  0.00  0.00    +0.000 A 
ATOM     19  C   UNL     1       3.557  14.299  21.273  0.00  0.00    +0.000 A 
ATOM     20  C   UNL     1       4.609  15.057  21.771  0.00  0.00    +0.000 A 
ATOM     21  C   UNL     1       4.411  16.246  22.481  0.00  0.00    +0.000 A 
ATOM     22  C   UNL     1       3.141  16.685  22.711  0.00  0.00    +0.000 A 
ATOM     23  O   UNL     1       5.808  14.506  21.548  0.00  0.00    +0.000 OA
ATOM     24  C   UNL     1       6.904  15.147  22.194  0.00  0.00    +0.000 C 
ATOM     25  C   UNL     1       8.018  14.571  21.424  0.00  0.00    +0.000 A 
ATOM     26  C   UNL     1       8.907  13.658  21.962  0.00  0.00    +0.000 A 
ATOM     27  C   UNL     1       9.607  12.926  21.002  0.00  0.00    +0.000 A 
ATOM     28  C   UNL     1       9.262  13.054  19.624  0.00  0.00    +0.000 A 
ATOM     29  C   UNL     1       8.234  13.941  19.220  0.00  0.00    +0.000 A 
ATOM     30  N   UNL     1       7.841  14.829  20.113  0.00  0.00    +0.000 NA
ATOM     31  C   UNL     1       7.458  14.131  17.886  0.00  0.00    +0.000 C 
ATOM     32  O   UNL     1       6.152  15.027  17.825  0.00  0.00    +0.000 OA
ATOM     33  C   UNL     1       4.762  15.025  18.052  0.00  0.00    +0.000 A 
ATOM     34  C   UNL     1       3.743  14.085  17.893  0.00  0.00    +0.000 A 
ATOM     35  C   UNL     1       2.183  14.308  18.200  0.00  0.00    +0.000 A 
ATOM     36  C   UNL     1       1.503  15.483  18.750  0.00  0.00    +0.000 A 
ATOM     37  C   UNL     1       2.526  16.486  18.672  0.00  0.00    +0.000 A 
ATOM     38  C   UNL     1       4.087  16.243  18.333  0.00  0.00    +0.000 A 
ENDROOT
TORSDOF 0
ENDMDL
MODEL 7
REMARK VINA RESULT:      -7.3      5.605     10.354
REMARK  Name = 
REMARK  0 active torsions:
REMARK  status: ('A' for Active; 'I' for Inactive)
REMARK                            x       y       z     vdW  Elec       q    Type
REMARK                         _______ _______ _______ _____ _____    ______ ____
ROOT
ATOM      1  C   UNL     1       0.011  14.876  18.974  0.00  0.00    +0.000 C 
ATOM      2  N   UNL     1      -1.051  15.264  19.764  0.00  0.00    +0.000 NA
ATOM      3  C   UNL     1      -2.493  14.624  20.184  0.00  0.00    +0.000 A 
ATOM      4  C   UNL     1      -3.548  15.367  20.896  0.00  0.00    +0.000 A 
ATOM      5  C   UNL     1      -4.451  14.893  21.965  0.00  0.00    +0.000 A 
ATOM      6  C   UNL     1      -4.387  13.603  22.403  0.00  0.00    +0.000 A 
ATOM      7  C   UNL     1      -4.054  12.800  21.295  0.00  0.00    +0.000 A 
ATOM      8  C   UNL     1      -3.080  13.272  20.263  0.00  0.00    +0.000 A 
ATOM      9  C   UNL     1      -3.698  13.254  23.760  0.00  0.00    +0.000 A 
ATOM     10  C   UNL     1      -2.852  12.126  23.664  0.00  0.00    +0.000 A 
ATOM     11  C   UNL     1      -1.582  12.393  23.178  0.00  0.00    +0.000 A 
ATOM     12  C   UNL     1      -1.105  13.694  23.255  0.00  0.00    +0.000 A 
ATOM     13  C   UNL     1      -1.879  14.695  23.858  0.00  0.00    +0.000 A 
ATOM     14  C   UNL     1      -3.117  14.359  24.364  0.00  0.00    +0.000 A 
ATOM     15  N   UNL     1       0.076  13.910  22.599  0.00  0.00    +0.000 NA
ATOM     16  C   UNL     1       0.540  15.097  22.522  0.00  0.00    +0.000 C 
ATOM     17  C   UNL     1       1.919  15.157  22.182  0.00  0.00    +0.000 A 
ATOM     18  C   UNL     1       2.447  14.218  21.300  0.00  0.00    +0.000 A 
ATOM     19  C   UNL     1       3.795  14.171  21.133  0.00  0.00    +0.000 A 
ATOM     20  C   UNL     1       4.581  14.995  21.928  0.00  0.00    +0.000 A 
ATOM     21  C   UNL     1       4.036  15.908  22.838  0.00  0.00    +0.000 A 
ATOM     22  C   UNL     1       2.682  15.997  22.968  0.00  0.00    +0.000 A 
ATOM     23  O   UNL     1       5.894  14.783  21.772  0.00  0.00    +0.000 OA
ATOM     24  C   UNL     1       6.738  15.469  22.692  0.00  0.00    +0.000 C 
ATOM     25  C   UNL     1       8.024  15.347  21.989  0.00  0.00    +0.000 A 
ATOM     26  C   UNL     1       9.054  14.544  22.445  0.00  0.00    +0.000 A 
ATOM     27  C   UNL     1       9.996  14.231  21.465  0.00  0.00    +0.000 A 
ATOM     28  C   UNL     1       9.760  14.609  20.110  0.00  0.00    +0.000 A 
ATOM     29  C   UNL     1       8.590  15.325  19.757  0.00  0.00    +0.000 A 
ATOM     30  N   UNL     1       7.913  15.869  20.751  0.00  0.00    +0.000 NA
ATOM     31  C   UNL     1       7.919  15.659  18.395  0.00  0.00    +0.000 C 
ATOM     32  O   UNL     1       6.446  16.243  18.335  0.00  0.00    +0.000 OA
ATOM     33  C   UNL     1       5.084  15.889  18.351  0.00  0.00    +0.000 A 
ATOM     34  C   UNL     1       4.342  14.819  17.849  0.00  0.00    +0.000 A 
ATOM     35  C   UNL     1       2.752  14.623  17.965  0.00  0.00    +0.000 A 
ATOM     36  C   UNL     1       1.760  15.457  18.646  0.00  0.00    +0.000 A 
ATOM     37  C   UNL     1       2.513  16.645  18.932  0.00  0.00    +0.000 A 
ATOM     38  C   UNL     1       4.110  16.830  18.781  0.00  0.00    +0.000 A 
ENDROOT
TORSDOF 0
ENDMDL
MODEL 8
REMARK VINA RESULT:      -7.2      3.846      5.627
REMARK  Name = 
REMARK  0 active torsions:
REMARK  status: ('A' for Active; 'I' for Inactive)
REMARK                            x       y       z     vdW  Elec       q    Type
REMARK                         _______ _______ _______ _____ _____    ______ ____
ROOT
ATOM      1  C   UNL     1       7.234  17.762  21.588  0.00  0.00    +0.000 C 
ATOM      2  N   UNL     1       8.098  17.730  20.513  0.00  0.00    +0.000 NA
ATOM      3  C   UNL     1       9.701  17.495  20.307  0.00  0.00    +0.000 A 
ATOM      4  C   UNL     1      10.410  17.727  19.036  0.00  0.00    +0.000 A 
ATOM      5  C   UNL     1      11.497  16.933  18.427  0.00  0.00    +0.000 A 
ATOM      6  C   UNL     1      11.991  15.834  19.064  0.00  0.00    +0.000 A 
ATOM      7  C   UNL     1      11.938  16.091  20.448  0.00  0.00    +0.000 A 
ATOM      8  C   UNL     1      10.789  16.833  21.052  0.00  0.00    +0.000 A 
ATOM      9  C   UNL     1      11.596  14.396  18.598  0.00  0.00    +0.000 A 
ATOM     10  C   UNL     1      11.276  13.545  19.679  0.00  0.00    +0.000 A 
ATOM     11  C   UNL     1       9.976  13.665  20.148  0.00  0.00    +0.000 A 
ATOM     12  C   UNL     1       9.019  14.216  19.306  0.00  0.00    +0.000 A 
ATOM     13  C   UNL     1       9.361  14.591  17.999  0.00  0.00    +0.000 A 
ATOM     14  C   UNL     1      10.660  14.405  17.576  0.00  0.00    +0.000 A 
ATOM     15  N   UNL     1       7.811  14.462  19.898  0.00  0.00    +0.000 NA
ATOM     16  C   UNL     1       6.902  15.066  19.235  0.00  0.00    +0.000 C 
ATOM     17  C   UNL     1       5.597  14.922  19.782  0.00  0.00    +0.000 A 
ATOM     18  C   UNL     1       5.437  14.869  21.163  0.00  0.00    +0.000 A 
ATOM     19  C   UNL     1       4.215  14.543  21.662  0.00  0.00    +0.000 A 
ATOM     20  C   UNL     1       3.218  14.180  20.766  0.00  0.00    +0.000 A 
ATOM     21  C   UNL     1       3.407  14.202  19.380  0.00  0.00    +0.000 A 
ATOM     22  C   UNL     1       4.614  14.582  18.874  0.00  0.00    +0.000 A 
ATOM     23  O   UNL     1       2.097  13.761  21.365  0.00  0.00    +0.000 OA
ATOM     24  C   UNL     1       1.112  13.206  20.498  0.00  0.00    +0.000 C 
ATOM     25  C   UNL     1      -0.059  13.257  21.388  0.00  0.00    +0.000 A 
ATOM     26  C   UNL     1      -0.642  12.124  21.925  0.00  0.00    +0.000 A 
ATOM     27  C   UNL     1      -1.440  12.379  23.040  0.00  0.00    +0.000 A 
ATOM     28  C   UNL     1      -1.470  13.689  23.604  0.00  0.00    +0.000 A 
ATOM     29  C   UNL     1      -0.717  14.739  23.023  0.00  0.00    +0.000 A 
ATOM     30  N   UNL     1      -0.253  14.524  21.807  0.00  0.00    +0.000 NA
ATOM     31  C   UNL     1      -0.332  16.165  23.507  0.00  0.00    +0.000 C 
ATOM     32  O   UNL     1       0.770  17.014  22.747  0.00  0.00    +0.000 OA
ATOM     33  C   UNL     1       2.157  17.224  22.626  0.00  0.00    +0.000 A 
ATOM     34  C   UNL     1       3.233  17.210  23.514  0.00  0.00    +0.000 A 
ATOM     35  C   UNL     1       4.769  17.508  23.156  0.00  0.00    +0.000 A 
ATOM     36  C   UNL     1       5.382  17.797  21.857  0.00  0.00    +0.000 A 
ATOM     37  C   UNL     1       4.233  18.037  21.030  0.00  0.00    +0.000 A 
ATOM     38  C   UNL     1       2.691  17.756  21.422  0.00  0.00    +0.000 A 
ENDROOT
TORSDOF 0
ENDMDL
MODEL 9
REMARK VINA RESULT:      -7.0      4.248      5.744
REMARK  Name = 
REMARK  0 active torsions:
REMARK  status: ('A' for Active; 'I' for Inactive)
REMARK                            x       y       z     vdW  Elec       q    Type
REMARK                         _______ _______ _______ _____ _____    ______ ____
ROOT
ATOM      1  C   UNL     1       8.286  16.742  21.144  0.00  0.00    +0.000 C 
ATOM      2  N   UNL     1       9.197  16.558  20.125  0.00  0.00    +0.000 NA
ATOM      3  C   UNL     1      10.634  15.799  19.963  0.00  0.00    +0.000 A 
ATOM      4  C   UNL     1      11.513  15.943  18.789  0.00  0.00    +0.000 A 
ATOM      5  C   UNL     1      12.321  14.910  18.107  0.00  0.00    +0.000 A 
ATOM      6  C   UNL     1      12.333  13.627  18.568  0.00  0.00    +0.000 A 
ATOM      7  C   UNL     1      12.222  13.683  19.970  0.00  0.00    +0.000 A 
ATOM      8  C   UNL     1      11.339  14.691  20.636  0.00  0.00    +0.000 A 
ATOM      9  C   UNL     1      11.521  12.510  17.839  0.00  0.00    +0.000 A 
ATOM     10  C   UNL     1      10.811  11.682  18.738  0.00  0.00    +0.000 A 
ATOM     11  C   UNL     1       9.590  12.190  19.153  0.00  0.00    +0.000 A 
ATOM     12  C   UNL     1       8.978  13.162  18.372  0.00  0.00    +0.000 A 
ATOM     13  C   UNL     1       9.569  13.576  17.170  0.00  0.00    +0.000 A 
ATOM     14  C   UNL     1      10.762  13.001  16.787  0.00  0.00    +0.000 A 
ATOM     15  N   UNL     1       7.872  13.735  18.936  0.00  0.00    +0.000 NA
ATOM     16  C   UNL     1       7.305  14.713  18.343  0.00  0.00    +0.000 C 
ATOM     17  C   UNL     1       5.979  14.968  18.789  0.00  0.00    +0.000 A 
ATOM     18  C   UNL     1       5.660  14.777  20.130  0.00  0.00    +0.000 A 
ATOM     19  C   UNL     1       4.354  14.840  20.502  0.00  0.00    +0.000 A 
ATOM     20  C   UNL     1       3.397  14.992  19.507  0.00  0.00    +0.000 A 
ATOM     21  C   UNL     1       3.732  15.145  18.157  0.00  0.00    +0.000 A 
ATOM     22  C   UNL     1       5.044  15.138  17.787  0.00  0.00    +0.000 A 
ATOM     23  O   UNL     1       2.142  14.919  19.966  0.00  0.00    +0.000 OA
ATOM     24  C   UNL     1       1.127  14.885  18.967  0.00  0.00    +0.000 C 
ATOM     25  C   UNL     1      -0.044  15.222  19.791  0.00  0.00    +0.000 A 
ATOM     26  C   UNL     1      -1.036  14.307  20.092  0.00  0.00    +0.000 A 
ATOM     27  C   UNL     1      -1.814  14.667  21.193  0.00  0.00    +0.000 A 
ATOM     28  C   UNL     1      -1.453  15.804  21.974  0.00  0.00    +0.000 A 
ATOM     29  C   UNL     1      -0.326  16.588  21.624  0.00  0.00    +0.000 A 
ATOM     30  N   UNL     1       0.166  16.400  20.414  0.00  0.00    +0.000 NA
ATOM     31  C   UNL     1       0.471  17.696  22.367  0.00  0.00    +0.000 C 
ATOM     32  O   UNL     1       1.874  18.195  21.824  0.00  0.00    +0.000 OA
ATOM     33  C   UNL     1       3.252  17.910  21.812  0.00  0.00    +0.000 A 
ATOM     34  C   UNL     1       4.154  17.384  22.737  0.00  0.00    +0.000 A 
ATOM     35  C   UNL     1       5.729  17.162  22.515  0.00  0.00    +0.000 A 
ATOM     36  C   UNL     1       6.541  17.397  21.320  0.00  0.00    +0.000 A 
ATOM     37  C   UNL     1       5.643  18.149  20.490  0.00  0.00    +0.000 A 
ATOM     38  C   UNL     1       4.066  18.385  20.748  0.00  0.00    +0.000 A 
ENDROOT
TORSDOF 0
ENDMDL
