MODEL 1
REMARK VINA RESULT:      -7.3      0.000      0.000
REMARK  Name = 
REMARK  5 active torsions:
REMARK  status: ('A' for Active; 'I' for Inactive)
REMARK    1  A    between atoms: C_1  and  C_2
REMARK    2  A    between atoms: N_4  and  C_5
REMARK    3  A    between atoms: C_5  and  C_6
REMARK    4  A    between atoms: C_10  and  C_11
REMARK    5  A    between atoms: C_14  and  N_15
REMARK                            x       y       z     vdW  Elec       q    Type
REMARK                         _______ _______ _______ _____ _____    ______ ____
ROOT
ATOM      1  C   UNL     1       3.693   6.608  18.192  0.00  0.00    +0.000 A 
ATOM      2  C   UNL     1       4.387   6.556  16.983  0.00  0.00    +0.000 A 
ATOM      3  S   UNL     1       5.369   5.181  17.009  0.00  0.00    +0.000 S 
ATOM      4  C   UNL     1       4.868   4.718  18.547  0.00  0.00    +0.000 A 
ATOM      5  N   UNL     1       3.970   5.589  19.044  0.00  0.00    +0.000 NA
ENDROOT
BRANCH   4   6
ATOM      6  N   UNL     1       5.265   3.506  19.182  0.00  0.00    +0.000 NA
ATOM      7  C   UNL     1       4.530   2.625  19.797  0.00  0.00    +0.000 C 
ATOM      8  N   UNL     1       3.120   2.762  19.986  0.00  0.00    +0.000 N 
ATOM      9  N   UNL     1       5.158   1.458  20.292  0.00  0.00    +0.000 N 
ATOM     10  H   UNL     1       2.563   3.574  19.705  0.00  0.00    +0.000 HD
ATOM     11  H   UNL     1       2.604   2.011  20.467  0.00  0.00    +0.000 HD
ATOM     12  H   UNL     1       6.169   1.311  20.160  0.00  0.00    +0.000 HD
ATOM     13  H   UNL     1       4.604   0.730  20.767  0.00  0.00    +0.000 HD
ENDBRANCH   4   6
BRANCH   1  18
ATOM     14  C   UNL     1       1.207   8.581  20.157  0.00  0.00    +0.000 A 
ATOM     15  C   UNL     1       0.861   9.599  19.258  0.00  0.00    +0.000 A 
ATOM     16  C   UNL     1       1.451   9.629  17.998  0.00  0.00    +0.000 A 
ATOM     17  C   UNL     1       2.373   8.649  17.644  0.00  0.00    +0.000 A 
ATOM     18  C   UNL     1       2.698   7.633  18.559  0.00  0.00    +0.000 A 
ATOM     19  N   UNL     1       2.113   7.629  19.790  0.00  0.00    +0.000 NA
BRANCH  14  20
ATOM     20  C   UNL     1       0.630   8.574  21.543  0.00  0.00    +0.000 C 
BRANCH  20  24
ATOM     21  C   UNL     1      -1.533  11.362  23.033  0.00  0.00    +0.000 C 
ATOM     22  C   UNL     1      -0.517  10.266  22.909  0.00  0.00    +0.000 C 
ATOM     23  O   UNL     1       0.095   9.897  23.902  0.00  0.00    +0.000 OA
ATOM     24  N   UNL     1      -0.295   9.682  21.703  0.00  0.00    +0.000 N 
ATOM     25  H   UNL     1      -0.833  10.017  20.886  0.00  0.00    +0.000 HD
ENDBRANCH  20  24
ENDBRANCH  14  20
ENDBRANCH   1  18
TORSDOF 4
ENDMDL
MODEL 2
REMARK VINA RESULT:      -7.1      2.056      2.713
REMARK  Name = 
REMARK  5 active torsions:
REMARK  status: ('A' for Active; 'I' for Inactive)
REMARK    1  A    between atoms: C_1  and  C_2
REMARK    2  A    between atoms: N_4  and  C_5
REMARK    3  A    between atoms: C_5  and  C_6
REMARK    4  A    between atoms: C_10  and  C_11
REMARK    5  A    between atoms: C_14  and  N_15
REMARK                            x       y       z     vdW  Elec       q    Type
REMARK                         _______ _______ _______ _____ _____    ______ ____
ROOT
ATOM      1  C   UNL     1       3.427   5.821  18.477  0.00  0.00    +0.000 A 
ATOM      2  C   UNL     1       3.928   4.956  19.450  0.00  0.00    +0.000 A 
ATOM      3  S   UNL     1       4.795   3.738  18.664  0.00  0.00    +0.000 S 
ATOM      4  C   UNL     1       4.498   4.364  17.131  0.00  0.00    +0.000 A 
ATOM      5  N   UNL     1       3.749   5.480  17.204  0.00  0.00    +0.000 NA
ENDROOT
BRANCH   4   6
ATOM      6  N   UNL     1       5.059   3.837  15.934  0.00  0.00    +0.000 NA
ATOM      7  C   UNL     1       5.915   4.384  15.121  0.00  0.00    +0.000 C 
ATOM      8  N   UNL     1       6.429   5.708  15.284  0.00  0.00    +0.000 N 
ATOM      9  N   UNL     1       6.377   3.622  14.021  0.00  0.00    +0.000 N 
ATOM     10  H   UNL     1       6.145   6.365  16.016  0.00  0.00    +0.000 HD
ATOM     11  H   UNL     1       7.120   6.064  14.607  0.00  0.00    +0.000 HD
ATOM     12  H   UNL     1       6.046   2.657  13.877  0.00  0.00    +0.000 HD
ATOM     13  H   UNL     1       7.069   4.016  13.368  0.00  0.00    +0.000 HD
ENDBRANCH   4   6
BRANCH   1  18
ATOM     14  C   UNL     1       1.399   8.407  20.247  0.00  0.00    +0.000 A 
ATOM     15  C   UNL     1       1.216   9.373  19.248  0.00  0.00    +0.000 A 
ATOM     16  C   UNL     1       1.765   9.165  17.987  0.00  0.00    +0.000 A 
ATOM     17  C   UNL     1       2.483   8.002  17.730  0.00  0.00    +0.000 A 
ATOM     18  C   UNL     1       2.645   7.042  18.744  0.00  0.00    +0.000 A 
ATOM     19  N   UNL     1       2.106   7.273  19.974  0.00  0.00    +0.000 NA
BRANCH  14  20
ATOM     20  C   UNL     1       0.871   8.648  21.631  0.00  0.00    +0.000 C 
BRANCH  20  24
ATOM     21  C   UNL     1      -1.480  11.476  22.706  0.00  0.00    +0.000 C 
ATOM     22  C   UNL     1      -0.459  10.379  22.765  0.00  0.00    +0.000 C 
ATOM     23  O   UNL     1       0.001  10.041  23.847  0.00  0.00    +0.000 OA
ATOM     24  N   UNL     1      -0.065   9.758  21.622  0.00  0.00    +0.000 N 
ATOM     25  H   UNL     1      -0.478  10.068  20.726  0.00  0.00    +0.000 HD
ENDBRANCH  20  24
ENDBRANCH  14  20
ENDBRANCH   1  18
TORSDOF 4
ENDMDL
MODEL 3
REMARK VINA RESULT:      -7.0      1.595      2.201
REMARK  Name = 
REMARK  5 active torsions:
REMARK  status: ('A' for Active; 'I' for Inactive)
REMARK    1  A    between atoms: C_1  and  C_2
REMARK    2  A    between atoms: N_4  and  C_5
REMARK    3  A    between atoms: C_5  and  C_6
REMARK    4  A    between atoms: C_10  and  C_11
REMARK    5  A    between atoms: C_14  and  N_15
REMARK                            x       y       z     vdW  Elec       q    Type
REMARK                         _______ _______ _______ _____ _____    ______ ____
ROOT
ATOM      1  C   UNL     1       3.054   6.022  18.262  0.00  0.00    +0.000 A 
ATOM      2  C   UNL     1       2.403   4.859  17.853  0.00  0.00    +0.000 A 
ATOM      3  S   UNL     1       3.573   3.662  17.628  0.00  0.00    +0.000 S 
ATOM      4  C   UNL     1       4.847   4.672  18.060  0.00  0.00    +0.000 A 
ATOM      5  N   UNL     1       4.402   5.903  18.370  0.00  0.00    +0.000 NA
ENDROOT
BRANCH   4   6
ATOM      6  N   UNL     1       6.199   4.240  18.184  0.00  0.00    +0.000 NA
ATOM      7  C   UNL     1       7.268   4.726  17.622  0.00  0.00    +0.000 C 
ATOM      8  N   UNL     1       7.253   5.814  16.696  0.00  0.00    +0.000 N 
ATOM      9  N   UNL     1       8.519   4.156  17.959  0.00  0.00    +0.000 N 
ATOM     10  H   UNL     1       6.410   6.281  16.349  0.00  0.00    +0.000 HD
ATOM     11  H   UNL     1       8.145   6.154  16.308  0.00  0.00    +0.000 HD
ATOM     12  H   UNL     1       8.577   3.382  18.638  0.00  0.00    +0.000 HD
ATOM     13  H   UNL     1       9.388   4.527  17.549  0.00  0.00    +0.000 HD
ENDBRANCH   4   6
BRANCH   1  18
ATOM     14  C   UNL     1       1.391   8.728  20.223  0.00  0.00    +0.000 A 
ATOM     15  C   UNL     1       1.189   9.717  19.250  0.00  0.00    +0.000 A 
ATOM     16  C   UNL     1       1.604   9.484  17.942  0.00  0.00    +0.000 A 
ATOM     17  C   UNL     1       2.208   8.275  17.614  0.00  0.00    +0.000 A 
ATOM     18  C   UNL     1       2.391   7.294  18.605  0.00  0.00    +0.000 A 
ATOM     19  N   UNL     1       1.985   7.549  19.881  0.00  0.00    +0.000 NA
BRANCH  14  20
ATOM     20  C   UNL     1       1.011   8.991  21.651  0.00  0.00    +0.000 C 
BRANCH  20  24
ATOM     21  C   UNL     1      -1.570  11.531  22.902  0.00  0.00    +0.000 C 
ATOM     22  C   UNL     1      -0.511  10.469  22.895  0.00  0.00    +0.000 C 
ATOM     23  O   UNL     1      -0.152   9.969  23.952  0.00  0.00    +0.000 OA
ATOM     24  N   UNL     1       0.030  10.060  21.717  0.00  0.00    +0.000 N 
ATOM     25  H   UNL     1      -0.300  10.502  20.843  0.00  0.00    +0.000 HD
ENDBRANCH  20  24
ENDBRANCH  14  20
ENDBRANCH   1  18
TORSDOF 4
ENDMDL
MODEL 4
REMARK VINA RESULT:      -7.0      2.352      3.046
REMARK  Name = 
REMARK  5 active torsions:
REMARK  status: ('A' for Active; 'I' for Inactive)
REMARK    1  A    between atoms: C_1  and  C_2
REMARK    2  A    between atoms: N_4  and  C_5
REMARK    3  A    between atoms: C_5  and  C_6
REMARK    4  A    between atoms: C_10  and  C_11
REMARK    5  A    between atoms: C_14  and  N_15
REMARK                            x       y       z     vdW  Elec       q    Type
REMARK                         _______ _______ _______ _____ _____    ______ ____
ROOT
ATOM      1  C   UNL     1       3.740   6.405  17.868  0.00  0.00    +0.000 A 
ATOM      2  C   UNL     1       3.836   5.097  18.343  0.00  0.00    +0.000 A 
ATOM      3  S   UNL     1       5.072   4.325  17.489  0.00  0.00    +0.000 S 
ATOM      4  C   UNL     1       5.427   5.682  16.560  0.00  0.00    +0.000 A 
ATOM      5  N   UNL     1       4.623   6.711  16.884  0.00  0.00    +0.000 NA
ENDROOT
BRANCH   4   6
ATOM      6  N   UNL     1       6.508   5.752  15.636  0.00  0.00    +0.000 NA
ATOM      7  C   UNL     1       6.694   5.074  14.540  0.00  0.00    +0.000 C 
ATOM      8  N   UNL     1       5.808   4.050  14.082  0.00  0.00    +0.000 N 
ATOM      9  N   UNL     1       7.828   5.376  13.749  0.00  0.00    +0.000 N 
ATOM     10  H   UNL     1       4.979   3.720  14.583  0.00  0.00    +0.000 HD
ATOM     11  H   UNL     1       6.014   3.571  13.193  0.00  0.00    +0.000 HD
ATOM     12  H   UNL     1       8.482   6.120  14.034  0.00  0.00    +0.000 HD
ATOM     13  H   UNL     1       7.996   4.873  12.866  0.00  0.00    +0.000 HD
ENDBRANCH   4   6
BRANCH   1  18
ATOM     14  C   UNL     1       1.428   8.278  20.121  0.00  0.00    +0.000 A 
ATOM     15  C   UNL     1       1.099   9.397  19.343  0.00  0.00    +0.000 A 
ATOM     16  C   UNL     1       1.644   9.527  18.069  0.00  0.00    +0.000 A 
ATOM     17  C   UNL     1       2.503   8.549  17.582  0.00  0.00    +0.000 A 
ATOM     18  C   UNL     1       2.810   7.430  18.376  0.00  0.00    +0.000 A 
ATOM     19  N   UNL     1       2.272   7.328  19.624  0.00  0.00    +0.000 NA
BRANCH  14  20
ATOM     20  C   UNL     1       0.902   8.156  21.522  0.00  0.00    +0.000 C 
BRANCH  20  24
ATOM     21  C   UNL     1      -1.369  10.791  23.127  0.00  0.00    +0.000 C 
ATOM     22  C   UNL     1      -0.234   9.835  22.915  0.00  0.00    +0.000 C 
ATOM     23  O   UNL     1       0.595   9.678  23.801  0.00  0.00    +0.000 OA
ATOM     24  N   UNL     1      -0.141   9.141  21.751  0.00  0.00    +0.000 N 
ATOM     25  H   UNL     1      -0.860   9.297  21.025  0.00  0.00    +0.000 HD
ENDBRANCH  20  24
ENDBRANCH  14  20
ENDBRANCH   1  18
TORSDOF 4
ENDMDL
MODEL 5
REMARK VINA RESULT:      -7.0      5.089      8.322
REMARK  Name = 
REMARK  5 active torsions:
REMARK  status: ('A' for Active; 'I' for Inactive)
REMARK    1  A    between atoms: C_1  and  C_2
REMARK    2  A    between atoms: N_4  and  C_5
REMARK    3  A    between atoms: C_5  and  C_6
REMARK    4  A    between atoms: C_10  and  C_11
REMARK    5  A    between atoms: C_14  and  N_15
REMARK                            x       y       z     vdW  Elec       q    Type
REMARK                         _______ _______ _______ _____ _____    ______ ____
ROOT
ATOM      1  C   UNL     1       4.101   5.330  18.158  0.00  0.00    +0.000 A 
ATOM      2  C   UNL     1       3.514   6.590  18.279  0.00  0.00    +0.000 A 
ATOM      3  S   UNL     1       2.438   6.537  19.580  0.00  0.00    +0.000 S 
ATOM      4  C   UNL     1       2.768   4.925  19.929  0.00  0.00    +0.000 A 
ATOM      5  N   UNL     1       3.678   4.423  19.074  0.00  0.00    +0.000 NA
ENDROOT
BRANCH   4   6
ATOM      6  N   UNL     1       2.231   4.228  21.049  0.00  0.00    +0.000 NA
ATOM      7  C   UNL     1       1.794   3.004  21.119  0.00  0.00    +0.000 C 
ATOM      8  N   UNL     1       1.736   2.118  19.999  0.00  0.00    +0.000 N 
ATOM      9  N   UNL     1       1.367   2.516  22.377  0.00  0.00    +0.000 N 
ATOM     10  H   UNL     1       1.982   2.367  19.037  0.00  0.00    +0.000 HD
ATOM     11  H   UNL     1       1.394   1.156  20.139  0.00  0.00    +0.000 HD
ATOM     12  H   UNL     1       1.410   3.115  23.214  0.00  0.00    +0.000 HD
ATOM     13  H   UNL     1       1.032   1.546  22.473  0.00  0.00    +0.000 HD
ENDBRANCH   4   6
BRANCH   1  18
ATOM     14  C   UNL     1       5.742   4.428  14.929  0.00  0.00    +0.000 A 
ATOM     15  C   UNL     1       7.089   4.316  15.304  0.00  0.00    +0.000 A 
ATOM     16  C   UNL     1       7.451   4.539  16.629  0.00  0.00    +0.000 A 
ATOM     17  C   UNL     1       6.476   4.865  17.565  0.00  0.00    +0.000 A 
ATOM     18  C   UNL     1       5.131   4.961  17.169  0.00  0.00    +0.000 A 
ATOM     19  N   UNL     1       4.801   4.748  15.864  0.00  0.00    +0.000 NA
BRANCH  14  20
ATOM     20  C   UNL     1       5.346   4.257  13.492  0.00  0.00    +0.000 C 
BRANCH  20  24
ATOM     21  C   UNL     1       6.537   1.390  11.247  0.00  0.00    +0.000 C 
ATOM     22  C   UNL     1       5.701   2.503  11.805  0.00  0.00    +0.000 C 
ATOM     23  O   UNL     1       4.615   2.752  11.300  0.00  0.00    +0.000 OA
ATOM     24  N   UNL     1       6.146   3.214  12.874  0.00  0.00    +0.000 N 
ATOM     25  H   UNL     1       7.067   2.974  13.277  0.00  0.00    +0.000 HD
ENDBRANCH  20  24
ENDBRANCH  14  20
ENDBRANCH   1  18
TORSDOF 4
ENDMDL
MODEL 6
REMARK VINA RESULT:      -6.9      5.657      7.728
REMARK  Name = 
REMARK  5 active torsions:
REMARK  status: ('A' for Active; 'I' for Inactive)
REMARK    1  A    between atoms: C_1  and  C_2
REMARK    2  A    between atoms: N_4  and  C_5
REMARK    3  A    between atoms: C_5  and  C_6
REMARK    4  A    between atoms: C_10  and  C_11
REMARK    5  A    between atoms: C_14  and  N_15
REMARK                            x       y       z     vdW  Elec       q    Type
REMARK                         _______ _______ _______ _____ _____    ______ ____
ROOT
ATOM      1  C   UNL     1       4.139   3.752  19.008  0.00  0.00    +0.000 A 
ATOM      2  C   UNL     1       2.828   3.679  19.477  0.00  0.00    +0.000 A 
ATOM      3  S   UNL     1       2.799   2.586  20.765  0.00  0.00    +0.000 S 
ATOM      4  C   UNL     1       4.446   2.260  20.669  0.00  0.00    +0.000 A 
ATOM      5  N   UNL     1       5.019   2.963  19.675  0.00  0.00    +0.000 NA
ENDROOT
BRANCH   4   6
ATOM      6  N   UNL     1       5.149   1.432  21.591  0.00  0.00    +0.000 NA
ATOM      7  C   UNL     1       5.739   0.291  21.382  0.00  0.00    +0.000 C 
ATOM      8  N   UNL     1       5.740  -0.382  20.121  0.00  0.00    +0.000 N 
ATOM      9  N   UNL     1       6.434  -0.311  22.458  0.00  0.00    +0.000 N 
ATOM     10  H   UNL     1       5.245  -0.064  19.283  0.00  0.00    +0.000 HD
ATOM     11  H   UNL     1       6.247  -1.274  20.030  0.00  0.00    +0.000 HD
ATOM     12  H   UNL     1       6.474   0.150  23.379  0.00  0.00    +0.000 HD
ATOM     13  H   UNL     1       6.929  -1.204  22.324  0.00  0.00    +0.000 HD
ENDBRANCH   4   6
BRANCH   1  18
ATOM     14  C   UNL     1       5.898   4.943  15.939  0.00  0.00    +0.000 A 
ATOM     15  C   UNL     1       5.438   6.263  15.828  0.00  0.00    +0.000 A 
ATOM     16  C   UNL     1       4.545   6.757  16.774  0.00  0.00    +0.000 A 
ATOM     17  C   UNL     1       4.123   5.941  17.818  0.00  0.00    +0.000 A 
ATOM     18  C   UNL     1       4.606   4.624  17.915  0.00  0.00    +0.000 A 
ATOM     19  N   UNL     1       5.473   4.159  16.971  0.00  0.00    +0.000 NA
BRANCH  14  20
ATOM     20  C   UNL     1       6.808   4.374  14.889  0.00  0.00    +0.000 C 
BRANCH  20  24
ATOM     21  C   UNL     1       5.418   2.703  11.735  0.00  0.00    +0.000 C 
ATOM     22  C   UNL     1       6.271   3.543  12.638  0.00  0.00    +0.000 C 
ATOM     23  O   UNL     1       7.149   4.245  12.156  0.00  0.00    +0.000 OA
ATOM     24  N   UNL     1       6.053   3.531  13.979  0.00  0.00    +0.000 N 
ATOM     25  H   UNL     1       5.300   2.928  14.351  0.00  0.00    +0.000 HD
ENDBRANCH  20  24
ENDBRANCH  14  20
ENDBRANCH   1  18
TORSDOF 4
ENDMDL
MODEL 7
REMARK VINA RESULT:      -6.9      2.968      4.104
REMARK  Name = 
REMARK  5 active torsions:
REMARK  status: ('A' for Active; 'I' for Inactive)
REMARK    1  A    between atoms: C_1  and  C_2
REMARK    2  A    between atoms: N_4  and  C_5
REMARK    3  A    between atoms: C_5  and  C_6
REMARK    4  A    between atoms: C_10  and  C_11
REMARK    5  A    between atoms: C_14  and  N_15
REMARK                            x       y       z     vdW  Elec       q    Type
REMARK                         _______ _______ _______ _____ _____    ______ ____
ROOT
ATOM      1  C   UNL     1       4.973   4.774  18.294  0.00  0.00    +0.000 A 
ATOM      2  C   UNL     1       6.305   5.046  18.604  0.00  0.00    +0.000 A 
ATOM      3  S   UNL     1       7.248   4.603  17.274  0.00  0.00    +0.000 S 
ATOM      4  C   UNL     1       5.926   4.091  16.369  0.00  0.00    +0.000 A 
ATOM      5  N   UNL     1       4.781   4.247  17.058  0.00  0.00    +0.000 NA
ENDROOT
BRANCH   4   6
ATOM      6  N   UNL     1       6.009   3.655  15.016  0.00  0.00    +0.000 NA
ATOM      7  C   UNL     1       6.657   4.190  14.022  0.00  0.00    +0.000 C 
ATOM      8  N   UNL     1       7.401   5.406  14.123  0.00  0.00    +0.000 N 
ATOM      9  N   UNL     1       6.638   3.523  12.773  0.00  0.00    +0.000 N 
ATOM     10  H   UNL     1       7.459   5.993  14.960  0.00  0.00    +0.000 HD
ATOM     11  H   UNL     1       7.904   5.756  13.294  0.00  0.00    +0.000 HD
ATOM     12  H   UNL     1       6.129   2.634  12.662  0.00  0.00    +0.000 HD
ATOM     13  H   UNL     1       7.155   3.908  11.970  0.00  0.00    +0.000 HD
ENDBRANCH   4   6
BRANCH   1  18
ATOM     14  C   UNL     1       2.256   6.594  20.094  0.00  0.00    +0.000 A 
ATOM     15  C   UNL     1       1.614   5.557  20.784  0.00  0.00    +0.000 A 
ATOM     16  C   UNL     1       2.085   4.254  20.654  0.00  0.00    +0.000 A 
ATOM     17  C   UNL     1       3.186   3.995  19.845  0.00  0.00    +0.000 A 
ATOM     18  C   UNL     1       3.820   5.052  19.170  0.00  0.00    +0.000 A 
ATOM     19  N   UNL     1       3.336   6.319  19.306  0.00  0.00    +0.000 NA
BRANCH  14  20
ATOM     20  C   UNL     1       1.719   7.993  20.171  0.00  0.00    +0.000 C 
BRANCH  20  24
ATOM     21  C   UNL     1       0.024   9.494  23.261  0.00  0.00    +0.000 C 
ATOM     22  C   UNL     1       0.319   9.144  21.833  0.00  0.00    +0.000 C 
ATOM     23  O   UNL     1      -0.366   9.624  20.941  0.00  0.00    +0.000 OA
ATOM     24  N   UNL     1       1.352   8.312  21.539  0.00  0.00    +0.000 N 
ATOM     25  H   UNL     1       1.912   7.927  22.318  0.00  0.00    +0.000 HD
ENDBRANCH  20  24
ENDBRANCH  14  20
ENDBRANCH   1  18
TORSDOF 4
ENDMDL
MODEL 8
REMARK VINA RESULT:      -6.9      3.095      4.381
REMARK  Name = 
REMARK  5 active torsions:
REMARK  status: ('A' for Active; 'I' for Inactive)
REMARK    1  A    between atoms: C_1  and  C_2
REMARK    2  A    between atoms: N_4  and  C_5
REMARK    3  A    between atoms: C_5  and  C_6
REMARK    4  A    between atoms: C_10  and  C_11
REMARK    5  A    between atoms: C_14  and  N_15
REMARK                            x       y       z     vdW  Elec       q    Type
REMARK                         _______ _______ _______ _____ _____    ______ ____
ROOT
ATOM      1  C   UNL     1       5.208   5.009  18.286  0.00  0.00    +0.000 A 
ATOM      2  C   UNL     1       6.284   5.300  19.123  0.00  0.00    +0.000 A 
ATOM      3  S   UNL     1       7.630   5.607  18.149  0.00  0.00    +0.000 S 
ATOM      4  C   UNL     1       6.786   5.358  16.716  0.00  0.00    +0.000 A 
ATOM      5  N   UNL     1       5.501   5.043  16.961  0.00  0.00    +0.000 NA
ENDROOT
BRANCH   4   6
ATOM      6  N   UNL     1       7.341   5.563  15.420  0.00  0.00    +0.000 NA
ATOM      7  C   UNL     1       7.140   4.885  14.327  0.00  0.00    +0.000 C 
ATOM      8  N   UNL     1       6.312   3.723  14.255  0.00  0.00    +0.000 N 
ATOM      9  N   UNL     1       7.764   5.333  13.138  0.00  0.00    +0.000 N 
ATOM     10  H   UNL     1       5.839   3.286  15.051  0.00  0.00    +0.000 HD
ATOM     11  H   UNL     1       6.187   3.252  13.347  0.00  0.00    +0.000 HD
ATOM     12  H   UNL     1       8.355   6.177  13.141  0.00  0.00    +0.000 HD
ATOM     13  H   UNL     1       7.612   4.832  12.250  0.00  0.00    +0.000 HD
ENDBRANCH   4   6
BRANCH   1  18
ATOM     14  C   UNL     1       1.957   5.251  20.104  0.00  0.00    +0.000 A 
ATOM     15  C   UNL     1       1.221   4.201  19.535  0.00  0.00    +0.000 A 
ATOM     16  C   UNL     1       1.807   3.412  18.549  0.00  0.00    +0.000 A 
ATOM     17  C   UNL     1       3.111   3.670  18.143  0.00  0.00    +0.000 A 
ATOM     18  C   UNL     1       3.833   4.721  18.734  0.00  0.00    +0.000 A 
ATOM     19  N   UNL     1       3.236   5.486  19.692  0.00  0.00    +0.000 NA
BRANCH  14  20
ATOM     20  C   UNL     1       1.316   6.153  21.119  0.00  0.00    +0.000 C 
BRANCH  20  24
ATOM     21  C   UNL     1       0.988   9.939  20.637  0.00  0.00    +0.000 C 
ATOM     22  C   UNL     1       0.691   8.530  21.057  0.00  0.00    +0.000 C 
ATOM     23  O   UNL     1      -0.363   8.280  21.624  0.00  0.00    +0.000 OA
ATOM     24  N   UNL     1       1.585   7.542  20.791  0.00  0.00    +0.000 N 
ATOM     25  H   UNL     1       2.464   7.789  20.308  0.00  0.00    +0.000 HD
ENDBRANCH  20  24
ENDBRANCH  14  20
ENDBRANCH   1  18
TORSDOF 4
ENDMDL
MODEL 9
REMARK VINA RESULT:      -6.9      4.257      8.200
REMARK  Name = 
REMARK  5 active torsions:
REMARK  status: ('A' for Active; 'I' for Inactive)
REMARK    1  A    between atoms: C_1  and  C_2
REMARK    2  A    between atoms: N_4  and  C_5
REMARK    3  A    between atoms: C_5  and  C_6
REMARK    4  A    between atoms: C_10  and  C_11
REMARK    5  A    between atoms: C_14  and  N_15
REMARK                            x       y       z     vdW  Elec       q    Type
REMARK                         _______ _______ _______ _____ _____    ______ ____
ROOT
ATOM      1  C   UNL     1       1.829   8.067  19.564  0.00  0.00    +0.000 A 
ATOM      2  C   UNL     1       1.415   8.108  20.895  0.00  0.00    +0.000 A 
ATOM      3  S   UNL     1       0.542   9.537  21.122  0.00  0.00    +0.000 S 
ATOM      4  C   UNL     1       0.728  10.033  19.525  0.00  0.00    +0.000 A 
ATOM      5  N   UNL     1       1.443   9.136  18.822  0.00  0.00    +0.000 NA
ENDROOT
BRANCH   4   6
ATOM      6  N   UNL     1       0.113  11.194  18.976  0.00  0.00    +0.000 NA
ATOM      7  C   UNL     1      -0.770  11.281  18.025  0.00  0.00    +0.000 C 
ATOM      8  N   UNL     1      -1.266  10.154  17.298  0.00  0.00    +0.000 N 
ATOM      9  N   UNL     1      -1.283  12.560  17.700  0.00  0.00    +0.000 N 
ATOM     10  H   UNL     1      -0.946   9.189  17.417  0.00  0.00    +0.000 HD
ATOM     11  H   UNL     1      -1.981  10.302  16.570  0.00  0.00    +0.000 HD
ATOM     12  H   UNL     1      -0.967  13.396  18.212  0.00  0.00    +0.000 HD
ATOM     13  H   UNL     1      -1.998  12.663  16.966  0.00  0.00    +0.000 HD
ENDBRANCH   4   6
BRANCH   1  18
ATOM     14  C   UNL     1       4.205   6.207  17.367  0.00  0.00    +0.000 A 
ATOM     15  C   UNL     1       4.045   4.886  17.809  0.00  0.00    +0.000 A 
ATOM     16  C   UNL     1       3.146   4.614  18.836  0.00  0.00    +0.000 A 
ATOM     17  C   UNL     1       2.416   5.650  19.408  0.00  0.00    +0.000 A 
ATOM     18  C   UNL     1       2.586   6.965  18.941  0.00  0.00    +0.000 A 
ATOM     19  N   UNL     1       3.479   7.209  17.940  0.00  0.00    +0.000 NA
BRANCH  14  20
ATOM     20  C   UNL     1       5.220   6.526  16.308  0.00  0.00    +0.000 C 
BRANCH  20  24
ATOM     21  C   UNL     1       6.340   3.959  13.694  0.00  0.00    +0.000 C 
ATOM     22  C   UNL     1       6.386   4.987  14.785  0.00  0.00    +0.000 C 
ATOM     23  O   UNL     1       7.469   5.379  15.198  0.00  0.00    +0.000 OA
ATOM     24  N   UNL     1       5.229   5.484  15.296  0.00  0.00    +0.000 N 
ATOM     25  H   UNL     1       4.333   5.131  14.921  0.00  0.00    +0.000 HD
ENDBRANCH  20  24
ENDBRANCH  14  20
ENDBRANCH   1  18
TORSDOF 4
ENDMDL
