MODEL 1
REMARK VINA RESULT:      -8.0      0.000      0.000
REMARK  Name = 
REMARK  4 active torsions:
REMARK  status: ('A' for Active; 'I' for Inactive)
REMARK    1  A    between atoms: C_1  and  C_2
REMARK    2  A    between atoms: C_2  and  C_3
REMARK    3  A    between atoms: C_3  and  C_4
REMARK    4  A    between atoms: C_10  and  N_11
REMARK                            x       y       z     vdW  Elec       q    Type
REMARK                         _______ _______ _______ _____ _____    ______ ____
ROOT
ATOM      1  C   UNL     1      -1.151  13.205  20.429  0.00  0.00    +0.000 C 
ATOM      2  C   UNL     1      -1.996  14.454  20.735  0.00  0.00    +0.000 C 
ATOM      3  C   UNL     1      -1.877  12.433  19.323  0.00  0.00    +0.000 C 
ATOM      4  C   UNL     1      -1.179  11.135  19.071  0.00  0.00    +0.000 C 
ATOM      5  O   UNL     1      -1.134  10.621  17.959  0.00  0.00    +0.000 OA
ATOM      6  C   UNL     1      -0.603  10.483  20.259  0.00  0.00    +0.000 A 
ATOM      7  C   UNL     1      -0.012   9.225  20.138  0.00  0.00    +0.000 A 
ATOM      8  C   UNL     1       0.564   8.610  21.247  0.00  0.00    +0.000 A 
ATOM      9  C   UNL     1       0.463   9.241  22.496  0.00  0.00    +0.000 A 
ATOM     10  C   UNL     1      -0.139  10.502  22.616  0.00  0.00    +0.000 A 
ATOM     11  C   UNL     1      -0.642  11.142  21.485  0.00  0.00    +0.000 A 
ATOM     12  O   UNL     1      -1.137  12.412  21.646  0.00  0.00    +0.000 OA
ENDROOT
BRANCH   8  13
ATOM     13  N   UNL     1       1.245   7.373  21.169  0.00  0.00    +0.000 N 
ATOM     14  C   UNL     1       2.098   6.992  20.155  0.00  0.00    +0.000 C 
ATOM     15  O   UNL     1       2.447   7.737  19.241  0.00  0.00    +0.000 OA
ATOM     16  N   UNL     1       2.561   5.687  20.200  0.00  0.00    +0.000 N 
ATOM     17  C   UNL     1       2.331   4.681  21.257  0.00  0.00    +0.000 C 
ATOM     18  C   UNL     1       1.401   3.563  20.761  0.00  0.00    +0.000 C 
ATOM     19  C   UNL     1       1.873   3.109  19.429  0.00  0.00    +0.000 A 
ATOM     20  N   UNL     1       1.526   1.953  18.865  0.00  0.00    +0.000 NA
ATOM     21  N   UNL     1       2.149   1.989  17.671  0.00  0.00    +0.000 N 
ATOM     22  C   UNL     1       2.896   3.118  17.480  0.00  0.00    +0.000 A 
ATOM     23  C   UNL     1       2.739   3.877  18.619  0.00  0.00    +0.000 A 
ATOM     24  C   UNL     1       3.294   5.201  19.010  0.00  0.00    +0.000 C 
ATOM     25  H   UNL     1       1.234   6.822  22.006  0.00  0.00    +0.000 HD
ATOM     26  H   UNL     1       2.019   1.208  17.037  0.00  0.00    +0.000 HD
ENDBRANCH   8  13
BRANCH   1  28
ATOM     27  C   UNL     1       0.530  14.282  18.745  0.00  0.00    +0.000 C 
ATOM     28  C   UNL     1       0.309  13.629  20.100  0.00  0.00    +0.000 C 
ENDBRANCH   1  28
TORSDOF 2
ENDMDL
MODEL 2
REMARK VINA RESULT:      -7.9      2.977      8.672
REMARK  Name = 
REMARK  4 active torsions:
REMARK  status: ('A' for Active; 'I' for Inactive)
REMARK    1  A    between atoms: C_1  and  C_2
REMARK    2  A    between atoms: C_2  and  C_3
REMARK    3  A    between atoms: C_3  and  C_4
REMARK    4  A    between atoms: C_10  and  N_11
REMARK                            x       y       z     vdW  Elec       q    Type
REMARK                         _______ _______ _______ _____ _____    ______ ____
ROOT
ATOM      1  C   UNL     1       3.409   3.577  18.758  0.00  0.00    +0.000 C 
ATOM      2  C   UNL     1       4.071   2.238  19.128  0.00  0.00    +0.000 C 
ATOM      3  C   UNL     1       4.478   4.431  18.070  0.00  0.00    +0.000 C 
ATOM      4  C   UNL     1       3.937   5.800  17.804  0.00  0.00    +0.000 C 
ATOM      5  O   UNL     1       4.273   6.457  16.826  0.00  0.00    +0.000 OA
ATOM      6  C   UNL     1       3.024   6.331  18.829  0.00  0.00    +0.000 A 
ATOM      7  C   UNL     1       2.541   7.635  18.715  0.00  0.00    +0.000 A 
ATOM      8  C   UNL     1       1.652   8.140  19.661  0.00  0.00    +0.000 A 
ATOM      9  C   UNL     1       1.321   7.345  20.768  0.00  0.00    +0.000 A 
ATOM     10  C   UNL     1       1.815   6.036  20.885  0.00  0.00    +0.000 A 
ATOM     11  C   UNL     1       2.642   5.515  19.892  0.00  0.00    +0.000 A 
ATOM     12  O   UNL     1       3.020   4.201  20.011  0.00  0.00    +0.000 OA
ENDROOT
BRANCH   8  13
ATOM     13  N   UNL     1       1.069   9.424  19.555  0.00  0.00    +0.000 N 
ATOM     14  C   UNL     1       0.857  10.296  20.602  0.00  0.00    +0.000 C 
ATOM     15  O   UNL     1       1.251  10.092  21.749  0.00  0.00    +0.000 OA
ATOM     16  N   UNL     1       0.152  11.451  20.306  0.00  0.00    +0.000 N 
ATOM     17  C   UNL     1      -0.317  11.911  18.983  0.00  0.00    +0.000 C 
ATOM     18  C   UNL     1      -1.848  11.821  18.878  0.00  0.00    +0.000 C 
ATOM     19  C   UNL     1      -2.443  12.420  20.099  0.00  0.00    +0.000 A 
ATOM     20  N   UNL     1      -3.712  12.815  20.198  0.00  0.00    +0.000 NA
ATOM     21  N   UNL     1      -3.806  13.246  21.470  0.00  0.00    +0.000 N 
ATOM     22  C   UNL     1      -2.631  13.157  22.164  0.00  0.00    +0.000 A 
ATOM     23  C   UNL     1      -1.712  12.620  21.291  0.00  0.00    +0.000 A 
ATOM     24  C   UNL     1      -0.271  12.283  21.454  0.00  0.00    +0.000 C 
ATOM     25  H   UNL     1       0.973   9.778  18.622  0.00  0.00    +0.000 HD
ATOM     26  H   UNL     1      -4.704  13.587  21.797  0.00  0.00    +0.000 HD
ENDBRANCH   8  13
BRANCH   1  28
ATOM     27  C   UNL     1       1.019   2.532  18.615  0.00  0.00    +0.000 C 
ATOM     28  C   UNL     1       2.125   3.311  17.921  0.00  0.00    +0.000 C 
ENDBRANCH   1  28
TORSDOF 2
ENDMDL
MODEL 3
REMARK VINA RESULT:      -7.8      3.326      8.553
REMARK  Name = 
REMARK  4 active torsions:
REMARK  status: ('A' for Active; 'I' for Inactive)
REMARK    1  A    between atoms: C_1  and  C_2
REMARK    2  A    between atoms: C_2  and  C_3
REMARK    3  A    between atoms: C_3  and  C_4
REMARK    4  A    between atoms: C_10  and  N_11
REMARK                            x       y       z     vdW  Elec       q    Type
REMARK                         _______ _______ _______ _____ _____    ______ ____
ROOT
ATOM      1  C   UNL     1       3.119   5.210  18.418  0.00  0.00    +0.000 C 
ATOM      2  C   UNL     1       4.059   3.992  18.446  0.00  0.00    +0.000 C 
ATOM      3  C   UNL     1       3.865   6.336  17.696  0.00  0.00    +0.000 C 
ATOM      4  C   UNL     1       3.059   7.594  17.752  0.00  0.00    +0.000 C 
ATOM      5  O   UNL     1       3.072   8.420  16.847  0.00  0.00    +0.000 OA
ATOM      6  C   UNL     1       2.298   7.805  18.995  0.00  0.00    +0.000 A 
ATOM      7  C   UNL     1       1.589   8.992  19.178  0.00  0.00    +0.000 A 
ATOM      8  C   UNL     1       0.840   9.192  20.334  0.00  0.00    +0.000 A 
ATOM      9  C   UNL     1       0.881   8.217  21.342  0.00  0.00    +0.000 A 
ATOM     10  C   UNL     1       1.602   7.027  21.159  0.00  0.00    +0.000 A 
ATOM     11  C   UNL     1       2.284   6.805  19.964  0.00  0.00    +0.000 A 
ATOM     12  O   UNL     1       2.895   5.586  19.803  0.00  0.00    +0.000 OA
ENDROOT
BRANCH   8  13
ATOM     13  N   UNL     1       0.040  10.340  20.540  0.00  0.00    +0.000 N 
ATOM     14  C   UNL     1      -0.233  10.917  21.762  0.00  0.00    +0.000 C 
ATOM     15  O   UNL     1       0.281  10.553  22.818  0.00  0.00    +0.000 OA
ATOM     16  N   UNL     1      -1.147  11.959  21.758  0.00  0.00    +0.000 N 
ATOM     17  C   UNL     1      -1.793  12.592  20.591  0.00  0.00    +0.000 C 
ATOM     18  C   UNL     1      -3.289  12.246  20.533  0.00  0.00    +0.000 C 
ATOM     19  C   UNL     1      -3.877  12.455  21.880  0.00  0.00    +0.000 A 
ATOM     20  N   UNL     1      -5.183  12.580  22.116  0.00  0.00    +0.000 NA
ATOM     21  N   UNL     1      -5.246  12.708  23.455  0.00  0.00    +0.000 N 
ATOM     22  C   UNL     1      -4.021  12.693  24.062  0.00  0.00    +0.000 A 
ATOM     23  C   UNL     1      -3.097  12.530  23.055  0.00  0.00    +0.000 A 
ATOM     24  C   UNL     1      -1.612  12.438  23.080  0.00  0.00    +0.000 C 
ATOM     25  H   UNL     1      -0.190  10.858  19.713  0.00  0.00    +0.000 HD
ATOM     26  H   UNL     1      -6.159  12.801  23.886  0.00  0.00    +0.000 HD
ENDBRANCH   8  13
BRANCH   1  28
ATOM     27  C   UNL     1       1.177   3.471  18.244  0.00  0.00    +0.000 C 
ATOM     28  C   UNL     1       1.754   4.803  17.791  0.00  0.00    +0.000 C 
ENDBRANCH   1  28
TORSDOF 2
ENDMDL
MODEL 4
REMARK VINA RESULT:      -7.7      1.250      2.161
REMARK  Name = 
REMARK  4 active torsions:
REMARK  status: ('A' for Active; 'I' for Inactive)
REMARK    1  A    between atoms: C_1  and  C_2
REMARK    2  A    between atoms: C_2  and  C_3
REMARK    3  A    between atoms: C_3  and  C_4
REMARK    4  A    between atoms: C_10  and  N_11
REMARK                            x       y       z     vdW  Elec       q    Type
REMARK                         _______ _______ _______ _____ _____    ______ ____
ROOT
ATOM      1  C   UNL     1      -1.721  13.089  20.683  0.00  0.00    +0.000 C 
ATOM      2  C   UNL     1      -2.048  14.571  20.428  0.00  0.00    +0.000 C 
ATOM      3  C   UNL     1      -1.286  12.972  22.147  0.00  0.00    +0.000 C 
ATOM      4  C   UNL     1      -0.824  11.577  22.427  0.00  0.00    +0.000 C 
ATOM      5  O   UNL     1      -0.979  11.043  23.519  0.00  0.00    +0.000 OA
ATOM      6  C   UNL     1      -0.113  10.911  21.323  0.00  0.00    +0.000 A 
ATOM      7  C   UNL     1       0.436   9.644  21.520  0.00  0.00    +0.000 A 
ATOM      8  C   UNL     1       1.085   8.989  20.476  0.00  0.00    +0.000 A 
ATOM      9  C   UNL     1       1.247   9.661  19.255  0.00  0.00    +0.000 A 
ATOM     10  C   UNL     1       0.701  10.940  19.063  0.00  0.00    +0.000 A 
ATOM     11  C   UNL     1      -0.013  11.552  20.090  0.00  0.00    +0.000 A 
ATOM     12  O   UNL     1      -0.603  12.761  19.816  0.00  0.00    +0.000 OA
ENDROOT
BRANCH   8  13
ATOM     13  N   UNL     1       1.590   7.674  20.593  0.00  0.00    +0.000 N 
ATOM     14  C   UNL     1       2.404   7.044  19.675  0.00  0.00    +0.000 C 
ATOM     15  O   UNL     1       2.873   7.601  18.684  0.00  0.00    +0.000 OA
ATOM     16  N   UNL     1       2.681   5.708  19.915  0.00  0.00    +0.000 N 
ATOM     17  C   UNL     1       2.291   4.899  21.088  0.00  0.00    +0.000 C 
ATOM     18  C   UNL     1       1.227   3.857  20.709  0.00  0.00    +0.000 C 
ATOM     19  C   UNL     1       1.661   3.163  19.471  0.00  0.00    +0.000 A 
ATOM     20  N   UNL     1       1.169   1.997  19.054  0.00  0.00    +0.000 NA
ATOM     21  N   UNL     1       1.818   1.783  17.893  0.00  0.00    +0.000 N 
ATOM     22  C   UNL     1       2.718   2.765  17.583  0.00  0.00    +0.000 A 
ATOM     23  C   UNL     1       2.642   3.688  18.601  0.00  0.00    +0.000 A 
ATOM     24  C   UNL     1       3.366   4.967  18.832  0.00  0.00    +0.000 C 
ATOM     25  H   UNL     1       1.484   7.250  21.496  0.00  0.00    +0.000 HD
ATOM     26  H   UNL     1       1.595   0.946  17.365  0.00  0.00    +0.000 HD
ENDBRANCH   8  13
BRANCH   1  28
ATOM     27  C   UNL     1      -3.113  11.956  18.786  0.00  0.00    +0.000 C 
ATOM     28  C   UNL     1      -2.936  12.208  20.275  0.00  0.00    +0.000 C 
ENDBRANCH   1  28
TORSDOF 2
ENDMDL
MODEL 5
REMARK VINA RESULT:      -7.7      3.373      8.722
REMARK  Name = 
REMARK  4 active torsions:
REMARK  status: ('A' for Active; 'I' for Inactive)
REMARK    1  A    between atoms: C_1  and  C_2
REMARK    2  A    between atoms: C_2  and  C_3
REMARK    3  A    between atoms: C_3  and  C_4
REMARK    4  A    between atoms: C_10  and  N_11
REMARK                            x       y       z     vdW  Elec       q    Type
REMARK                         _______ _______ _______ _____ _____    ______ ____
ROOT
ATOM      1  C   UNL     1       3.090   5.354  18.465  0.00  0.00    +0.000 C 
ATOM      2  C   UNL     1       4.069   4.167  18.499  0.00  0.00    +0.000 C 
ATOM      3  C   UNL     1       3.793   6.492  17.720  0.00  0.00    +0.000 C 
ATOM      4  C   UNL     1       2.947   7.725  17.767  0.00  0.00    +0.000 C 
ATOM      5  O   UNL     1       2.924   8.539  16.851  0.00  0.00    +0.000 OA
ATOM      6  C   UNL     1       2.192   7.929  19.015  0.00  0.00    +0.000 A 
ATOM      7  C   UNL     1       1.448   9.095  19.190  0.00  0.00    +0.000 A 
ATOM      8  C   UNL     1       0.705   9.287  20.352  0.00  0.00    +0.000 A 
ATOM      9  C   UNL     1       0.788   8.327  21.372  0.00  0.00    +0.000 A 
ATOM     10  C   UNL     1       1.544   7.159  21.197  0.00  0.00    +0.000 A 
ATOM     11  C   UNL     1       2.220   6.942  19.998  0.00  0.00    +0.000 A 
ATOM     12  O   UNL     1       2.868   5.741  19.847  0.00  0.00    +0.000 OA
ENDROOT
BRANCH   8  13
ATOM     13  N   UNL     1      -0.130  10.411  20.550  0.00  0.00    +0.000 N 
ATOM     14  C   UNL     1       0.275  11.631  21.051  0.00  0.00    +0.000 C 
ATOM     15  O   UNL     1       1.448  11.914  21.289  0.00  0.00    +0.000 OA
ATOM     16  N   UNL     1      -0.725  12.559  21.291  0.00  0.00    +0.000 N 
ATOM     17  C   UNL     1      -2.164  12.438  20.984  0.00  0.00    +0.000 C 
ATOM     18  C   UNL     1      -2.992  12.297  22.271  0.00  0.00    +0.000 C 
ATOM     19  C   UNL     1      -2.549  13.334  23.237  0.00  0.00    +0.000 A 
ATOM     20  N   UNL     1      -3.256  13.722  24.297  0.00  0.00    +0.000 NA
ATOM     21  N   UNL     1      -2.458  14.630  24.889  0.00  0.00    +0.000 N 
ATOM     22  C   UNL     1      -1.285  14.843  24.219  0.00  0.00    +0.000 A 
ATOM     23  C   UNL     1      -1.312  14.008  23.126  0.00  0.00    +0.000 A 
ATOM     24  C   UNL     1      -0.333  13.781  22.028  0.00  0.00    +0.000 C 
ATOM     25  H   UNL     1      -1.036  10.356  20.126  0.00  0.00    +0.000 HD
ATOM     26  H   UNL     1      -2.778  15.066  25.747  0.00  0.00    +0.000 HD
ENDBRANCH   8  13
BRANCH   1  28
ATOM     27  C   UNL     1       1.175   3.580  18.378  0.00  0.00    +0.000 C 
ATOM     28  C   UNL     1       1.733   4.895  17.858  0.00  0.00    +0.000 C 
ENDBRANCH   1  28
TORSDOF 2
ENDMDL
MODEL 6
REMARK VINA RESULT:      -7.5      6.808     10.517
REMARK  Name = 
REMARK  4 active torsions:
REMARK  status: ('A' for Active; 'I' for Inactive)
REMARK    1  A    between atoms: C_1  and  C_2
REMARK    2  A    between atoms: C_2  and  C_3
REMARK    3  A    between atoms: C_3  and  C_4
REMARK    4  A    between atoms: C_10  and  N_11
REMARK                            x       y       z     vdW  Elec       q    Type
REMARK                         _______ _______ _______ _____ _____    ______ ____
ROOT
ATOM      1  C   UNL     1       4.778   4.489  17.923  0.00  0.00    +0.000 C 
ATOM      2  C   UNL     1       4.336   3.017  17.995  0.00  0.00    +0.000 C 
ATOM      3  C   UNL     1       4.824   4.872  16.441  0.00  0.00    +0.000 C 
ATOM      4  C   UNL     1       5.376   6.254  16.292  0.00  0.00    +0.000 C 
ATOM      5  O   UNL     1       5.011   7.012  15.401  0.00  0.00    +0.000 OA
ATOM      6  C   UNL     1       6.434   6.620  17.249  0.00  0.00    +0.000 A 
ATOM      7  C   UNL     1       7.075   7.854  17.131  0.00  0.00    +0.000 A 
ATOM      8  C   UNL     1       8.056   8.225  18.047  0.00  0.00    +0.000 A 
ATOM      9  C   UNL     1       8.443   7.305  19.032  0.00  0.00    +0.000 A 
ATOM     10  C   UNL     1       7.803   6.062  19.143  0.00  0.00    +0.000 A 
ATOM     11  C   UNL     1       6.769   5.733  18.269  0.00  0.00    +0.000 A 
ATOM     12  O   UNL     1       6.118   4.543  18.481  0.00  0.00    +0.000 OA
ENDROOT
BRANCH   8  13
ATOM     13  N   UNL     1       8.682   9.493  18.025  0.00  0.00    +0.000 N 
ATOM     14  C   UNL     1       9.077  10.210  19.135  0.00  0.00    +0.000 C 
ATOM     15  O   UNL     1       9.020   9.775  20.283  0.00  0.00    +0.000 OA
ATOM     16  N   UNL     1       9.553  11.490  18.901  0.00  0.00    +0.000 N 
ATOM     17  C   UNL     1       9.781  12.148  17.599  0.00  0.00    +0.000 C 
ATOM     18  C   UNL     1       8.759  13.270  17.361  0.00  0.00    +0.000 C 
ATOM     19  C   UNL     1       8.681  14.108  18.583  0.00  0.00    +0.000 A 
ATOM     20  N   UNL     1       8.169  15.338  18.618  0.00  0.00    +0.000 NA
ATOM     21  N   UNL     1       8.272  15.682  19.915  0.00  0.00    +0.000 N 
ATOM     22  C   UNL     1       8.856  14.718  20.690  0.00  0.00    +0.000 A 
ATOM     23  C   UNL     1       9.140  13.670  19.845  0.00  0.00    +0.000 A 
ATOM     24  C   UNL     1       9.771  12.344  20.091  0.00  0.00    +0.000 C 
ATOM     25  H   UNL     1       9.015   9.795  17.128  0.00  0.00    +0.000 HD
ATOM     26  H   UNL     1       7.922  16.591  20.201  0.00  0.00    +0.000 HD
ENDBRANCH   8  13
BRANCH   1  28
ATOM     27  C   UNL     1       2.434   5.587  18.277  0.00  0.00    +0.000 C 
ATOM     28  C   UNL     1       3.840   5.360  18.809  0.00  0.00    +0.000 C 
ENDBRANCH   1  28
TORSDOF 2
ENDMDL
MODEL 7
REMARK VINA RESULT:      -7.5      7.180      8.467
REMARK  Name = 
REMARK  4 active torsions:
REMARK  status: ('A' for Active; 'I' for Inactive)
REMARK    1  A    between atoms: C_1  and  C_2
REMARK    2  A    between atoms: C_2  and  C_3
REMARK    3  A    between atoms: C_3  and  C_4
REMARK    4  A    between atoms: C_10  and  N_11
REMARK                            x       y       z     vdW  Elec       q    Type
REMARK                         _______ _______ _______ _____ _____    ______ ____
ROOT
ATOM      1  C   UNL     1       9.567  14.851  20.639  0.00  0.00    +0.000 C 
ATOM      2  C   UNL     1      10.260  16.210  20.840  0.00  0.00    +0.000 C 
ATOM      3  C   UNL     1       9.603  14.126  21.987  0.00  0.00    +0.000 C 
ATOM      4  C   UNL     1       9.065  12.739  21.830  0.00  0.00    +0.000 C 
ATOM      5  O   UNL     1       8.447  12.172  22.724  0.00  0.00    +0.000 OA
ATOM      6  C   UNL     1       9.382  12.076  20.554  0.00  0.00    +0.000 A 
ATOM      7  C   UNL     1       9.002  10.750  20.352  0.00  0.00    +0.000 A 
ATOM      8  C   UNL     1       9.268  10.120  19.139  0.00  0.00    +0.000 A 
ATOM      9  C   UNL     1       9.997  10.816  18.163  0.00  0.00    +0.000 A 
ATOM     10  C   UNL     1      10.385  12.148  18.372  0.00  0.00    +0.000 A 
ATOM     11  C   UNL     1      10.044  12.792  19.560  0.00  0.00    +0.000 A 
ATOM     12  O   UNL     1      10.369  14.121  19.673  0.00  0.00    +0.000 OA
ENDROOT
BRANCH   8  13
ATOM     13  N   UNL     1       8.838   8.804  18.848  0.00  0.00    +0.000 N 
ATOM     14  C   UNL     1       7.915   8.459  17.884  0.00  0.00    +0.000 C 
ATOM     15  O   UNL     1       7.430   9.260  17.086  0.00  0.00    +0.000 OA
ATOM     16  N   UNL     1       7.533   7.128  17.848  0.00  0.00    +0.000 N 
ATOM     17  C   UNL     1       8.066   6.011  18.654  0.00  0.00    +0.000 C 
ATOM     18  C   UNL     1       7.029   5.525  19.678  0.00  0.00    +0.000 C 
ATOM     19  C   UNL     1       5.725   5.354  18.989  0.00  0.00    +0.000 A 
ATOM     20  N   UNL     1       4.710   4.640  19.473  0.00  0.00    +0.000 NA
ATOM     21  N   UNL     1       3.746   4.800  18.546  0.00  0.00    +0.000 N 
ATOM     22  C   UNL     1       4.134   5.572  17.485  0.00  0.00    +0.000 A 
ATOM     23  C   UNL     1       5.431   5.951  17.743  0.00  0.00    +0.000 A 
ATOM     24  C   UNL     1       6.389   6.789  16.971  0.00  0.00    +0.000 C 
ATOM     25  H   UNL     1       9.383   8.071  19.260  0.00  0.00    +0.000 HD
ATOM     26  H   UNL     1       2.848   4.355  18.703  0.00  0.00    +0.000 HD
ENDBRANCH   8  13
BRANCH   1  28
ATOM     27  C   UNL     1       7.113  15.683  20.964  0.00  0.00    +0.000 C 
ATOM     28  C   UNL     1       8.149  15.071  20.036  0.00  0.00    +0.000 C 
ENDBRANCH   1  28
TORSDOF 2
ENDMDL
MODEL 8
REMARK VINA RESULT:      -7.5      3.128      8.666
REMARK  Name = 
REMARK  4 active torsions:
REMARK  status: ('A' for Active; 'I' for Inactive)
REMARK    1  A    between atoms: C_1  and  C_2
REMARK    2  A    between atoms: C_2  and  C_3
REMARK    3  A    between atoms: C_3  and  C_4
REMARK    4  A    between atoms: C_10  and  N_11
REMARK                            x       y       z     vdW  Elec       q    Type
REMARK                         _______ _______ _______ _____ _____    ______ ____
ROOT
ATOM      1  C   UNL     1       3.863   4.557  18.420  0.00  0.00    +0.000 C 
ATOM      2  C   UNL     1       4.193   3.388  17.476  0.00  0.00    +0.000 C 
ATOM      3  C   UNL     1       2.913   4.013  19.491  0.00  0.00    +0.000 C 
ATOM      4  C   UNL     1       2.445   5.131  20.367  0.00  0.00    +0.000 C 
ATOM      5  O   UNL     1       2.201   4.972  21.557  0.00  0.00    +0.000 OA
ATOM      6  C   UNL     1       2.235   6.422  19.689  0.00  0.00    +0.000 A 
ATOM      7  C   UNL     1       1.712   7.500  20.404  0.00  0.00    +0.000 A 
ATOM      8  C   UNL     1       1.537   8.734  19.783  0.00  0.00    +0.000 A 
ATOM      9  C   UNL     1       1.816   8.847  18.413  0.00  0.00    +0.000 A 
ATOM     10  C   UNL     1       2.335   7.758  17.696  0.00  0.00    +0.000 A 
ATOM     11  C   UNL     1       2.579   6.551  18.346  0.00  0.00    +0.000 A 
ATOM     12  O   UNL     1       3.172   5.550  17.617  0.00  0.00    +0.000 OA
ENDROOT
BRANCH   8  13
ATOM     13  N   UNL     1       1.085   9.882  20.476  0.00  0.00    +0.000 N 
ATOM     14  C   UNL     1       0.263   9.877  21.583  0.00  0.00    +0.000 C 
ATOM     15  O   UNL     1      -0.094   8.852  22.163  0.00  0.00    +0.000 OA
ATOM     16  N   UNL     1      -0.169  11.114  22.032  0.00  0.00    +0.000 N 
ATOM     17  C   UNL     1       0.222  12.447  21.530  0.00  0.00    +0.000 C 
ATOM     18  C   UNL     1      -0.944  13.121  20.791  0.00  0.00    +0.000 C 
ATOM     19  C   UNL     1      -2.168  12.999  21.622  0.00  0.00    +0.000 A 
ATOM     20  N   UNL     1      -3.261  13.744  21.461  0.00  0.00    +0.000 NA
ATOM     21  N   UNL     1      -4.106  13.262  22.391  0.00  0.00    +0.000 N 
ATOM     22  C   UNL     1      -3.569  12.256  23.147  0.00  0.00    +0.000 A 
ATOM     23  C   UNL     1      -2.294  12.059  22.669  0.00  0.00    +0.000 A 
ATOM     24  C   UNL     1      -1.220  11.111  23.075  0.00  0.00    +0.000 C 
ATOM     25  H   UNL     1       1.549  10.738  20.239  0.00  0.00    +0.000 HD
ATOM     26  H   UNL     1      -5.034  13.667  22.454  0.00  0.00    +0.000 HD
ENDBRANCH   8  13
BRANCH   1  28
ATOM     27  C   UNL     1       6.306   5.348  17.943  0.00  0.00    +0.000 C 
ATOM     28  C   UNL     1       5.182   5.186  18.954  0.00  0.00    +0.000 C 
ENDBRANCH   1  28
TORSDOF 2
ENDMDL
MODEL 9
REMARK VINA RESULT:      -7.4      3.185      8.691
REMARK  Name = 
REMARK  4 active torsions:
REMARK  status: ('A' for Active; 'I' for Inactive)
REMARK    1  A    between atoms: C_1  and  C_2
REMARK    2  A    between atoms: C_2  and  C_3
REMARK    3  A    between atoms: C_3  and  C_4
REMARK    4  A    between atoms: C_10  and  N_11
REMARK                            x       y       z     vdW  Elec       q    Type
REMARK                         _______ _______ _______ _____ _____    ______ ____
ROOT
ATOM      1  C   UNL     1       3.320   4.740  18.600  0.00  0.00    +0.000 C 
ATOM      2  C   UNL     1       4.157   3.485  18.903  0.00  0.00    +0.000 C 
ATOM      3  C   UNL     1       4.232   5.715  17.848  0.00  0.00    +0.000 C 
ATOM      4  C   UNL     1       3.520   7.013  17.639  0.00  0.00    +0.000 C 
ATOM      5  O   UNL     1       3.706   7.710  16.648  0.00  0.00    +0.000 OA
ATOM      6  C   UNL     1       2.628   7.431  18.734  0.00  0.00    +0.000 A 
ATOM      7  C   UNL     1       1.992   8.671  18.672  0.00  0.00    +0.000 A 
ATOM      8  C   UNL     1       1.123   9.066  19.686  0.00  0.00    +0.000 A 
ATOM      9  C   UNL     1       0.967   8.233  20.804  0.00  0.00    +0.000 A 
ATOM     10  C   UNL     1       1.614   6.989  20.867  0.00  0.00    +0.000 A 
ATOM     11  C   UNL     1       2.420   6.572  19.811  0.00  0.00    +0.000 A 
ATOM     12  O   UNL     1       2.955   5.309  19.885  0.00  0.00    +0.000 OA
ENDROOT
BRANCH   8  13
ATOM     13  N   UNL     1       0.390  10.275  19.639  0.00  0.00    +0.000 N 
ATOM     14  C   UNL     1       0.441  11.279  20.583  0.00  0.00    +0.000 C 
ATOM     15  O   UNL     1       1.218  11.280  21.536  0.00  0.00    +0.000 OA
ATOM     16  N   UNL     1      -0.454  12.323  20.417  0.00  0.00    +0.000 N 
ATOM     17  C   UNL     1      -1.392  12.542  19.296  0.00  0.00    +0.000 C 
ATOM     18  C   UNL     1      -2.846  12.330  19.744  0.00  0.00    +0.000 C 
ATOM     19  C   UNL     1      -3.063  13.065  21.016  0.00  0.00    +0.000 A 
ATOM     20  N   UNL     1      -4.262  13.381  21.504  0.00  0.00    +0.000 NA
ATOM     21  N   UNL     1      -3.974  13.992  22.668  0.00  0.00    +0.000 N 
ATOM     22  C   UNL     1      -2.632  14.093  22.913  0.00  0.00    +0.000 A 
ATOM     23  C   UNL     1      -2.003  13.495  21.845  0.00  0.00    +0.000 A 
ATOM     24  C   UNL     1      -0.562  13.288  21.534  0.00  0.00    +0.000 C 
ATOM     25  H   UNL     1      -0.055  10.475  18.763  0.00  0.00    +0.000 HD
ATOM     26  H   UNL     1      -4.743  14.315  23.246  0.00  0.00    +0.000 HD
ENDBRANCH   8  13
BRANCH   1  28
ATOM     27  C   UNL     1       1.089   3.383  18.593  0.00  0.00    +0.000 C 
ATOM     28  C   UNL     1       2.017   4.332  17.853  0.00  0.00    +0.000 C 
ENDBRANCH   1  28
TORSDOF 2
ENDMDL
