MODEL 1
REMARK VINA RESULT:      -7.6      0.000      0.000
REMARK  Name = 
REMARK  9 active torsions:
REMARK  status: ('A' for Active; 'I' for Inactive)
REMARK    1  A    between atoms: C_1  and  O_2
REMARK    2  A    between atoms: O_2  and  C_3
REMARK    3  A    between atoms: C_5  and  O_6
REMARK    4  A    between atoms: C_7  and  C_8
REMARK    5  A    between atoms: C_8  and  C_10
REMARK    6  A    between atoms: C_11  and  C_12
REMARK    7  A    between atoms: C_16  and  C_17
REMARK    8  A    between atoms: C_19  and  O_20
REMARK    9  A    between atoms: O_20  and  C_21
REMARK                            x       y       z     vdW  Elec       q    Type
REMARK                         _______ _______ _______ _____ _____    ______ ____
ROOT
ATOM      1  C   UNL     1       2.139   4.310  19.379  0.00  0.00    +0.000 A 
ATOM      2  C   UNL     1       3.179   3.408  19.575  0.00  0.00    +0.000 A 
ATOM      3  C   UNL     1       4.486   3.750  19.224  0.00  0.00    +0.000 A 
ATOM      4  C   UNL     1       4.784   5.001  18.645  0.00  0.00    +0.000 A 
ATOM      5  C   UNL     1       3.726   5.916  18.445  0.00  0.00    +0.000 A 
ATOM      6  C   UNL     1       2.416   5.556  18.819  0.00  0.00    +0.000 A 
ENDROOT
BRANCH   1   8
ATOM      7  C   UNL     1       0.875   2.927  20.846  0.00  0.00    +0.000 C 
ATOM      8  O   UNL     1       0.908   3.862  19.773  0.00  0.00    +0.000 OA
ENDBRANCH   1   8
BRANCH   3   9
ATOM      9  O   UNL     1       5.474   2.834  19.480  0.00  0.00    +0.000 OA
ATOM     10  H   UNL     1       5.908   3.048  20.322  0.00  0.00    +0.000 HD
ENDBRANCH   3   9
BRANCH   4  11
ATOM     11  C   UNL     1       6.202   5.369  18.297  0.00  0.00    +0.000 C 
ATOM     12  O   UNL     1       6.961   5.882  19.112  0.00  0.00    +0.000 OA
BRANCH  11  13
ATOM     13  C   UNL     1       6.657   5.062  16.904  0.00  0.00    +0.000 C 
ATOM     14  C   UNL     1       5.807   4.656  15.942  0.00  0.00    +0.000 C 
BRANCH  14  15
ATOM     15  C   UNL     1       6.221   4.477  14.539  0.00  0.00    +0.000 A 
ATOM     16  C   UNL     1       7.349   5.147  14.054  0.00  0.00    +0.000 A 
ATOM     17  C   UNL     1       7.757   4.988  12.725  0.00  0.00    +0.000 A 
ATOM     18  C   UNL     1       7.049   4.147  11.866  0.00  0.00    +0.000 A 
ATOM     19  C   UNL     1       5.938   3.441  12.334  0.00  0.00    +0.000 A 
ATOM     20  C   UNL     1       5.167   2.521  11.435  0.00  0.00    +0.000 C 
ATOM     21  C   UNL     1       5.544   3.601  13.673  0.00  0.00    +0.000 A 
ENDBRANCH  14  15
ENDBRANCH  11  13
ENDBRANCH   4  11
BRANCH   5  22
ATOM     22  O   UNL     1       4.016   7.124  17.859  0.00  0.00    +0.000 OA
ATOM     23  C   UNL     1       2.973   8.092  17.776  0.00  0.00    +0.000 C 
ENDBRANCH   5  22
TORSDOF 6
ENDMDL
MODEL 2
REMARK VINA RESULT:      -7.3      2.475      7.134
REMARK  Name = 
REMARK  9 active torsions:
REMARK  status: ('A' for Active; 'I' for Inactive)
REMARK    1  A    between atoms: C_1  and  O_2
REMARK    2  A    between atoms: O_2  and  C_3
REMARK    3  A    between atoms: C_5  and  O_6
REMARK    4  A    between atoms: C_7  and  C_8
REMARK    5  A    between atoms: C_8  and  C_10
REMARK    6  A    between atoms: C_11  and  C_12
REMARK    7  A    between atoms: C_16  and  C_17
REMARK    8  A    between atoms: C_19  and  O_20
REMARK    9  A    between atoms: O_20  and  C_21
REMARK                            x       y       z     vdW  Elec       q    Type
REMARK                         _______ _______ _______ _____ _____    ______ ____
ROOT
ATOM      1  C   UNL     1       6.499   4.454  16.284  0.00  0.00    +0.000 A 
ATOM      2  C   UNL     1       6.921   4.854  17.547  0.00  0.00    +0.000 A 
ATOM      3  C   UNL     1       6.051   4.784  18.637  0.00  0.00    +0.000 A 
ATOM      4  C   UNL     1       4.725   4.329  18.486  0.00  0.00    +0.000 A 
ATOM      5  C   UNL     1       4.297   3.924  17.202  0.00  0.00    +0.000 A 
ATOM      6  C   UNL     1       5.195   3.991  16.118  0.00  0.00    +0.000 A 
ENDROOT
BRANCH   1   8
ATOM      7  C   UNL     1       6.978   4.794  13.977  0.00  0.00    +0.000 C 
ATOM      8  O   UNL     1       7.445   4.560  15.302  0.00  0.00    +0.000 OA
ENDBRANCH   1   8
BRANCH   3   9
ATOM      9  O   UNL     1       6.539   5.155  19.864  0.00  0.00    +0.000 OA
ATOM     10  H   UNL     1       7.509   5.113  19.856  0.00  0.00    +0.000 HD
ENDBRANCH   3   9
BRANCH   4  11
ATOM     11  C   UNL     1       3.806   4.231  19.675  0.00  0.00    +0.000 C 
ATOM     12  O   UNL     1       3.736   3.218  20.363  0.00  0.00    +0.000 OA
BRANCH  11  13
ATOM     13  C   UNL     1       2.985   5.442  19.995  0.00  0.00    +0.000 C 
ATOM     14  C   UNL     1       3.010   6.551  19.233  0.00  0.00    +0.000 C 
BRANCH  14  15
ATOM     15  C   UNL     1       2.111   7.696  19.465  0.00  0.00    +0.000 A 
ATOM     16  C   UNL     1       1.871   8.612  18.437  0.00  0.00    +0.000 A 
ATOM     17  C   UNL     1       1.020   9.705  18.639  0.00  0.00    +0.000 A 
ATOM     18  C   UNL     1       0.388   9.888  19.869  0.00  0.00    +0.000 A 
ATOM     19  C   UNL     1       0.585   8.969  20.902  0.00  0.00    +0.000 A 
ATOM     20  C   UNL     1      -0.092   9.136  22.230  0.00  0.00    +0.000 C 
ATOM     21  C   UNL     1       1.434   7.872  20.684  0.00  0.00    +0.000 A 
ENDBRANCH  14  15
ENDBRANCH  11  13
ENDBRANCH   4  11
BRANCH   5  22
ATOM     22  O   UNL     1       2.998   3.505  17.053  0.00  0.00    +0.000 OA
ATOM     23  C   UNL     1       2.700   2.141  17.340  0.00  0.00    +0.000 C 
ENDBRANCH   5  22
TORSDOF 6
ENDMDL
MODEL 3
REMARK VINA RESULT:      -7.2      2.256      6.957
REMARK  Name = 
REMARK  9 active torsions:
REMARK  status: ('A' for Active; 'I' for Inactive)
REMARK    1  A    between atoms: C_1  and  O_2
REMARK    2  A    between atoms: O_2  and  C_3
REMARK    3  A    between atoms: C_5  and  O_6
REMARK    4  A    between atoms: C_7  and  C_8
REMARK    5  A    between atoms: C_8  and  C_10
REMARK    6  A    between atoms: C_11  and  C_12
REMARK    7  A    between atoms: C_16  and  C_17
REMARK    8  A    between atoms: C_19  and  O_20
REMARK    9  A    between atoms: O_20  and  C_21
REMARK                            x       y       z     vdW  Elec       q    Type
REMARK                         _______ _______ _______ _____ _____    ______ ____
ROOT
ATOM      1  C   UNL     1       6.592   4.440  15.061  0.00  0.00    +0.000 A 
ATOM      2  C   UNL     1       5.277   4.026  15.244  0.00  0.00    +0.000 A 
ATOM      3  C   UNL     1       4.735   3.943  16.527  0.00  0.00    +0.000 A 
ATOM      4  C   UNL     1       5.503   4.255  17.667  0.00  0.00    +0.000 A 
ATOM      5  C   UNL     1       6.839   4.675  17.481  0.00  0.00    +0.000 A 
ATOM      6  C   UNL     1       7.364   4.763  16.175  0.00  0.00    +0.000 A 
ENDROOT
BRANCH   1   8
ATOM      7  C   UNL     1       6.283   3.691  12.823  0.00  0.00    +0.000 C 
ATOM      8  O   UNL     1       7.003   4.489  13.758  0.00  0.00    +0.000 OA
ENDBRANCH   1   8
BRANCH   3   9
ATOM      9  O   UNL     1       3.420   3.568  16.639  0.00  0.00    +0.000 OA
ATOM     10  H   UNL     1       3.240   2.824  16.040  0.00  0.00    +0.000 HD
ENDBRANCH   3   9
BRANCH   4  11
ATOM     11  C   UNL     1       4.897   4.190  19.044  0.00  0.00    +0.000 C 
ATOM     12  O   UNL     1       4.990   3.192  19.751  0.00  0.00    +0.000 OA
BRANCH  11  13
ATOM     13  C   UNL     1       4.182   5.415  19.526  0.00  0.00    +0.000 C 
ATOM     14  C   UNL     1       3.126   5.934  18.874  0.00  0.00    +0.000 C 
BRANCH  14  15
ATOM     15  C   UNL     1       2.337   7.059  19.408  0.00  0.00    +0.000 A 
ATOM     16  C   UNL     1       1.826   6.997  20.708  0.00  0.00    +0.000 A 
ATOM     17  C   UNL     1       1.076   8.056  21.231  0.00  0.00    +0.000 A 
ATOM     18  C   UNL     1       0.837   9.197  20.464  0.00  0.00    +0.000 A 
ATOM     19  C   UNL     1       1.363   9.298  19.175  0.00  0.00    +0.000 A 
ATOM     20  C   UNL     1       1.131  10.519  18.334  0.00  0.00    +0.000 C 
ATOM     21  C   UNL     1       2.122   8.233  18.664  0.00  0.00    +0.000 A 
ENDBRANCH  14  15
ENDBRANCH  11  13
ENDBRANCH   4  11
BRANCH   5  22
ATOM     22  O   UNL     1       7.593   4.954  18.594  0.00  0.00    +0.000 OA
ATOM     23  C   UNL     1       7.877   6.320  18.883  0.00  0.00    +0.000 C 
ENDBRANCH   5  22
TORSDOF 6
ENDMDL
MODEL 4
REMARK VINA RESULT:      -7.1      2.314      6.921
REMARK  Name = 
REMARK  9 active torsions:
REMARK  status: ('A' for Active; 'I' for Inactive)
REMARK    1  A    between atoms: C_1  and  O_2
REMARK    2  A    between atoms: O_2  and  C_3
REMARK    3  A    between atoms: C_5  and  O_6
REMARK    4  A    between atoms: C_7  and  C_8
REMARK    5  A    between atoms: C_8  and  C_10
REMARK    6  A    between atoms: C_11  and  C_12
REMARK    7  A    between atoms: C_16  and  C_17
REMARK    8  A    between atoms: C_19  and  O_20
REMARK    9  A    between atoms: O_20  and  C_21
REMARK                            x       y       z     vdW  Elec       q    Type
REMARK                         _______ _______ _______ _____ _____    ______ ____
ROOT
ATOM      1  C   UNL     1       6.332   4.187  15.212  0.00  0.00    +0.000 A 
ATOM      2  C   UNL     1       5.014   3.788  15.409  0.00  0.00    +0.000 A 
ATOM      3  C   UNL     1       4.457   3.797  16.689  0.00  0.00    +0.000 A 
ATOM      4  C   UNL     1       5.214   4.188  17.813  0.00  0.00    +0.000 A 
ATOM      5  C   UNL     1       6.553   4.591  17.612  0.00  0.00    +0.000 A 
ATOM      6  C   UNL     1       7.092   4.587  16.310  0.00  0.00    +0.000 A 
ENDROOT
BRANCH   1   8
ATOM      7  C   UNL     1       7.657   5.164  13.493  0.00  0.00    +0.000 C 
ATOM      8  O   UNL     1       6.757   4.143  13.913  0.00  0.00    +0.000 OA
ENDBRANCH   1   8
BRANCH   3   9
ATOM      9  O   UNL     1       3.141   3.433  16.812  0.00  0.00    +0.000 OA
ATOM     10  H   UNL     1       2.944   2.704  16.200  0.00  0.00    +0.000 HD
ENDBRANCH   3   9
BRANCH   4  11
ATOM     11  C   UNL     1       4.592   4.221  19.184  0.00  0.00    +0.000 C 
ATOM     12  O   UNL     1       4.744   3.310  19.991  0.00  0.00    +0.000 OA
BRANCH  11  13
ATOM     13  C   UNL     1       3.786   5.435  19.531  0.00  0.00    +0.000 C 
ATOM     14  C   UNL     1       3.417   6.342  18.608  0.00  0.00    +0.000 C 
BRANCH  14  15
ATOM     15  C   UNL     1       2.517   7.468  18.915  0.00  0.00    +0.000 A 
ATOM     16  C   UNL     1       2.152   8.363  17.904  0.00  0.00    +0.000 A 
ATOM     17  C   UNL     1       1.298   9.438  18.177  0.00  0.00    +0.000 A 
ATOM     18  C   UNL     1       0.788   9.624  19.462  0.00  0.00    +0.000 A 
ATOM     19  C   UNL     1       1.111   8.726  20.482  0.00  0.00    +0.000 A 
ATOM     20  C   UNL     1       0.566   8.896  21.869  0.00  0.00    +0.000 C 
ATOM     21  C   UNL     1       1.961   7.646  20.193  0.00  0.00    +0.000 A 
ENDBRANCH  14  15
ENDBRANCH  11  13
ENDBRANCH   4  11
BRANCH   5  22
ATOM     22  O   UNL     1       7.295   4.947  18.711  0.00  0.00    +0.000 OA
ATOM     23  C   UNL     1       7.806   6.276  18.770  0.00  0.00    +0.000 C 
ENDBRANCH   5  22
TORSDOF 6
ENDMDL
MODEL 5
REMARK VINA RESULT:      -7.0      3.895      5.718
REMARK  Name = 
REMARK  9 active torsions:
REMARK  status: ('A' for Active; 'I' for Inactive)
REMARK    1  A    between atoms: C_1  and  O_2
REMARK    2  A    between atoms: O_2  and  C_3
REMARK    3  A    between atoms: C_5  and  O_6
REMARK    4  A    between atoms: C_7  and  C_8
REMARK    5  A    between atoms: C_8  and  C_10
REMARK    6  A    between atoms: C_11  and  C_12
REMARK    7  A    between atoms: C_16  and  C_17
REMARK    8  A    between atoms: C_19  and  O_20
REMARK    9  A    between atoms: O_20  and  C_21
REMARK                            x       y       z     vdW  Elec       q    Type
REMARK                         _______ _______ _______ _____ _____    ______ ____
ROOT
ATOM      1  C   UNL     1       3.648   4.355  19.267  0.00  0.00    +0.000 A 
ATOM      2  C   UNL     1       4.949   3.874  19.167  0.00  0.00    +0.000 A 
ATOM      3  C   UNL     1       5.903   4.569  18.421  0.00  0.00    +0.000 A 
ATOM      4  C   UNL     1       5.574   5.757  17.738  0.00  0.00    +0.000 A 
ATOM      5  C   UNL     1       4.251   6.244  17.840  0.00  0.00    +0.000 A 
ATOM      6  C   UNL     1       3.307   5.533  18.608  0.00  0.00    +0.000 A 
ENDROOT
BRANCH   1   8
ATOM      7  C   UNL     1       2.278   4.194  21.207  0.00  0.00    +0.000 C 
ATOM      8  O   UNL     1       2.811   3.590  20.033  0.00  0.00    +0.000 OA
ENDBRANCH   1   8
BRANCH   3   9
ATOM      9  O   UNL     1       7.179   4.065  18.395  0.00  0.00    +0.000 OA
ATOM     10  H   UNL     1       7.673   4.464  17.659  0.00  0.00    +0.000 HD
ENDBRANCH   3   9
BRANCH   4  11
ATOM     11  C   UNL     1       6.619   6.512  16.962  0.00  0.00    +0.000 C 
ATOM     12  O   UNL     1       7.162   6.040  15.968  0.00  0.00    +0.000 OA
BRANCH  11  13
ATOM     13  C   UNL     1       6.961   7.887  17.450  0.00  0.00    +0.000 C 
ATOM     14  C   UNL     1       8.160   8.184  17.982  0.00  0.00    +0.000 C 
BRANCH  14  15
ATOM     15  C   UNL     1       8.551   9.559  18.345  0.00  0.00    +0.000 A 
ATOM     16  C   UNL     1       9.439   9.774  19.403  0.00  0.00    +0.000 A 
ATOM     17  C   UNL     1       9.821  11.072  19.761  0.00  0.00    +0.000 A 
ATOM     18  C   UNL     1       9.330  12.171  19.056  0.00  0.00    +0.000 A 
ATOM     19  C   UNL     1       8.467  11.982  17.974  0.00  0.00    +0.000 A 
ATOM     20  C   UNL     1       7.935  13.145  17.192  0.00  0.00    +0.000 C 
ATOM     21  C   UNL     1       8.098  10.674  17.619  0.00  0.00    +0.000 A 
ENDBRANCH  14  15
ENDBRANCH  11  13
ENDBRANCH   4  11
BRANCH   5  22
ATOM     22  O   UNL     1       3.927   7.388  17.153  0.00  0.00    +0.000 OA
ATOM     23  C   UNL     1       2.897   8.217  17.686  0.00  0.00    +0.000 C 
ENDBRANCH   5  22
TORSDOF 6
ENDMDL
MODEL 6
REMARK VINA RESULT:      -6.9      4.089      6.030
REMARK  Name = 
REMARK  9 active torsions:
REMARK  status: ('A' for Active; 'I' for Inactive)
REMARK    1  A    between atoms: C_1  and  O_2
REMARK    2  A    between atoms: O_2  and  C_3
REMARK    3  A    between atoms: C_5  and  O_6
REMARK    4  A    between atoms: C_7  and  C_8
REMARK    5  A    between atoms: C_8  and  C_10
REMARK    6  A    between atoms: C_11  and  C_12
REMARK    7  A    between atoms: C_16  and  C_17
REMARK    8  A    between atoms: C_19  and  O_20
REMARK    9  A    between atoms: O_20  and  C_21
REMARK                            x       y       z     vdW  Elec       q    Type
REMARK                         _______ _______ _______ _____ _____    ______ ____
ROOT
ATOM      1  C   UNL     1       3.879   4.497  19.448  0.00  0.00    +0.000 A 
ATOM      2  C   UNL     1       5.149   3.973  19.228  0.00  0.00    +0.000 A 
ATOM      3  C   UNL     1       6.075   4.670  18.450  0.00  0.00    +0.000 A 
ATOM      4  C   UNL     1       5.746   5.904  17.852  0.00  0.00    +0.000 A 
ATOM      5  C   UNL     1       4.456   6.434  18.075  0.00  0.00    +0.000 A 
ATOM      6  C   UNL     1       3.540   5.721  18.874  0.00  0.00    +0.000 A 
ENDROOT
BRANCH   1   8
ATOM      7  C   UNL     1       1.673   3.759  19.951  0.00  0.00    +0.000 C 
ATOM      8  O   UNL     1       3.069   3.725  20.234  0.00  0.00    +0.000 OA
ENDBRANCH   1   8
BRANCH   3   9
ATOM      9  O   UNL     1       7.323   4.122  18.304  0.00  0.00    +0.000 OA
ATOM     10  H   UNL     1       7.981   4.828  18.192  0.00  0.00    +0.000 HD
ENDBRANCH   3   9
BRANCH   4  11
ATOM     11  C   UNL     1       6.764   6.660  17.039  0.00  0.00    +0.000 C 
ATOM     12  O   UNL     1       7.318   6.163  16.065  0.00  0.00    +0.000 OA
BRANCH  11  13
ATOM     13  C   UNL     1       7.061   8.064  17.466  0.00  0.00    +0.000 C 
ATOM     14  C   UNL     1       8.247   8.421  17.993  0.00  0.00    +0.000 C 
BRANCH  14  15
ATOM     15  C   UNL     1       8.594   9.821  18.295  0.00  0.00    +0.000 A 
ATOM     16  C   UNL     1       8.164  10.845  17.444  0.00  0.00    +0.000 A 
ATOM     17  C   UNL     1       8.484  12.180  17.715  0.00  0.00    +0.000 A 
ATOM     18  C   UNL     1       9.228  12.510  18.849  0.00  0.00    +0.000 A 
ATOM     19  C   UNL     1       9.642  11.510  19.731  0.00  0.00    +0.000 A 
ATOM     20  C   UNL     1      10.432  11.839  20.963  0.00  0.00    +0.000 C 
ATOM     21  C   UNL     1       9.307  10.175  19.453  0.00  0.00    +0.000 A 
ENDBRANCH  14  15
ENDBRANCH  11  13
ENDBRANCH   4  11
BRANCH   5  22
ATOM     22  O   UNL     1       4.130   7.624  17.472  0.00  0.00    +0.000 OA
ATOM     23  C   UNL     1       2.821   8.145  17.686  0.00  0.00    +0.000 C 
ENDBRANCH   5  22
TORSDOF 6
ENDMDL
MODEL 7
REMARK VINA RESULT:      -6.7      4.235      6.481
REMARK  Name = 
REMARK  9 active torsions:
REMARK  status: ('A' for Active; 'I' for Inactive)
REMARK    1  A    between atoms: C_1  and  O_2
REMARK    2  A    between atoms: O_2  and  C_3
REMARK    3  A    between atoms: C_5  and  O_6
REMARK    4  A    between atoms: C_7  and  C_8
REMARK    5  A    between atoms: C_8  and  C_10
REMARK    6  A    between atoms: C_11  and  C_12
REMARK    7  A    between atoms: C_16  and  C_17
REMARK    8  A    between atoms: C_19  and  O_20
REMARK    9  A    between atoms: O_20  and  C_21
REMARK                            x       y       z     vdW  Elec       q    Type
REMARK                         _______ _______ _______ _____ _____    ______ ____
ROOT
ATOM      1  C   UNL     1       3.871   4.934  19.318  0.00  0.00    +0.000 A 
ATOM      2  C   UNL     1       3.580   5.879  18.341  0.00  0.00    +0.000 A 
ATOM      3  C   UNL     1       4.603   6.448  17.581  0.00  0.00    +0.000 A 
ATOM      4  C   UNL     1       5.952   6.100  17.795  0.00  0.00    +0.000 A 
ATOM      5  C   UNL     1       6.248   5.141  18.789  0.00  0.00    +0.000 A 
ATOM      6  C   UNL     1       5.198   4.569  19.536  0.00  0.00    +0.000 A 
ENDROOT
BRANCH   1   8
ATOM      7  C   UNL     1       1.899   5.398  20.567  0.00  0.00    +0.000 C 
ATOM      8  O   UNL     1       2.783   4.445  19.987  0.00  0.00    +0.000 OA
ENDBRANCH   1   8
BRANCH   3   9
ATOM      9  O   UNL     1       4.247   7.344  16.605  0.00  0.00    +0.000 OA
ATOM     10  H   UNL     1       4.801   8.139  16.672  0.00  0.00    +0.000 HD
ENDBRANCH   3   9
BRANCH   4  11
ATOM     11  C   UNL     1       7.044   6.699  16.948  0.00  0.00    +0.000 C 
ATOM     12  O   UNL     1       7.620   6.057  16.076  0.00  0.00    +0.000 OA
BRANCH  11  13
ATOM     13  C   UNL     1       7.389   8.134  17.208  0.00  0.00    +0.000 C 
ATOM     14  C   UNL     1       8.232   8.504  18.190  0.00  0.00    +0.000 C 
BRANCH  14  15
ATOM     15  C   UNL     1       8.678   9.898  18.371  0.00  0.00    +0.000 A 
ATOM     16  C   UNL     1       8.148  10.909  17.564  0.00  0.00    +0.000 A 
ATOM     17  C   UNL     1       8.559  12.238  17.722  0.00  0.00    +0.000 A 
ATOM     18  C   UNL     1       9.498  12.573  18.698  0.00  0.00    +0.000 A 
ATOM     19  C   UNL     1      10.018  11.587  19.539  0.00  0.00    +0.000 A 
ATOM     20  C   UNL     1      11.019  11.923  20.605  0.00  0.00    +0.000 C 
ATOM     21  C   UNL     1       9.590  10.259  19.377  0.00  0.00    +0.000 A 
ENDBRANCH  14  15
ENDBRANCH  11  13
ENDBRANCH   4  11
BRANCH   5  22
ATOM     22  O   UNL     1       7.565   4.821  19.012  0.00  0.00    +0.000 OA
ATOM     23  C   UNL     1       8.221   5.432  20.120  0.00  0.00    +0.000 C 
ENDBRANCH   5  22
TORSDOF 6
ENDMDL
MODEL 8
REMARK VINA RESULT:      -6.7      3.132      7.721
REMARK  Name = 
REMARK  9 active torsions:
REMARK  status: ('A' for Active; 'I' for Inactive)
REMARK    1  A    between atoms: C_1  and  O_2
REMARK    2  A    between atoms: O_2  and  C_3
REMARK    3  A    between atoms: C_5  and  O_6
REMARK    4  A    between atoms: C_7  and  C_8
REMARK    5  A    between atoms: C_8  and  C_10
REMARK    6  A    between atoms: C_11  and  C_12
REMARK    7  A    between atoms: C_16  and  C_17
REMARK    8  A    between atoms: C_19  and  O_20
REMARK    9  A    between atoms: O_20  and  C_21
REMARK                            x       y       z     vdW  Elec       q    Type
REMARK                         _______ _______ _______ _____ _____    ______ ____
ROOT
ATOM      1  C   UNL     1       4.302   4.144  16.699  0.00  0.00    +0.000 A 
ATOM      2  C   UNL     1       4.996   4.761  17.733  0.00  0.00    +0.000 A 
ATOM      3  C   UNL     1       4.386   4.962  18.972  0.00  0.00    +0.000 A 
ATOM      4  C   UNL     1       3.052   4.568  19.202  0.00  0.00    +0.000 A 
ATOM      5  C   UNL     1       2.347   3.942  18.150  0.00  0.00    +0.000 A 
ATOM      6  C   UNL     1       2.986   3.738  16.911  0.00  0.00    +0.000 A 
ENDROOT
BRANCH   1   8
ATOM      7  C   UNL     1       6.424   4.160  15.621  0.00  0.00    +0.000 C 
ATOM      8  O   UNL     1       5.011   3.997  15.539  0.00  0.00    +0.000 OA
ENDBRANCH   1   8
BRANCH   3   9
ATOM      9  O   UNL     1       5.137   5.538  19.965  0.00  0.00    +0.000 OA
ATOM     10  H   UNL     1       5.577   6.334  19.623  0.00  0.00    +0.000 HD
ENDBRANCH   3   9
BRANCH   4  11
ATOM     11  C   UNL     1       2.415   4.764  20.553  0.00  0.00    +0.000 C 
ATOM     12  O   UNL     1       2.549   3.951  21.461  0.00  0.00    +0.000 OA
BRANCH  11  13
ATOM     13  C   UNL     1       1.615   6.016  20.747  0.00  0.00    +0.000 C 
ATOM     14  C   UNL     1       2.093   7.232  20.427  0.00  0.00    +0.000 C 
BRANCH  14  15
ATOM     15  C   UNL     1       1.270   8.453  20.492  0.00  0.00    +0.000 A 
ATOM     16  C   UNL     1       1.101   9.241  19.349  0.00  0.00    +0.000 A 
ATOM     17  C   UNL     1       0.322  10.403  19.392  0.00  0.00    +0.000 A 
ATOM     18  C   UNL     1      -0.308  10.785  20.577  0.00  0.00    +0.000 A 
ATOM     19  C   UNL     1      -0.182   9.999  21.723  0.00  0.00    +0.000 A 
ATOM     20  C   UNL     1      -0.859  10.380  23.006  0.00  0.00    +0.000 C 
ATOM     21  C   UNL     1       0.595   8.829  21.665  0.00  0.00    +0.000 A 
ENDBRANCH  14  15
ENDBRANCH  11  13
ENDBRANCH   4  11
BRANCH   5  22
ATOM     22  O   UNL     1       1.040   3.582  18.369  0.00  0.00    +0.000 OA
ATOM     23  C   UNL     1       0.771   2.226  18.718  0.00  0.00    +0.000 C 
ENDBRANCH   5  22
TORSDOF 6
ENDMDL
MODEL 9
REMARK VINA RESULT:      -6.6      0.487      1.509
REMARK  Name = 
REMARK  9 active torsions:
REMARK  status: ('A' for Active; 'I' for Inactive)
REMARK    1  A    between atoms: C_1  and  O_2
REMARK    2  A    between atoms: O_2  and  C_3
REMARK    3  A    between atoms: C_5  and  O_6
REMARK    4  A    between atoms: C_7  and  C_8
REMARK    5  A    between atoms: C_8  and  C_10
REMARK    6  A    between atoms: C_11  and  C_12
REMARK    7  A    between atoms: C_16  and  C_17
REMARK    8  A    between atoms: C_19  and  O_20
REMARK    9  A    between atoms: O_20  and  C_21
REMARK                            x       y       z     vdW  Elec       q    Type
REMARK                         _______ _______ _______ _____ _____    ______ ____
ROOT
ATOM      1  C   UNL     1       2.154   4.360  19.709  0.00  0.00    +0.000 A 
ATOM      2  C   UNL     1       3.170   3.424  19.870  0.00  0.00    +0.000 A 
ATOM      3  C   UNL     1       4.481   3.736  19.503  0.00  0.00    +0.000 A 
ATOM      4  C   UNL     1       4.805   4.990  18.945  0.00  0.00    +0.000 A 
ATOM      5  C   UNL     1       3.771   5.938  18.781  0.00  0.00    +0.000 A 
ATOM      6  C   UNL     1       2.457   5.608  19.170  0.00  0.00    +0.000 A 
ENDROOT
BRANCH   1   8
ATOM      7  C   UNL     1       0.871   2.802  20.972  0.00  0.00    +0.000 C 
ATOM      8  O   UNL     1       0.917   3.938  20.114  0.00  0.00    +0.000 OA
ENDBRANCH   1   8
BRANCH   3   9
ATOM      9  O   UNL     1       5.446   2.787  19.724  0.00  0.00    +0.000 OA
ATOM     10  H   UNL     1       5.205   2.250  20.497  0.00  0.00    +0.000 HD
ENDBRANCH   3   9
BRANCH   4  11
ATOM     11  C   UNL     1       6.227   5.324  18.581  0.00  0.00    +0.000 C 
ATOM     12  O   UNL     1       7.061   5.632  19.425  0.00  0.00    +0.000 OA
BRANCH  11  13
ATOM     13  C   UNL     1       6.589   5.247  17.129  0.00  0.00    +0.000 C 
ATOM     14  C   UNL     1       6.135   4.267  16.326  0.00  0.00    +0.000 C 
BRANCH  14  15
ATOM     15  C   UNL     1       6.378   4.254  14.872  0.00  0.00    +0.000 A 
ATOM     16  C   UNL     1       5.634   3.403  14.049  0.00  0.00    +0.000 A 
ATOM     17  C   UNL     1       5.851   3.378  12.667  0.00  0.00    +0.000 A 
ATOM     18  C   UNL     1       6.807   4.214  12.088  0.00  0.00    +0.000 A 
ATOM     19  C   UNL     1       7.540   5.096  12.883  0.00  0.00    +0.000 A 
ATOM     20  C   UNL     1       8.565   6.014  12.285  0.00  0.00    +0.000 C 
ATOM     21  C   UNL     1       7.307   5.119  14.268  0.00  0.00    +0.000 A 
ENDBRANCH  14  15
ENDBRANCH  11  13
ENDBRANCH   4  11
BRANCH   5  22
ATOM     22  O   UNL     1       4.085   7.149  18.215  0.00  0.00    +0.000 OA
ATOM     23  C   UNL     1       3.029   7.908  17.632  0.00  0.00    +0.000 C 
ENDBRANCH   5  22
TORSDOF 6
ENDMDL
