MODEL 1
REMARK VINA RESULT:      -8.9      0.000      0.000
REMARK  Name = 
REMARK  7 active torsions:
REMARK  status: ('A' for Active; 'I' for Inactive)
REMARK    1  A    between atoms: C_2  and  C_18
REMARK    2  A    between atoms: N_3  and  C_4
REMARK    3  A    between atoms: C_7  and  S_8
REMARK    4  A    between atoms: S_8  and  N_11
REMARK    5  A    between atoms: C_20  and  C_21
REMARK    6  A    between atoms: N_26  and  C_27
REMARK    7  A    between atoms: C_27  and  C_28
REMARK                            x       y       z     vdW  Elec       q    Type
REMARK                         _______ _______ _______ _____ _____    ______ ____
ROOT
ATOM      1  O   UNL     1       2.581   7.028  19.371  0.00  0.00    +0.000 OA
ATOM      2  C   UNL     1       3.013   7.210  18.240  0.00  0.00    +0.000 C 
ATOM      3  N   UNL     1       2.814   8.381  17.514  0.00  0.00    +0.000 N 
ATOM      4  H   UNL     1       3.318   8.471  16.641  0.00  0.00    +0.000 HD
ENDROOT
BRANCH   3   5
ATOM      5  C   UNL     1       1.954   9.460  17.843  0.00  0.00    +0.000 A 
ATOM      6  C   UNL     1       2.410  10.750  18.129  0.00  0.00    +0.000 A 
ATOM      7  C   UNL     1       1.528  11.756  18.545  0.00  0.00    +0.000 A 
ATOM      8  C   UNL     1       0.165  11.488  18.661  0.00  0.00    +0.000 A 
ATOM      9  C   UNL     1      -0.317  10.206  18.368  0.00  0.00    +0.000 A 
ATOM     10  C   UNL     1       0.577   9.204  17.951  0.00  0.00    +0.000 A 
BRANCH   8  11
ATOM     11  S   UNL     1      -0.903  12.710  19.404  0.00  0.00    +0.000 S 
ATOM     12  O   UNL     1      -0.524  13.996  18.854  0.00  0.00    +0.000 OA
ATOM     13  O   UNL     1      -2.264  12.222  19.277  0.00  0.00    +0.000 OA
BRANCH  11  14
ATOM     14  N   UNL     1      -0.510  12.710  21.036  0.00  0.00    +0.000 NA
ATOM     15  C   UNL     1      -0.242  11.447  21.732  0.00  0.00    +0.000 C 
ATOM     16  C   UNL     1      -1.269  11.413  22.848  0.00  0.00    +0.000 C 
ATOM     17  C   UNL     1      -1.476  12.871  23.217  0.00  0.00    +0.000 C 
ATOM     18  C   UNL     1      -1.156  13.663  21.953  0.00  0.00    +0.000 C 
ENDBRANCH  11  14
ENDBRANCH   8  11
ENDBRANCH   3   5
BRANCH   2  19
ATOM     19  C   UNL     1       3.770   6.178  17.543  0.00  0.00    +0.000 A 
ATOM     20  C   UNL     1       4.941   6.279  16.807  0.00  0.00    +0.000 A 
ATOM     21  C   UNL     1       5.190   4.999  16.249  0.00  0.00    +0.000 A 
ATOM     22  N   UNL     1       4.254   4.125  16.653  0.00  0.00    +0.000 NA
ATOM     23  N   UNL     1       3.387   4.852  17.403  0.00  0.00    +0.000 N 
BRANCH  21  24
ATOM     24  C   UNL     1       6.297   4.632  15.296  0.00  0.00    +0.000 C 
ATOM     25  F   UNL     1       7.498   4.552  15.937  0.00  0.00    +0.000 F 
ATOM     26  F   UNL     1       6.102   3.429  14.697  0.00  0.00    +0.000 F 
ATOM     27  F   UNL     1       6.458   5.552  14.307  0.00  0.00    +0.000 F 
ENDBRANCH  21  24
BRANCH  23  28
ATOM     28  C   UNL     1       2.125   4.209  17.773  0.00  0.00    +0.000 C 
BRANCH  28  29
ATOM     29  C   UNL     1       2.144   3.556  19.134  0.00  0.00    +0.000 A 
ATOM     30  C   UNL     1       3.319   2.975  19.633  0.00  0.00    +0.000 A 
ATOM     31  C   UNL     1       3.358   2.449  20.927  0.00  0.00    +0.000 A 
ATOM     32  C   UNL     1       2.224   2.491  21.735  0.00  0.00    +0.000 A 
ATOM     33  C   UNL     1       1.046   3.051  21.249  0.00  0.00    +0.000 A 
ATOM     34  C   UNL     1       1.004   3.577  19.954  0.00  0.00    +0.000 A 
ENDBRANCH  28  29
ENDBRANCH  23  28
ENDBRANCH   2  19
TORSDOF 7
ENDMDL
MODEL 2
REMARK VINA RESULT:      -8.8      4.718      9.211
REMARK  Name = 
REMARK  7 active torsions:
REMARK  status: ('A' for Active; 'I' for Inactive)
REMARK    1  A    between atoms: C_2  and  C_18
REMARK    2  A    between atoms: N_3  and  C_4
REMARK    3  A    between atoms: C_7  and  S_8
REMARK    4  A    between atoms: S_8  and  N_11
REMARK    5  A    between atoms: C_20  and  C_21
REMARK    6  A    between atoms: N_26  and  C_27
REMARK    7  A    between atoms: C_27  and  C_28
REMARK                            x       y       z     vdW  Elec       q    Type
REMARK                         _______ _______ _______ _____ _____    ______ ____
ROOT
ATOM      1  O   UNL     1       0.819   9.271  20.459  0.00  0.00    +0.000 OA
ATOM      2  C   UNL     1       1.146   9.822  19.415  0.00  0.00    +0.000 C 
ATOM      3  N   UNL     1       1.891   9.206  18.414  0.00  0.00    +0.000 N 
ATOM      4  H   UNL     1       1.999   9.711  17.544  0.00  0.00    +0.000 HD
ENDROOT
BRANCH   3   5
ATOM      5  C   UNL     1       2.552   7.952  18.484  0.00  0.00    +0.000 A 
ATOM      6  C   UNL     1       3.312   7.422  17.437  0.00  0.00    +0.000 A 
ATOM      7  C   UNL     1       3.863   6.137  17.519  0.00  0.00    +0.000 A 
ATOM      8  C   UNL     1       3.677   5.366  18.666  0.00  0.00    +0.000 A 
ATOM      9  C   UNL     1       2.929   5.882  19.732  0.00  0.00    +0.000 A 
ATOM     10  C   UNL     1       2.380   7.173  19.640  0.00  0.00    +0.000 A 
BRANCH   8  11
ATOM     11  S   UNL     1       4.192   3.658  18.661  0.00  0.00    +0.000 S 
ATOM     12  O   UNL     1       4.292   3.248  17.275  0.00  0.00    +0.000 OA
ATOM     13  O   UNL     1       5.335   3.553  19.550  0.00  0.00    +0.000 OA
BRANCH  11  14
ATOM     14  N   UNL     1       2.922   2.810  19.359  0.00  0.00    +0.000 NA
ATOM     15  C   UNL     1       1.580   2.872  18.772  0.00  0.00    +0.000 C 
ATOM     16  C   UNL     1       0.711   3.419  19.888  0.00  0.00    +0.000 C 
ATOM     17  C   UNL     1       1.352   2.894  21.160  0.00  0.00    +0.000 C 
ATOM     18  C   UNL     1       2.826   2.695  20.823  0.00  0.00    +0.000 C 
ENDBRANCH  11  14
ENDBRANCH   8  11
ENDBRANCH   3   5
BRANCH   2  19
ATOM     19  C   UNL     1       0.785  11.209  19.146  0.00  0.00    +0.000 A 
ATOM     20  C   UNL     1       1.585  12.341  19.098  0.00  0.00    +0.000 A 
ATOM     21  C   UNL     1       0.719  13.449  18.911  0.00  0.00    +0.000 A 
ATOM     22  N   UNL     1      -0.552  13.033  18.797  0.00  0.00    +0.000 NA
ATOM     23  N   UNL     1      -0.505  11.688  18.973  0.00  0.00    +0.000 N 
BRANCH  21  24
ATOM     24  C   UNL     1       1.111  14.904  18.889  0.00  0.00    +0.000 C 
ATOM     25  F   UNL     1       0.124  15.675  18.349  0.00  0.00    +0.000 F 
ATOM     26  F   UNL     1       1.354  15.405  20.127  0.00  0.00    +0.000 F 
ATOM     27  F   UNL     1       2.221  15.131  18.136  0.00  0.00    +0.000 F 
ENDBRANCH  21  24
BRANCH  23  28
ATOM     28  C   UNL     1      -1.782  10.994  19.148  0.00  0.00    +0.000 C 
BRANCH  28  29
ATOM     29  C   UNL     1      -2.543  10.776  17.862  0.00  0.00    +0.000 A 
ATOM     30  C   UNL     1      -3.752  11.445  17.623  0.00  0.00    +0.000 A 
ATOM     31  C   UNL     1      -4.410  11.308  16.399  0.00  0.00    +0.000 A 
ATOM     32  C   UNL     1      -3.873  10.498  15.401  0.00  0.00    +0.000 A 
ATOM     33  C   UNL     1      -2.681   9.816  15.628  0.00  0.00    +0.000 A 
ATOM     34  C   UNL     1      -2.021   9.949  16.854  0.00  0.00    +0.000 A 
ENDBRANCH  28  29
ENDBRANCH  23  28
ENDBRANCH   2  19
TORSDOF 7
ENDMDL
MODEL 3
REMARK VINA RESULT:      -8.8      0.492      1.203
REMARK  Name = 
REMARK  7 active torsions:
REMARK  status: ('A' for Active; 'I' for Inactive)
REMARK    1  A    between atoms: C_2  and  C_18
REMARK    2  A    between atoms: N_3  and  C_4
REMARK    3  A    between atoms: C_7  and  S_8
REMARK    4  A    between atoms: S_8  and  N_11
REMARK    5  A    between atoms: C_20  and  C_21
REMARK    6  A    between atoms: N_26  and  C_27
REMARK    7  A    between atoms: C_27  and  C_28
REMARK                            x       y       z     vdW  Elec       q    Type
REMARK                         _______ _______ _______ _____ _____    ______ ____
ROOT
ATOM      1  O   UNL     1       2.694   7.254  19.501  0.00  0.00    +0.000 OA
ATOM      2  C   UNL     1       2.986   7.377  18.318  0.00  0.00    +0.000 C 
ATOM      3  N   UNL     1       2.644   8.483  17.546  0.00  0.00    +0.000 N 
ATOM      4  H   UNL     1       3.041   8.536  16.617  0.00  0.00    +0.000 HD
ENDROOT
BRANCH   3   5
ATOM      5  C   UNL     1       1.767   9.540  17.901  0.00  0.00    +0.000 A 
ATOM      6  C   UNL     1       2.206  10.818  18.261  0.00  0.00    +0.000 A 
ATOM      7  C   UNL     1       1.306  11.797  18.700  0.00  0.00    +0.000 A 
ATOM      8  C   UNL     1      -0.058  11.517  18.765  0.00  0.00    +0.000 A 
ATOM      9  C   UNL     1      -0.523  10.248  18.398  0.00  0.00    +0.000 A 
ATOM     10  C   UNL     1       0.390   9.271  17.959  0.00  0.00    +0.000 A 
BRANCH   8  11
ATOM     11  S   UNL     1      -1.154  12.696  19.535  0.00  0.00    +0.000 S 
ATOM     12  O   UNL     1      -0.693  14.016  19.154  0.00  0.00    +0.000 OA
ATOM     13  O   UNL     1      -2.512  12.272  19.243  0.00  0.00    +0.000 OA
BRANCH  11  14
ATOM     14  N   UNL     1      -0.908  12.519  21.186  0.00  0.00    +0.000 NA
ATOM     15  C   UNL     1      -0.002  11.482  21.691  0.00  0.00    +0.000 C 
ATOM     16  C   UNL     1      -0.878  10.630  22.590  0.00  0.00    +0.000 C 
ATOM     17  C   UNL     1      -1.895  11.602  23.161  0.00  0.00    +0.000 C 
ATOM     18  C   UNL     1      -2.023  12.715  22.126  0.00  0.00    +0.000 C 
ENDBRANCH  11  14
ENDBRANCH   8  11
ENDBRANCH   3   5
BRANCH   2  19
ATOM     19  C   UNL     1       3.717   6.335  17.607  0.00  0.00    +0.000 A 
ATOM     20  C   UNL     1       4.863   6.426  16.830  0.00  0.00    +0.000 A 
ATOM     21  C   UNL     1       5.089   5.140  16.278  0.00  0.00    +0.000 A 
ATOM     22  N   UNL     1       4.166   4.272  16.722  0.00  0.00    +0.000 NA
ATOM     23  N   UNL     1       3.326   5.009  17.493  0.00  0.00    +0.000 N 
BRANCH  21  24
ATOM     24  C   UNL     1       6.163   4.760  15.291  0.00  0.00    +0.000 C 
ATOM     25  F   UNL     1       5.743   4.942  14.006  0.00  0.00    +0.000 F 
ATOM     26  F   UNL     1       7.295   5.497  15.432  0.00  0.00    +0.000 F 
ATOM     27  F   UNL     1       6.520   3.451  15.390  0.00  0.00    +0.000 F 
ENDBRANCH  21  24
BRANCH  23  28
ATOM     28  C   UNL     1       2.076   4.373  17.912  0.00  0.00    +0.000 C 
BRANCH  28  29
ATOM     29  C   UNL     1       2.135   3.748  19.285  0.00  0.00    +0.000 A 
ATOM     30  C   UNL     1       0.978   3.631  20.069  0.00  0.00    +0.000 A 
ATOM     31  C   UNL     1       1.019   2.975  21.302  0.00  0.00    +0.000 A 
ATOM     32  C   UNL     1       2.214   2.433  21.769  0.00  0.00    +0.000 A 
ATOM     33  C   UNL     1       3.374   2.555  21.009  0.00  0.00    +0.000 A 
ATOM     34  C   UNL     1       3.337   3.213  19.776  0.00  0.00    +0.000 A 
ENDBRANCH  28  29
ENDBRANCH  23  28
ENDBRANCH   2  19
TORSDOF 7
ENDMDL
MODEL 4
REMARK VINA RESULT:      -8.8      2.191      3.009
REMARK  Name = 
REMARK  7 active torsions:
REMARK  status: ('A' for Active; 'I' for Inactive)
REMARK    1  A    between atoms: C_2  and  C_18
REMARK    2  A    between atoms: N_3  and  C_4
REMARK    3  A    between atoms: C_7  and  S_8
REMARK    4  A    between atoms: S_8  and  N_11
REMARK    5  A    between atoms: C_20  and  C_21
REMARK    6  A    between atoms: N_26  and  C_27
REMARK    7  A    between atoms: C_27  and  C_28
REMARK                            x       y       z     vdW  Elec       q    Type
REMARK                         _______ _______ _______ _____ _____    ______ ____
ROOT
ATOM      1  O   UNL     1       5.725   7.471  17.456  0.00  0.00    +0.000 OA
ATOM      2  C   UNL     1       4.920   6.713  16.930  0.00  0.00    +0.000 C 
ATOM      3  N   UNL     1       3.543   6.792  17.121  0.00  0.00    +0.000 N 
ATOM      4  H   UNL     1       2.964   6.196  16.544  0.00  0.00    +0.000 HD
ENDROOT
BRANCH   3   5
ATOM      5  C   UNL     1       2.852   7.596  18.064  0.00  0.00    +0.000 A 
ATOM      6  C   UNL     1       2.583   7.188  19.374  0.00  0.00    +0.000 A 
ATOM      7  C   UNL     1       1.811   7.977  20.236  0.00  0.00    +0.000 A 
ATOM      8  C   UNL     1       1.311   9.205  19.803  0.00  0.00    +0.000 A 
ATOM      9  C   UNL     1       1.578   9.640  18.498  0.00  0.00    +0.000 A 
ATOM     10  C   UNL     1       2.354   8.839  17.641  0.00  0.00    +0.000 A 
BRANCH   8  11
ATOM     11  S   UNL     1       0.151  10.086  20.833  0.00  0.00    +0.000 S 
ATOM     12  O   UNL     1      -0.859   9.133  21.246  0.00  0.00    +0.000 OA
ATOM     13  O   UNL     1       0.925  10.820  21.818  0.00  0.00    +0.000 OA
BRANCH  11  14
ATOM     14  N   UNL     1      -0.581  11.207  19.819  0.00  0.00    +0.000 NA
ATOM     15  C   UNL     1      -0.633  12.622  20.198  0.00  0.00    +0.000 C 
ATOM     16  C   UNL     1      -2.115  12.945  20.224  0.00  0.00    +0.000 C 
ATOM     17  C   UNL     1      -2.717  12.050  19.157  0.00  0.00    +0.000 C 
ATOM     18  C   UNL     1      -1.790  10.842  19.064  0.00  0.00    +0.000 C 
ENDBRANCH  11  14
ENDBRANCH   8  11
ENDBRANCH   3   5
BRANCH   2  19
ATOM     19  C   UNL     1       5.357   5.630  16.058  0.00  0.00    +0.000 A 
ATOM     20  C   UNL     1       5.442   5.582  14.674  0.00  0.00    +0.000 A 
ATOM     21  C   UNL     1       5.816   4.259  14.330  0.00  0.00    +0.000 A 
ATOM     22  N   UNL     1       6.006   3.525  15.437  0.00  0.00    +0.000 NA
ATOM     23  N   UNL     1       5.695   4.349  16.470  0.00  0.00    +0.000 N 
BRANCH  21  24
ATOM     24  C   UNL     1       5.946   3.693  12.939  0.00  0.00    +0.000 C 
ATOM     25  F   UNL     1       6.359   2.394  12.969  0.00  0.00    +0.000 F 
ATOM     26  F   UNL     1       4.774   3.706  12.252  0.00  0.00    +0.000 F 
ATOM     27  F   UNL     1       6.861   4.364  12.188  0.00  0.00    +0.000 F 
ENDBRANCH  21  24
BRANCH  23  28
ATOM     28  C   UNL     1       5.571   3.740  17.795  0.00  0.00    +0.000 C 
BRANCH  28  29
ATOM     29  C   UNL     1       4.146   3.580  18.267  0.00  0.00    +0.000 A 
ATOM     30  C   UNL     1       3.828   3.677  19.630  0.00  0.00    +0.000 A 
ATOM     31  C   UNL     1       2.499   3.616  20.055  0.00  0.00    +0.000 A 
ATOM     32  C   UNL     1       1.473   3.451  19.128  0.00  0.00    +0.000 A 
ATOM     33  C   UNL     1       1.774   3.338  17.773  0.00  0.00    +0.000 A 
ATOM     34  C   UNL     1       3.103   3.398  17.345  0.00  0.00    +0.000 A 
ENDBRANCH  28  29
ENDBRANCH  23  28
ENDBRANCH   2  19
TORSDOF 7
ENDMDL
MODEL 5
REMARK VINA RESULT:      -8.8      5.638      9.858
REMARK  Name = 
REMARK  7 active torsions:
REMARK  status: ('A' for Active; 'I' for Inactive)
REMARK    1  A    between atoms: C_2  and  C_18
REMARK    2  A    between atoms: N_3  and  C_4
REMARK    3  A    between atoms: C_7  and  S_8
REMARK    4  A    between atoms: S_8  and  N_11
REMARK    5  A    between atoms: C_20  and  C_21
REMARK    6  A    between atoms: N_26  and  C_27
REMARK    7  A    between atoms: C_27  and  C_28
REMARK                            x       y       z     vdW  Elec       q    Type
REMARK                         _______ _______ _______ _____ _____    ______ ____
ROOT
ATOM      1  O   UNL     1       1.491   9.837  22.652  0.00  0.00    +0.000 OA
ATOM      2  C   UNL     1       0.528   9.900  21.896  0.00  0.00    +0.000 C 
ATOM      3  N   UNL     1       0.368   9.088  20.776  0.00  0.00    +0.000 N 
ATOM      4  H   UNL     1      -0.520   9.140  20.294  0.00  0.00    +0.000 HD
ENDROOT
BRANCH   3   5
ATOM      5  C   UNL     1       1.327   8.212  20.207  0.00  0.00    +0.000 A 
ATOM      6  C   UNL     1       1.900   8.411  18.947  0.00  0.00    +0.000 A 
ATOM      7  C   UNL     1       2.768   7.465  18.387  0.00  0.00    +0.000 A 
ATOM      8  C   UNL     1       3.095   6.308  19.094  0.00  0.00    +0.000 A 
ATOM      9  C   UNL     1       2.543   6.094  20.364  0.00  0.00    +0.000 A 
ATOM     10  C   UNL     1       1.672   7.050  20.916  0.00  0.00    +0.000 A 
BRANCH   8  11
ATOM     11  S   UNL     1       4.018   5.019  18.277  0.00  0.00    +0.000 S 
ATOM     12  O   UNL     1       4.235   5.451  16.912  0.00  0.00    +0.000 OA
ATOM     13  O   UNL     1       5.139   4.685  19.137  0.00  0.00    +0.000 OA
BRANCH  11  14
ATOM     14  N   UNL     1       2.989   3.692  18.241  0.00  0.00    +0.000 NA
ATOM     15  C   UNL     1       1.573   3.863  17.902  0.00  0.00    +0.000 C 
ATOM     16  C   UNL     1       0.834   3.334  19.116  0.00  0.00    +0.000 C 
ATOM     17  C   UNL     1       1.730   2.233  19.656  0.00  0.00    +0.000 C 
ATOM     18  C   UNL     1       3.144   2.609  19.226  0.00  0.00    +0.000 C 
ENDBRANCH  11  14
ENDBRANCH   8  11
ENDBRANCH   3   5
BRANCH   2  19
ATOM     19  C   UNL     1      -0.539  10.869  22.109  0.00  0.00    +0.000 A 
ATOM     20  C   UNL     1      -1.411  11.010  23.179  0.00  0.00    +0.000 A 
ATOM     21  C   UNL     1      -2.326  12.036  22.832  0.00  0.00    +0.000 A 
ATOM     22  N   UNL     1      -2.018  12.549  21.630  0.00  0.00    +0.000 NA
ATOM     23  N   UNL     1      -0.963  11.818  21.190  0.00  0.00    +0.000 N 
BRANCH  21  24
ATOM     24  C   UNL     1      -3.519  12.488  23.634  0.00  0.00    +0.000 C 
ATOM     25  F   UNL     1      -3.289  13.694  24.229  0.00  0.00    +0.000 F 
ATOM     26  F   UNL     1      -4.637  12.642  22.878  0.00  0.00    +0.000 F 
ATOM     27  F   UNL     1      -3.827  11.624  24.638  0.00  0.00    +0.000 F 
ENDBRANCH  21  24
BRANCH  23  28
ATOM     28  C   UNL     1      -0.568  11.992  19.791  0.00  0.00    +0.000 C 
BRANCH  28  29
ATOM     29  C   UNL     1      -1.523  11.369  18.802  0.00  0.00    +0.000 A 
ATOM     30  C   UNL     1      -2.835  11.847  18.673  0.00  0.00    +0.000 A 
ATOM     31  C   UNL     1      -3.689  11.327  17.698  0.00  0.00    +0.000 A 
ATOM     32  C   UNL     1      -3.247  10.320  16.844  0.00  0.00    +0.000 A 
ATOM     33  C   UNL     1      -1.952   9.824  16.968  0.00  0.00    +0.000 A 
ATOM     34  C   UNL     1      -1.096  10.341  17.945  0.00  0.00    +0.000 A 
ENDBRANCH  28  29
ENDBRANCH  23  28
ENDBRANCH   2  19
TORSDOF 7
ENDMDL
MODEL 6
REMARK VINA RESULT:      -8.8      1.995      2.711
REMARK  Name = 
REMARK  7 active torsions:
REMARK  status: ('A' for Active; 'I' for Inactive)
REMARK    1  A    between atoms: C_2  and  C_18
REMARK    2  A    between atoms: N_3  and  C_4
REMARK    3  A    between atoms: C_7  and  S_8
REMARK    4  A    between atoms: S_8  and  N_11
REMARK    5  A    between atoms: C_20  and  C_21
REMARK    6  A    between atoms: N_26  and  C_27
REMARK    7  A    between atoms: C_27  and  C_28
REMARK                            x       y       z     vdW  Elec       q    Type
REMARK                         _______ _______ _______ _____ _____    ______ ____
ROOT
ATOM      1  O   UNL     1       5.480   7.589  17.856  0.00  0.00    +0.000 OA
ATOM      2  C   UNL     1       4.697   6.894  17.220  0.00  0.00    +0.000 C 
ATOM      3  N   UNL     1       3.316   7.064  17.242  0.00  0.00    +0.000 N 
ATOM      4  H   UNL     1       2.775   6.516  16.586  0.00  0.00    +0.000 HD
ENDROOT
BRANCH   3   5
ATOM      5  C   UNL     1       2.568   7.900  18.111  0.00  0.00    +0.000 A 
ATOM      6  C   UNL     1       2.169   9.198  17.777  0.00  0.00    +0.000 A 
ATOM      7  C   UNL     1       1.518  10.018  18.707  0.00  0.00    +0.000 A 
ATOM      8  C   UNL     1       1.236   9.541  19.986  0.00  0.00    +0.000 A 
ATOM      9  C   UNL     1       1.615   8.240  20.339  0.00  0.00    +0.000 A 
ATOM     10  C   UNL     1       2.269   7.424  19.398  0.00  0.00    +0.000 A 
BRANCH   8  11
ATOM     11  S   UNL     1       0.612  10.670  21.219  0.00  0.00    +0.000 S 
ATOM     12  O   UNL     1       0.574   9.949  22.475  0.00  0.00    +0.000 OA
ATOM     13  O   UNL     1       1.371  11.902  21.094  0.00  0.00    +0.000 OA
BRANCH  11  14
ATOM     14  N   UNL     1      -0.970  10.996  20.763  0.00  0.00    +0.000 NA
ATOM     15  C   UNL     1      -1.404  10.763  19.381  0.00  0.00    +0.000 C 
ATOM     16  C   UNL     1      -1.884  12.123  18.909  0.00  0.00    +0.000 C 
ATOM     17  C   UNL     1      -2.437  12.785  20.158  0.00  0.00    +0.000 C 
ATOM     18  C   UNL     1      -1.677  12.158  21.324  0.00  0.00    +0.000 C 
ENDBRANCH  11  14
ENDBRANCH   8  11
ENDBRANCH   3   5
BRANCH   2  19
ATOM     19  C   UNL     1       5.166   5.796  16.384  0.00  0.00    +0.000 A 
ATOM     20  C   UNL     1       5.342   5.737  15.009  0.00  0.00    +0.000 A 
ATOM     21  C   UNL     1       5.708   4.403  14.697  0.00  0.00    +0.000 A 
ATOM     22  N   UNL     1       5.808   3.673  15.818  0.00  0.00    +0.000 NA
ATOM     23  N   UNL     1       5.447   4.510  16.824  0.00  0.00    +0.000 N 
BRANCH  21  24
ATOM     24  C   UNL     1       5.917   3.825  13.321  0.00  0.00    +0.000 C 
ATOM     25  F   UNL     1       6.854   4.530  12.624  0.00  0.00    +0.000 F 
ATOM     26  F   UNL     1       6.348   2.538  13.348  0.00  0.00    +0.000 F 
ATOM     27  F   UNL     1       4.785   3.856  12.568  0.00  0.00    +0.000 F 
ENDBRANCH  21  24
BRANCH  23  28
ATOM     28  C   UNL     1       5.223   3.913  18.141  0.00  0.00    +0.000 C 
BRANCH  28  29
ATOM     29  C   UNL     1       3.772   3.878  18.560  0.00  0.00    +0.000 A 
ATOM     30  C   UNL     1       2.761   3.628  17.621  0.00  0.00    +0.000 A 
ATOM     31  C   UNL     1       1.429   3.510  18.025  0.00  0.00    +0.000 A 
ATOM     32  C   UNL     1       1.090   3.646  19.369  0.00  0.00    +0.000 A 
ATOM     33  C   UNL     1       2.080   3.909  20.311  0.00  0.00    +0.000 A 
ATOM     34  C   UNL     1       3.414   4.029  19.909  0.00  0.00    +0.000 A 
ENDBRANCH  28  29
ENDBRANCH  23  28
ENDBRANCH   2  19
TORSDOF 7
ENDMDL
MODEL 7
REMARK VINA RESULT:      -8.7      4.356      8.652
REMARK  Name = 
REMARK  7 active torsions:
REMARK  status: ('A' for Active; 'I' for Inactive)
REMARK    1  A    between atoms: C_2  and  C_18
REMARK    2  A    between atoms: N_3  and  C_4
REMARK    3  A    between atoms: C_7  and  S_8
REMARK    4  A    between atoms: S_8  and  N_11
REMARK    5  A    between atoms: C_20  and  C_21
REMARK    6  A    between atoms: N_26  and  C_27
REMARK    7  A    between atoms: C_27  and  C_28
REMARK                            x       y       z     vdW  Elec       q    Type
REMARK                         _______ _______ _______ _____ _____    ______ ____
ROOT
ATOM      1  O   UNL     1       0.459   9.210  17.542  0.00  0.00    +0.000 OA
ATOM      2  C   UNL     1       1.452   9.791  17.961  0.00  0.00    +0.000 C 
ATOM      3  N   UNL     1       2.645   9.151  18.284  0.00  0.00    +0.000 N 
ATOM      4  H   UNL     1       3.438   9.740  18.504  0.00  0.00    +0.000 HD
ENDROOT
BRANCH   3   5
ATOM      5  C   UNL     1       2.872   7.754  18.376  0.00  0.00    +0.000 A 
ATOM      6  C   UNL     1       2.510   6.986  19.487  0.00  0.00    +0.000 A 
ATOM      7  C   UNL     1       2.845   5.628  19.571  0.00  0.00    +0.000 A 
ATOM      8  C   UNL     1       3.534   5.011  18.528  0.00  0.00    +0.000 A 
ATOM      9  C   UNL     1       3.897   5.757  17.400  0.00  0.00    +0.000 A 
ATOM     10  C   UNL     1       3.555   7.120  17.326  0.00  0.00    +0.000 A 
BRANCH   8  11
ATOM     11  S   UNL     1       4.144   3.349  18.751  0.00  0.00    +0.000 S 
ATOM     12  O   UNL     1       4.247   2.754  17.434  0.00  0.00    +0.000 OA
ATOM     13  O   UNL     1       5.305   3.432  19.619  0.00  0.00    +0.000 OA
BRANCH  11  14
ATOM     14  N   UNL     1       2.935   2.541  19.590  0.00  0.00    +0.000 NA
ATOM     15  C   UNL     1       1.597   2.402  19.007  0.00  0.00    +0.000 C 
ATOM     16  C   UNL     1       0.681   3.066  20.018  0.00  0.00    +0.000 C 
ATOM     17  C   UNL     1       1.349   2.815  21.358  0.00  0.00    +0.000 C 
ATOM     18  C   UNL     1       2.837   2.671  21.053  0.00  0.00    +0.000 C 
ENDBRANCH  11  14
ENDBRANCH   8  11
ENDBRANCH   3   5
BRANCH   2  19
ATOM     19  C   UNL     1       1.451  11.232  18.176  0.00  0.00    +0.000 A 
ATOM     20  C   UNL     1       2.472  12.157  18.010  0.00  0.00    +0.000 A 
ATOM     21  C   UNL     1       1.977  13.405  18.466  0.00  0.00    +0.000 A 
ATOM     22  N   UNL     1       0.697  13.286  18.853  0.00  0.00    +0.000 NA
ATOM     23  N   UNL     1       0.401  11.969  18.706  0.00  0.00    +0.000 N 
BRANCH  21  24
ATOM     24  C   UNL     1       2.749  14.695  18.572  0.00  0.00    +0.000 C 
ATOM     25  F   UNL     1       3.635  14.659  19.608  0.00  0.00    +0.000 F 
ATOM     26  F   UNL     1       3.474  14.970  17.458  0.00  0.00    +0.000 F 
ATOM     27  F   UNL     1       1.941  15.765  18.803  0.00  0.00    +0.000 F 
ENDBRANCH  21  24
BRANCH  23  28
ATOM     28  C   UNL     1      -0.857  11.500  19.288  0.00  0.00    +0.000 C 
BRANCH  28  29
ATOM     29  C   UNL     1      -0.717  10.934  20.680  0.00  0.00    +0.000 A 
ATOM     30  C   UNL     1      -1.111  11.681  21.800  0.00  0.00    +0.000 A 
ATOM     31  C   UNL     1      -1.061  11.124  23.080  0.00  0.00    +0.000 A 
ATOM     32  C   UNL     1      -0.612   9.818  23.259  0.00  0.00    +0.000 A 
ATOM     33  C   UNL     1      -0.203   9.068  22.159  0.00  0.00    +0.000 A 
ATOM     34  C   UNL     1      -0.250   9.624  20.877  0.00  0.00    +0.000 A 
ENDBRANCH  28  29
ENDBRANCH  23  28
ENDBRANCH   2  19
TORSDOF 7
ENDMDL
MODEL 8
REMARK VINA RESULT:      -8.7      0.510      1.073
REMARK  Name = 
REMARK  7 active torsions:
REMARK  status: ('A' for Active; 'I' for Inactive)
REMARK    1  A    between atoms: C_2  and  C_18
REMARK    2  A    between atoms: N_3  and  C_4
REMARK    3  A    between atoms: C_7  and  S_8
REMARK    4  A    between atoms: S_8  and  N_11
REMARK    5  A    between atoms: C_20  and  C_21
REMARK    6  A    between atoms: N_26  and  C_27
REMARK    7  A    between atoms: C_27  and  C_28
REMARK                            x       y       z     vdW  Elec       q    Type
REMARK                         _______ _______ _______ _____ _____    ______ ____
ROOT
ATOM      1  O   UNL     1       2.572   6.940  19.421  0.00  0.00    +0.000 OA
ATOM      2  C   UNL     1       2.981   7.117  18.280  0.00  0.00    +0.000 C 
ATOM      3  N   UNL     1       2.729   8.266  17.536  0.00  0.00    +0.000 N 
ATOM      4  H   UNL     1       3.216   8.359  16.654  0.00  0.00    +0.000 HD
ENDROOT
BRANCH   3   5
ATOM      5  C   UNL     1       1.833   9.318  17.858  0.00  0.00    +0.000 A 
ATOM      6  C   UNL     1       2.248  10.561  18.346  0.00  0.00    +0.000 A 
ATOM      7  C   UNL     1       1.318  11.531  18.743  0.00  0.00    +0.000 A 
ATOM      8  C   UNL     1      -0.048  11.277  18.637  0.00  0.00    +0.000 A 
ATOM      9  C   UNL     1      -0.487  10.043  18.139  0.00  0.00    +0.000 A 
ATOM     10  C   UNL     1       0.454   9.076  17.743  0.00  0.00    +0.000 A 
BRANCH   8  11
ATOM     11  S   UNL     1      -1.207  12.430  19.352  0.00  0.00    +0.000 S 
ATOM     12  O   UNL     1      -0.476  13.648  19.633  0.00  0.00    +0.000 OA
ATOM     13  O   UNL     1      -2.378  12.448  18.494  0.00  0.00    +0.000 OA
BRANCH  11  14
ATOM     14  N   UNL     1      -1.660  11.750  20.819  0.00  0.00    +0.000 NA
ATOM     15  C   UNL     1      -2.372  12.555  21.818  0.00  0.00    +0.000 C 
ATOM     16  C   UNL     1      -1.475  12.508  23.041  0.00  0.00    +0.000 C 
ATOM     17  C   UNL     1      -0.809  11.146  22.970  0.00  0.00    +0.000 C 
ATOM     18  C   UNL     1      -0.779  10.781  21.489  0.00  0.00    +0.000 C 
ENDBRANCH  11  14
ENDBRANCH   8  11
ENDBRANCH   3   5
BRANCH   2  19
ATOM     19  C   UNL     1       3.767   6.101  17.592  0.00  0.00    +0.000 A 
ATOM     20  C   UNL     1       4.950   6.224  16.877  0.00  0.00    +0.000 A 
ATOM     21  C   UNL     1       5.228   4.952  16.317  0.00  0.00    +0.000 A 
ATOM     22  N   UNL     1       4.299   4.062  16.697  0.00  0.00    +0.000 NA
ATOM     23  N   UNL     1       3.407   4.770  17.436  0.00  0.00    +0.000 N 
BRANCH  21  24
ATOM     24  C   UNL     1       6.359   4.608  15.381  0.00  0.00    +0.000 C 
ATOM     25  F   UNL     1       6.159   3.396  14.787  0.00  0.00    +0.000 F 
ATOM     26  F   UNL     1       6.504   5.508  14.375  0.00  0.00    +0.000 F 
ATOM     27  F   UNL     1       7.555   4.522  16.022  0.00  0.00    +0.000 F 
ENDBRANCH  21  24
BRANCH  23  28
ATOM     28  C   UNL     1       2.148   4.106  17.778  0.00  0.00    +0.000 C 
BRANCH  28  29
ATOM     29  C   UNL     1       2.142   3.471  19.148  0.00  0.00    +0.000 A 
ATOM     30  C   UNL     1       3.315   2.925  19.690  0.00  0.00    +0.000 A 
ATOM     31  C   UNL     1       3.327   2.416  20.991  0.00  0.00    +0.000 A 
ATOM     32  C   UNL     1       2.169   2.440  21.764  0.00  0.00    +0.000 A 
ATOM     33  C   UNL     1       0.993   2.965  21.235  0.00  0.00    +0.000 A 
ATOM     34  C   UNL     1       0.977   3.473  19.933  0.00  0.00    +0.000 A 
ENDBRANCH  28  29
ENDBRANCH  23  28
ENDBRANCH   2  19
TORSDOF 7
ENDMDL
MODEL 9
REMARK VINA RESULT:      -8.7      1.951      2.409
REMARK  Name = 
REMARK  7 active torsions:
REMARK  status: ('A' for Active; 'I' for Inactive)
REMARK    1  A    between atoms: C_2  and  C_18
REMARK    2  A    between atoms: N_3  and  C_4
REMARK    3  A    between atoms: C_7  and  S_8
REMARK    4  A    between atoms: S_8  and  N_11
REMARK    5  A    between atoms: C_20  and  C_21
REMARK    6  A    between atoms: N_26  and  C_27
REMARK    7  A    between atoms: C_27  and  C_28
REMARK                            x       y       z     vdW  Elec       q    Type
REMARK                         _______ _______ _______ _____ _____    ______ ____
ROOT
ATOM      1  O   UNL     1       2.052   8.919  17.140  0.00  0.00    +0.000 OA
ATOM      2  C   UNL     1       2.419   8.169  18.035  0.00  0.00    +0.000 C 
ATOM      3  N   UNL     1       1.940   8.228  19.341  0.00  0.00    +0.000 N 
ATOM      4  H   UNL     1       2.219   7.485  19.967  0.00  0.00    +0.000 HD
ENDROOT
BRANCH   3   5
ATOM      5  C   UNL     1       1.124   9.239  19.910  0.00  0.00    +0.000 A 
ATOM      6  C   UNL     1       0.602  10.311  19.179  0.00  0.00    +0.000 A 
ATOM      7  C   UNL     1      -0.116  11.337  19.808  0.00  0.00    +0.000 A 
ATOM      8  C   UNL     1      -0.341  11.294  21.183  0.00  0.00    +0.000 A 
ATOM      9  C   UNL     1       0.161  10.223  21.934  0.00  0.00    +0.000 A 
ATOM     10  C   UNL     1       0.881   9.199  21.293  0.00  0.00    +0.000 A 
BRANCH   8  11
ATOM     11  S   UNL     1      -1.058  12.712  21.993  0.00  0.00    +0.000 S 
ATOM     12  O   UNL     1      -0.413  12.836  23.284  0.00  0.00    +0.000 OA
ATOM     13  O   UNL     1      -1.029  13.809  21.042  0.00  0.00    +0.000 OA
BRANCH  11  14
ATOM     14  N   UNL     1      -2.667  12.307  22.256  0.00  0.00    +0.000 NA
ATOM     15  C   UNL     1      -3.711  12.808  21.357  0.00  0.00    +0.000 C 
ATOM     16  C   UNL     1      -4.642  13.588  22.266  0.00  0.00    +0.000 C 
ATOM     17  C   UNL     1      -4.565  12.864  23.599  0.00  0.00    +0.000 C 
ATOM     18  C   UNL     1      -3.189  12.206  23.628  0.00  0.00    +0.000 C 
ENDBRANCH  11  14
ENDBRANCH   8  11
ENDBRANCH   3   5
BRANCH   2  19
ATOM     19  C   UNL     1       3.427   7.143  17.798  0.00  0.00    +0.000 A 
ATOM     20  C   UNL     1       4.761   7.274  17.441  0.00  0.00    +0.000 A 
ATOM     21  C   UNL     1       5.261   5.964  17.227  0.00  0.00    +0.000 A 
ATOM     22  N   UNL     1       4.308   5.054  17.484  0.00  0.00    +0.000 NA
ATOM     23  N   UNL     1       3.200   5.775  17.794  0.00  0.00    +0.000 N 
BRANCH  21  24
ATOM     24  C   UNL     1       6.636   5.594  16.733  0.00  0.00    +0.000 C 
ATOM     25  F   UNL     1       7.148   4.542  17.433  0.00  0.00    +0.000 F 
ATOM     26  F   UNL     1       6.646   5.226  15.426  0.00  0.00    +0.000 F 
ATOM     27  F   UNL     1       7.529   6.611  16.873  0.00  0.00    +0.000 F 
ENDBRANCH  21  24
BRANCH  23  28
ATOM     28  C   UNL     1       1.934   5.046  17.879  0.00  0.00    +0.000 C 
BRANCH  28  29
ATOM     29  C   UNL     1       1.772   4.242  19.146  0.00  0.00    +0.000 A 
ATOM     30  C   UNL     1       1.266   2.934  19.105  0.00  0.00    +0.000 A 
ATOM     31  C   UNL     1       1.198   2.162  20.267  0.00  0.00    +0.000 A 
ATOM     32  C   UNL     1       1.629   2.686  21.484  0.00  0.00    +0.000 A 
ATOM     33  C   UNL     1       2.120   3.987  21.543  0.00  0.00    +0.000 A 
ATOM     34  C   UNL     1       2.187   4.763  20.383  0.00  0.00    +0.000 A 
ENDBRANCH  28  29
ENDBRANCH  23  28
ENDBRANCH   2  19
TORSDOF 7
ENDMDL
