MODEL 1
REMARK VINA RESULT:      -7.6      0.000      0.000
REMARK  Name = 
REMARK  6 active torsions:
REMARK  status: ('A' for Active; 'I' for Inactive)
REMARK    1  A    between atoms: C_1  and  C_2
REMARK    2  A    between atoms: C_2  and  C_3
REMARK    3  A    between atoms: C_3  and  C_4
REMARK    4  A    between atoms: C_4  and  C_5
REMARK    5  A    between atoms: C_5  and  C_6
REMARK    6  A    between atoms: N_8  and  C_9
REMARK                            x       y       z     vdW  Elec       q    Type
REMARK                         _______ _______ _______ _____ _____    ______ ____
ROOT
ATOM      1  C   UNL     1       5.009   5.103  18.144  0.00  0.00    +0.000 A 
ATOM      2  C   UNL     1       4.601   4.292  17.087  0.00  0.00    +0.000 A 
ATOM      3  C   UNL     1       3.441   3.524  17.185  0.00  0.00    +0.000 A 
ATOM      4  C   UNL     1       2.661   3.548  18.344  0.00  0.00    +0.000 A 
ATOM      5  C   UNL     1       1.471   2.811  18.424  0.00  0.00    +0.000 A 
ATOM      6  C   UNL     1       0.685   2.852  19.574  0.00  0.00    +0.000 A 
ATOM      7  C   UNL     1       1.090   3.620  20.661  0.00  0.00    +0.000 A 
ATOM      8  C   UNL     1       2.279   4.352  20.600  0.00  0.00    +0.000 A 
ATOM      9  C   UNL     1       3.078   4.335  19.441  0.00  0.00    +0.000 A 
ATOM     10  C   UNL     1       4.264   5.090  19.334  0.00  0.00    +0.000 A 
ENDROOT
BRANCH   1  13
ATOM     11  C   UNL     1       7.193   5.971  18.973  0.00  0.00    +0.000 C 
ATOM     12  O   UNL     1       7.344   5.232  19.940  0.00  0.00    +0.000 OA
ATOM     13  N   UNL     1       6.144   5.942  18.067  0.00  0.00    +0.000 N 
ATOM     14  H   UNL     1       6.254   6.479  17.215  0.00  0.00    +0.000 HD
BRANCH  11  15
ATOM     15  C   UNL     1       8.234   7.027  18.661  0.00  0.00    +0.000 C 
BRANCH  15  16
ATOM     16  C   UNL     1       7.777   7.932  17.522  0.00  0.00    +0.000 C 
BRANCH  16  17
ATOM     17  C   UNL     1       7.986   9.408  17.862  0.00  0.00    +0.000 C 
BRANCH  17  19
ATOM     18  C   UNL     1       9.716  10.938  18.870  0.00  0.00    +0.000 C 
ATOM     19  C   UNL     1       9.064   9.568  18.931  0.00  0.00    +0.000 C 
ENDBRANCH  17  19
ENDBRANCH  16  17
ENDBRANCH  15  16
ENDBRANCH  11  15
ENDBRANCH   1  13
TORSDOF 5
ENDMDL
MODEL 2
REMARK VINA RESULT:      -7.5      3.148      5.082
REMARK  Name = 
REMARK  6 active torsions:
REMARK  status: ('A' for Active; 'I' for Inactive)
REMARK    1  A    between atoms: C_1  and  C_2
REMARK    2  A    between atoms: C_2  and  C_3
REMARK    3  A    between atoms: C_3  and  C_4
REMARK    4  A    between atoms: C_4  and  C_5
REMARK    5  A    between atoms: C_5  and  C_6
REMARK    6  A    between atoms: N_8  and  C_9
REMARK                            x       y       z     vdW  Elec       q    Type
REMARK                         _______ _______ _______ _____ _____    ______ ____
ROOT
ATOM      1  C   UNL     1       4.977   4.383  17.538  0.00  0.00    +0.000 A 
ATOM      2  C   UNL     1       5.085   5.274  18.603  0.00  0.00    +0.000 A 
ATOM      3  C   UNL     1       4.096   5.336  19.585  0.00  0.00    +0.000 A 
ATOM      4  C   UNL     1       2.973   4.506  19.523  0.00  0.00    +0.000 A 
ATOM      5  C   UNL     1       2.002   4.536  20.535  0.00  0.00    +0.000 A 
ATOM      6  C   UNL     1       0.892   3.695  20.480  0.00  0.00    +0.000 A 
ATOM      7  C   UNL     1       0.736   2.825  19.406  0.00  0.00    +0.000 A 
ATOM      8  C   UNL     1       1.690   2.792  18.385  0.00  0.00    +0.000 A 
ATOM      9  C   UNL     1       2.825   3.623  18.431  0.00  0.00    +0.000 A 
ATOM     10  C   UNL     1       3.824   3.588  17.436  0.00  0.00    +0.000 A 
ENDROOT
BRANCH   1  13
ATOM     11  C   UNL     1       6.212   5.121  15.503  0.00  0.00    +0.000 C 
ATOM     12  O   UNL     1       5.636   6.184  15.298  0.00  0.00    +0.000 OA
ATOM     13  N   UNL     1       5.981   4.246  16.554  0.00  0.00    +0.000 N 
ATOM     14  H   UNL     1       6.662   3.511  16.701  0.00  0.00    +0.000 HD
BRANCH  11  15
ATOM     15  C   UNL     1       7.317   4.669  14.570  0.00  0.00    +0.000 C 
BRANCH  15  16
ATOM     16  C   UNL     1       6.801   4.502  13.144  0.00  0.00    +0.000 C 
BRANCH  16  17
ATOM     17  C   UNL     1       5.517   3.673  13.106  0.00  0.00    +0.000 C 
BRANCH  17  19
ATOM     18  C   UNL     1       3.974   3.201  11.171  0.00  0.00    +0.000 C 
ATOM     19  C   UNL     1       5.360   2.985  11.752  0.00  0.00    +0.000 C 
ENDBRANCH  17  19
ENDBRANCH  16  17
ENDBRANCH  15  16
ENDBRANCH  11  15
ENDBRANCH   1  13
TORSDOF 5
ENDMDL
MODEL 3
REMARK VINA RESULT:      -7.5      0.910      1.016
REMARK  Name = 
REMARK  6 active torsions:
REMARK  status: ('A' for Active; 'I' for Inactive)
REMARK    1  A    between atoms: C_1  and  C_2
REMARK    2  A    between atoms: C_2  and  C_3
REMARK    3  A    between atoms: C_3  and  C_4
REMARK    4  A    between atoms: C_4  and  C_5
REMARK    5  A    between atoms: C_5  and  C_6
REMARK    6  A    between atoms: N_8  and  C_9
REMARK                            x       y       z     vdW  Elec       q    Type
REMARK                         _______ _______ _______ _____ _____    ______ ____
ROOT
ATOM      1  C   UNL     1       4.620   5.646  17.623  0.00  0.00    +0.000 A 
ATOM      2  C   UNL     1       4.475   4.523  16.812  0.00  0.00    +0.000 A 
ATOM      3  C   UNL     1       3.509   3.557  17.096  0.00  0.00    +0.000 A 
ATOM      4  C   UNL     1       2.665   3.693  18.202  0.00  0.00    +0.000 A 
ATOM      5  C   UNL     1       1.664   2.744  18.461  0.00  0.00    +0.000 A 
ATOM      6  C   UNL     1       0.812   2.891  19.554  0.00  0.00    +0.000 A 
ATOM      7  C   UNL     1       0.961   3.981  20.406  0.00  0.00    +0.000 A 
ATOM      8  C   UNL     1       1.961   4.928  20.166  0.00  0.00    +0.000 A 
ATOM      9  C   UNL     1       2.821   4.804  19.059  0.00  0.00    +0.000 A 
ATOM     10  C   UNL     1       3.816   5.761  18.769  0.00  0.00    +0.000 A 
ENDROOT
BRANCH   1  13
ATOM     11  C   UNL     1       6.886   6.680  17.686  0.00  0.00    +0.000 C 
ATOM     12  O   UNL     1       7.504   5.767  18.225  0.00  0.00    +0.000 OA
ATOM     13  N   UNL     1       5.543   6.677  17.340  0.00  0.00    +0.000 N 
ATOM     14  H   UNL     1       5.222   7.418  16.729  0.00  0.00    +0.000 HD
BRANCH  11  15
ATOM     15  C   UNL     1       7.607   7.958  17.307  0.00  0.00    +0.000 C 
BRANCH  15  16
ATOM     16  C   UNL     1       8.473   8.464  18.455  0.00  0.00    +0.000 C 
BRANCH  16  17
ATOM     17  C   UNL     1       8.764   9.959  18.320  0.00  0.00    +0.000 C 
BRANCH  17  19
ATOM     18  C   UNL     1      10.636  11.363  19.256  0.00  0.00    +0.000 C 
ATOM     19  C   UNL     1       9.435  10.494  19.583  0.00  0.00    +0.000 C 
ENDBRANCH  17  19
ENDBRANCH  16  17
ENDBRANCH  15  16
ENDBRANCH  11  15
ENDBRANCH   1  13
TORSDOF 5
ENDMDL
MODEL 4
REMARK VINA RESULT:      -7.5      4.099      6.418
REMARK  Name = 
REMARK  6 active torsions:
REMARK  status: ('A' for Active; 'I' for Inactive)
REMARK    1  A    between atoms: C_1  and  C_2
REMARK    2  A    between atoms: C_2  and  C_3
REMARK    3  A    between atoms: C_3  and  C_4
REMARK    4  A    between atoms: C_4  and  C_5
REMARK    5  A    between atoms: C_5  and  C_6
REMARK    6  A    between atoms: N_8  and  C_9
REMARK                            x       y       z     vdW  Elec       q    Type
REMARK                         _______ _______ _______ _____ _____    ______ ____
ROOT
ATOM      1  C   UNL     1       5.933   4.000  15.543  0.00  0.00    +0.000 A 
ATOM      2  C   UNL     1       6.941   4.299  16.457  0.00  0.00    +0.000 A 
ATOM      3  C   UNL     1       6.629   4.720  17.751  0.00  0.00    +0.000 A 
ATOM      4  C   UNL     1       5.298   4.851  18.160  0.00  0.00    +0.000 A 
ATOM      5  C   UNL     1       4.986   5.229  19.474  0.00  0.00    +0.000 A 
ATOM      6  C   UNL     1       3.659   5.342  19.884  0.00  0.00    +0.000 A 
ATOM      7  C   UNL     1       2.631   5.090  18.980  0.00  0.00    +0.000 A 
ATOM      8  C   UNL     1       2.928   4.723  17.665  0.00  0.00    +0.000 A 
ATOM      9  C   UNL     1       4.262   4.590  17.236  0.00  0.00    +0.000 A 
ATOM     10  C   UNL     1       4.595   4.186  15.926  0.00  0.00    +0.000 A 
ENDROOT
BRANCH   1  13
ATOM     11  C   UNL     1       6.840   4.218  13.232  0.00  0.00    +0.000 C 
ATOM     12  O   UNL     1       7.336   5.337  13.321  0.00  0.00    +0.000 OA
ATOM     13  N   UNL     1       6.202   3.516  14.244  0.00  0.00    +0.000 N 
ATOM     14  H   UNL     1       6.019   2.533  14.079  0.00  0.00    +0.000 HD
BRANCH  11  15
ATOM     15  C   UNL     1       6.922   3.458  11.925  0.00  0.00    +0.000 C 
BRANCH  15  16
ATOM     16  C   UNL     1       5.654   2.648  11.676  0.00  0.00    +0.000 C 
BRANCH  16  17
ATOM     17  C   UNL     1       4.421   3.549  11.594  0.00  0.00    +0.000 C 
BRANCH  17  19
ATOM     18  C   UNL     1       3.030   4.088   9.564  0.00  0.00    +0.000 C 
ATOM     19  C   UNL     1       3.433   3.015  10.559  0.00  0.00    +0.000 C 
ENDBRANCH  17  19
ENDBRANCH  16  17
ENDBRANCH  15  16
ENDBRANCH  11  15
ENDBRANCH   1  13
TORSDOF 5
ENDMDL
MODEL 5
REMARK VINA RESULT:      -7.4      3.362      5.410
REMARK  Name = 
REMARK  6 active torsions:
REMARK  status: ('A' for Active; 'I' for Inactive)
REMARK    1  A    between atoms: C_1  and  C_2
REMARK    2  A    between atoms: C_2  and  C_3
REMARK    3  A    between atoms: C_3  and  C_4
REMARK    4  A    between atoms: C_4  and  C_5
REMARK    5  A    between atoms: C_5  and  C_6
REMARK    6  A    between atoms: N_8  and  C_9
REMARK                            x       y       z     vdW  Elec       q    Type
REMARK                         _______ _______ _______ _____ _____    ______ ____
ROOT
ATOM      1  C   UNL     1       4.909   4.142  17.265  0.00  0.00    +0.000 A 
ATOM      2  C   UNL     1       5.285   4.917  18.360  0.00  0.00    +0.000 A 
ATOM      3  C   UNL     1       4.451   5.032  19.472  0.00  0.00    +0.000 A 
ATOM      4  C   UNL     1       3.219   4.374  19.515  0.00  0.00    +0.000 A 
ATOM      5  C   UNL     1       2.402   4.454  20.653  0.00  0.00    +0.000 A 
ATOM      6  C   UNL     1       1.182   3.783  20.699  0.00  0.00    +0.000 A 
ATOM      7  C   UNL     1       0.761   3.035  19.604  0.00  0.00    +0.000 A 
ATOM      8  C   UNL     1       1.560   2.956  18.460  0.00  0.00    +0.000 A 
ATOM      9  C   UNL     1       2.802   3.615  18.400  0.00  0.00    +0.000 A 
ATOM     10  C   UNL     1       3.647   3.525  17.275  0.00  0.00    +0.000 A 
ENDROOT
BRANCH   1  13
ATOM     11  C   UNL     1       5.988   4.878  15.143  0.00  0.00    +0.000 C 
ATOM     12  O   UNL     1       5.577   6.034  15.105  0.00  0.00    +0.000 OA
ATOM     13  N   UNL     1       5.746   3.949  16.144  0.00  0.00    +0.000 N 
ATOM     14  H   UNL     1       6.307   3.106  16.136  0.00  0.00    +0.000 HD
BRANCH  11  15
ATOM     15  C   UNL     1       6.877   4.357  14.033  0.00  0.00    +0.000 C 
BRANCH  15  16
ATOM     16  C   UNL     1       6.072   3.571  13.004  0.00  0.00    +0.000 C 
BRANCH  16  17
ATOM     17  C   UNL     1       6.772   3.546  11.645  0.00  0.00    +0.000 C 
BRANCH  17  19
ATOM     18  C   UNL     1       6.210   1.148  11.110  0.00  0.00    +0.000 C 
ATOM     19  C   UNL     1       7.323   2.153  11.348  0.00  0.00    +0.000 C 
ENDBRANCH  17  19
ENDBRANCH  16  17
ENDBRANCH  15  16
ENDBRANCH  11  15
ENDBRANCH   1  13
TORSDOF 5
ENDMDL
MODEL 6
REMARK VINA RESULT:      -7.4      3.528      4.967
REMARK  Name = 
REMARK  6 active torsions:
REMARK  status: ('A' for Active; 'I' for Inactive)
REMARK    1  A    between atoms: C_1  and  C_2
REMARK    2  A    between atoms: C_2  and  C_3
REMARK    3  A    between atoms: C_3  and  C_4
REMARK    4  A    between atoms: C_4  and  C_5
REMARK    5  A    between atoms: C_5  and  C_6
REMARK    6  A    between atoms: N_8  and  C_9
REMARK                            x       y       z     vdW  Elec       q    Type
REMARK                         _______ _______ _______ _____ _____    ______ ____
ROOT
ATOM      1  C   UNL     1       3.575   3.807  17.209  0.00  0.00    +0.000 A 
ATOM      2  C   UNL     1       2.229   4.126  17.045  0.00  0.00    +0.000 A 
ATOM      3  C   UNL     1       1.322   3.952  18.090  0.00  0.00    +0.000 A 
ATOM      4  C   UNL     1       1.742   3.453  19.327  0.00  0.00    +0.000 A 
ATOM      5  C   UNL     1       0.838   3.321  20.392  0.00  0.00    +0.000 A 
ATOM      6  C   UNL     1       1.263   2.840  21.629  0.00  0.00    +0.000 A 
ATOM      7  C   UNL     1       2.593   2.474  21.809  0.00  0.00    +0.000 A 
ATOM      8  C   UNL     1       3.502   2.590  20.754  0.00  0.00    +0.000 A 
ATOM      9  C   UNL     1       3.095   3.087  19.502  0.00  0.00    +0.000 A 
ATOM     10  C   UNL     1       3.995   3.250  18.428  0.00  0.00    +0.000 A 
ENDROOT
BRANCH   1  13
ATOM     11  C   UNL     1       5.276   5.181  16.013  0.00  0.00    +0.000 C 
ATOM     12  O   UNL     1       5.266   6.175  16.733  0.00  0.00    +0.000 OA
ATOM     13  N   UNL     1       4.538   4.022  16.198  0.00  0.00    +0.000 N 
ATOM     14  H   UNL     1       4.795   3.217  15.638  0.00  0.00    +0.000 HD
BRANCH  11  15
ATOM     15  C   UNL     1       6.181   5.137  14.800  0.00  0.00    +0.000 C 
BRANCH  15  16
ATOM     16  C   UNL     1       6.232   3.736  14.200  0.00  0.00    +0.000 C 
BRANCH  16  17
ATOM     17  C   UNL     1       6.466   3.781  12.690  0.00  0.00    +0.000 C 
BRANCH  17  19
ATOM     18  C   UNL     1       4.319   3.313  11.456  0.00  0.00    +0.000 C 
ATOM     19  C   UNL     1       5.617   2.727  11.982  0.00  0.00    +0.000 C 
ENDBRANCH  17  19
ENDBRANCH  16  17
ENDBRANCH  15  16
ENDBRANCH  11  15
ENDBRANCH   1  13
TORSDOF 5
ENDMDL
MODEL 7
REMARK VINA RESULT:      -7.3      3.313      5.149
REMARK  Name = 
REMARK  6 active torsions:
REMARK  status: ('A' for Active; 'I' for Inactive)
REMARK    1  A    between atoms: C_1  and  C_2
REMARK    2  A    between atoms: C_2  and  C_3
REMARK    3  A    between atoms: C_3  and  C_4
REMARK    4  A    between atoms: C_4  and  C_5
REMARK    5  A    between atoms: C_5  and  C_6
REMARK    6  A    between atoms: N_8  and  C_9
REMARK                            x       y       z     vdW  Elec       q    Type
REMARK                         _______ _______ _______ _____ _____    ______ ____
ROOT
ATOM      1  C   UNL     1       4.112   4.839  17.145  0.00  0.00    +0.000 A 
ATOM      2  C   UNL     1       3.990   6.000  17.907  0.00  0.00    +0.000 A 
ATOM      3  C   UNL     1       3.304   5.987  19.122  0.00  0.00    +0.000 A 
ATOM      4  C   UNL     1       2.722   4.810  19.603  0.00  0.00    +0.000 A 
ATOM      5  C   UNL     1       2.072   4.788  20.846  0.00  0.00    +0.000 A 
ATOM      6  C   UNL     1       1.508   3.610  21.331  0.00  0.00    +0.000 A 
ATOM      7  C   UNL     1       1.577   2.446  20.573  0.00  0.00    +0.000 A 
ATOM      8  C   UNL     1       2.213   2.456  19.328  0.00  0.00    +0.000 A 
ATOM      9  C   UNL     1       2.801   3.633  18.827  0.00  0.00    +0.000 A 
ATOM     10  C   UNL     1       3.480   3.667  17.592  0.00  0.00    +0.000 A 
ENDROOT
BRANCH   1  13
ATOM     11  C   UNL     1       6.225   4.682  15.833  0.00  0.00    +0.000 C 
ATOM     12  O   UNL     1       7.019   4.536  16.757  0.00  0.00    +0.000 OA
ATOM     13  N   UNL     1       4.846   4.793  15.940  0.00  0.00    +0.000 N 
ATOM     14  H   UNL     1       4.309   4.713  15.084  0.00  0.00    +0.000 HD
BRANCH  11  15
ATOM     15  C   UNL     1       6.728   4.727  14.405  0.00  0.00    +0.000 C 
BRANCH  15  16
ATOM     16  C   UNL     1       6.385   3.443  13.658  0.00  0.00    +0.000 C 
BRANCH  16  17
ATOM     17  C   UNL     1       6.233   3.691  12.157  0.00  0.00    +0.000 C 
BRANCH  17  19
ATOM     18  C   UNL     1       3.963   3.231  11.166  0.00  0.00    +0.000 C 
ATOM     19  C   UNL     1       5.316   2.645  11.528  0.00  0.00    +0.000 C 
ENDBRANCH  17  19
ENDBRANCH  16  17
ENDBRANCH  15  16
ENDBRANCH  11  15
ENDBRANCH   1  13
TORSDOF 5
ENDMDL
MODEL 8
REMARK VINA RESULT:      -7.3      1.152      1.317
REMARK  Name = 
REMARK  6 active torsions:
REMARK  status: ('A' for Active; 'I' for Inactive)
REMARK    1  A    between atoms: C_1  and  C_2
REMARK    2  A    between atoms: C_2  and  C_3
REMARK    3  A    between atoms: C_3  and  C_4
REMARK    4  A    between atoms: C_4  and  C_5
REMARK    5  A    between atoms: C_5  and  C_6
REMARK    6  A    between atoms: N_8  and  C_9
REMARK                            x       y       z     vdW  Elec       q    Type
REMARK                         _______ _______ _______ _____ _____    ______ ____
ROOT
ATOM      1  C   UNL     1       5.383   5.099  18.467  0.00  0.00    +0.000 A 
ATOM      2  C   UNL     1       5.231   4.220  17.397  0.00  0.00    +0.000 A 
ATOM      3  C   UNL     1       4.083   3.436  17.275  0.00  0.00    +0.000 A 
ATOM      4  C   UNL     1       3.058   3.515  18.223  0.00  0.00    +0.000 A 
ATOM      5  C   UNL     1       1.885   2.761  18.074  0.00  0.00    +0.000 A 
ATOM      6  C   UNL     1       0.858   2.854  19.011  0.00  0.00    +0.000 A 
ATOM      7  C   UNL     1       1.000   3.692  20.113  0.00  0.00    +0.000 A 
ATOM      8  C   UNL     1       2.168   4.441  20.278  0.00  0.00    +0.000 A 
ATOM      9  C   UNL     1       3.210   4.371  19.335  0.00  0.00    +0.000 A 
ATOM     10  C   UNL     1       4.386   5.140  19.455  0.00  0.00    +0.000 A 
ENDROOT
BRANCH   1  13
ATOM     11  C   UNL     1       6.880   6.937  17.700  0.00  0.00    +0.000 C 
ATOM     12  O   UNL     1       6.274   7.275  16.689  0.00  0.00    +0.000 OA
ATOM     13  N   UNL     1       6.501   5.952  18.599  0.00  0.00    +0.000 N 
ATOM     14  H   UNL     1       6.994   5.919  19.484  0.00  0.00    +0.000 HD
BRANCH  11  15
ATOM     15  C   UNL     1       8.165   7.643  18.081  0.00  0.00    +0.000 C 
BRANCH  15  16
ATOM     16  C   UNL     1       8.037   9.153  17.909  0.00  0.00    +0.000 C 
BRANCH  16  17
ATOM     17  C   UNL     1       8.995   9.906  18.832  0.00  0.00    +0.000 C 
BRANCH  17  19
ATOM     18  C   UNL     1      10.981  11.457  18.772  0.00  0.00    +0.000 C 
ATOM     19  C   UNL     1       9.700  11.030  18.076  0.00  0.00    +0.000 C 
ENDBRANCH  17  19
ENDBRANCH  16  17
ENDBRANCH  15  16
ENDBRANCH  11  15
ENDBRANCH   1  13
TORSDOF 5
ENDMDL
MODEL 9
REMARK VINA RESULT:      -7.3      3.266      5.330
REMARK  Name = 
REMARK  6 active torsions:
REMARK  status: ('A' for Active; 'I' for Inactive)
REMARK    1  A    between atoms: C_1  and  C_2
REMARK    2  A    between atoms: C_2  and  C_3
REMARK    3  A    between atoms: C_3  and  C_4
REMARK    4  A    between atoms: C_4  and  C_5
REMARK    5  A    between atoms: C_5  and  C_6
REMARK    6  A    between atoms: N_8  and  C_9
REMARK                            x       y       z     vdW  Elec       q    Type
REMARK                         _______ _______ _______ _____ _____    ______ ____
ROOT
ATOM      1  C   UNL     1       4.339   4.772  16.631  0.00  0.00    +0.000 A 
ATOM      2  C   UNL     1       4.350   5.953  17.369  0.00  0.00    +0.000 A 
ATOM      3  C   UNL     1       3.546   6.096  18.499  0.00  0.00    +0.000 A 
ATOM      4  C   UNL     1       2.709   5.057  18.918  0.00  0.00    +0.000 A 
ATOM      5  C   UNL     1       1.935   5.185  20.081  0.00  0.00    +0.000 A 
ATOM      6  C   UNL     1       1.115   4.141  20.507  0.00  0.00    +0.000 A 
ATOM      7  C   UNL     1       1.052   2.965  19.766  0.00  0.00    +0.000 A 
ATOM      8  C   UNL     1       1.810   2.828  18.600  0.00  0.00    +0.000 A 
ATOM      9  C   UNL     1       2.655   3.866  18.162  0.00  0.00    +0.000 A 
ATOM     10  C   UNL     1       3.459   3.745  17.010  0.00  0.00    +0.000 A 
ENDROOT
BRANCH   1  13
ATOM     11  C   UNL     1       6.565   4.619  15.520  0.00  0.00    +0.000 C 
ATOM     12  O   UNL     1       7.285   4.787  16.499  0.00  0.00    +0.000 OA
ATOM     13  N   UNL     1       5.179   4.562  15.515  0.00  0.00    +0.000 N 
ATOM     14  H   UNL     1       4.734   4.224  14.669  0.00  0.00    +0.000 HD
BRANCH  11  15
ATOM     15  C   UNL     1       7.185   4.418  14.153  0.00  0.00    +0.000 C 
BRANCH  15  16
ATOM     16  C   UNL     1       6.118   4.155  13.096  0.00  0.00    +0.000 C 
BRANCH  16  17
ATOM     17  C   UNL     1       6.658   3.289  11.957  0.00  0.00    +0.000 C 
BRANCH  17  19
ATOM     18  C   UNL     1       6.370   0.927  11.128  0.00  0.00    +0.000 C 
ATOM     19  C   UNL     1       5.665   2.185  11.602  0.00  0.00    +0.000 C 
ENDBRANCH  17  19
ENDBRANCH  16  17
ENDBRANCH  15  16
ENDBRANCH  11  15
ENDBRANCH   1  13
TORSDOF 5
ENDMDL
