MODEL 1
REMARK VINA RESULT:      -8.1      0.000      0.000
REMARK  Name = 
REMARK  4 active torsions:
REMARK  status: ('A' for Active; 'I' for Inactive)
REMARK    1  A    between atoms: C_2  and  C_4
REMARK    2  A    between atoms: N_6  and  C_7
REMARK    3  A    between atoms: C_21  and  N_22
REMARK    4  A    between atoms: C_23  and  C_25
REMARK                            x       y       z     vdW  Elec       q    Type
REMARK                         _______ _______ _______ _____ _____    ______ ____
ROOT
ATOM      1  C   UNL     1       2.210   3.879  19.268  0.00  0.00    +0.000 A 
ATOM      2  N   UNL     1       1.737   5.096  19.601  0.00  0.00    +0.000 NA
ATOM      3  N   UNL     1       2.596   5.992  19.025  0.00  0.00    +0.000 N 
ATOM      4  C   UNL     1       3.705   5.358  18.477  0.00  0.00    +0.000 A 
ATOM      5  C   UNL     1       3.447   4.000  18.605  0.00  0.00    +0.000 A 
ATOM      6  C   UNL     1       4.394   2.963  18.111  0.00  0.00    +0.000 C 
ATOM      7  C   UNL     1       5.167   3.490  16.892  0.00  0.00    +0.000 C 
ATOM      8  C   UNL     1       5.674   4.911  17.078  0.00  0.00    +0.000 A 
ATOM      9  C   UNL     1       6.845   5.299  16.422  0.00  0.00    +0.000 A 
ATOM     10  C   UNL     1       7.319   6.602  16.543  0.00  0.00    +0.000 A 
ATOM     11  C   UNL     1       6.657   7.533  17.341  0.00  0.00    +0.000 A 
ATOM     12  C   UNL     1       5.499   7.132  18.035  0.00  0.00    +0.000 A 
ATOM     13  C   UNL     1       4.953   5.850  17.860  0.00  0.00    +0.000 A 
ENDROOT
BRANCH   3  14
ATOM     14  C   UNL     1       2.234   7.368  19.045  0.00  0.00    +0.000 A 
ATOM     15  C   UNL     1       2.341   8.120  17.860  0.00  0.00    +0.000 A 
ATOM     16  C   UNL     1       1.908   9.447  17.826  0.00  0.00    +0.000 A 
ATOM     17  C   UNL     1       1.388  10.037  18.976  0.00  0.00    +0.000 A 
ATOM     18  C   UNL     1       1.342   9.307  20.158  0.00  0.00    +0.000 A 
ATOM     19  F   UNL     1       0.850   9.877  21.266  0.00  0.00    +0.000 F 
ATOM     20  C   UNL     1       1.781   7.988  20.211  0.00  0.00    +0.000 A 
ENDBRANCH   3  14
BRANCH   1  22
ATOM     21  N   UNL     1       0.998   1.966  18.501  0.00  0.00    +0.000 N 
ATOM     22  C   UNL     1       1.480   2.641  19.587  0.00  0.00    +0.000 C 
ATOM     23  O   UNL     1       1.326   2.203  20.723  0.00  0.00    +0.000 OA
ATOM     24  H   UNL     1       0.559   1.069  18.635  0.00  0.00    +0.000 HD
ATOM     25  H   UNL     1       1.205   2.317  17.574  0.00  0.00    +0.000 HD
ENDBRANCH   1  22
BRANCH  11  26
ATOM     26  N   UNL     1       7.076   8.879  17.475  0.00  0.00    +0.000 N 
ATOM     27  C   UNL     1       8.159   9.341  18.199  0.00  0.00    +0.000 C 
ATOM     28  O   UNL     1       8.929   8.648  18.857  0.00  0.00    +0.000 OA
ATOM     29  H   UNL     1       6.513   9.572  16.993  0.00  0.00    +0.000 HD
BRANCH  27  30
ATOM     30  C   UNL     1       8.456  10.808  18.169  0.00  0.00    +0.000 A 
ATOM     31  C   UNL     1       7.678  11.556  17.258  0.00  0.00    +0.000 A 
ATOM     32  C   UNL     1       7.896  12.917  17.063  0.00  0.00    +0.000 A 
ATOM     33  C   UNL     1       8.904  13.554  17.777  0.00  0.00    +0.000 A 
ATOM     34  C   UNL     1       9.682  12.832  18.688  0.00  0.00    +0.000 A 
ATOM     35 CL   UNL     1      10.925  13.715  19.514  0.00  0.00    +0.000 Cl
ATOM     36  C   UNL     1       9.466  11.455  18.899  0.00  0.00    +0.000 A 
ATOM     37 CL   UNL     1      10.476  10.597  20.020  0.00  0.00    +0.000 Cl
ENDBRANCH  27  30
ENDBRANCH  11  26
TORSDOF 4
ENDMDL
MODEL 2
REMARK VINA RESULT:      -7.4      5.860      9.315
REMARK  Name = 
REMARK  4 active torsions:
REMARK  status: ('A' for Active; 'I' for Inactive)
REMARK    1  A    between atoms: C_2  and  C_4
REMARK    2  A    between atoms: N_6  and  C_7
REMARK    3  A    between atoms: C_21  and  N_22
REMARK    4  A    between atoms: C_23  and  C_25
REMARK                            x       y       z     vdW  Elec       q    Type
REMARK                         _______ _______ _______ _____ _____    ______ ____
ROOT
ATOM      1  C   UNL     1      -3.396  13.525  20.773  0.00  0.00    +0.000 A 
ATOM      2  N   UNL     1      -3.334  13.136  19.485  0.00  0.00    +0.000 NA
ATOM      3  N   UNL     1      -2.535  12.024  19.477  0.00  0.00    +0.000 N 
ATOM      4  C   UNL     1      -1.951  11.806  20.719  0.00  0.00    +0.000 A 
ATOM      5  C   UNL     1      -2.523  12.749  21.561  0.00  0.00    +0.000 A 
ATOM      6  C   UNL     1      -2.177  12.835  23.007  0.00  0.00    +0.000 C 
ATOM      7  C   UNL     1      -1.803  11.446  23.545  0.00  0.00    +0.000 C 
ATOM      8  C   UNL     1      -0.875  10.678  22.618  0.00  0.00    +0.000 A 
ATOM      9  C   UNL     1       0.020   9.760  23.171  0.00  0.00    +0.000 A 
ATOM     10  C   UNL     1       0.860   9.014  22.349  0.00  0.00    +0.000 A 
ATOM     11  C   UNL     1       0.849   9.191  20.967  0.00  0.00    +0.000 A 
ATOM     12  C   UNL     1      -0.025  10.145  20.411  0.00  0.00    +0.000 A 
ATOM     13  C   UNL     1      -0.943  10.845  21.210  0.00  0.00    +0.000 A 
ENDROOT
BRANCH   3  14
ATOM     14  C   UNL     1      -2.448  11.276  18.269  0.00  0.00    +0.000 A 
ATOM     15  C   UNL     1      -1.342  10.430  18.068  0.00  0.00    +0.000 A 
ATOM     16  C   UNL     1      -1.274   9.617  16.935  0.00  0.00    +0.000 A 
ATOM     17  C   UNL     1      -2.295   9.659  15.988  0.00  0.00    +0.000 A 
ATOM     18  C   UNL     1      -3.354  10.542  16.164  0.00  0.00    +0.000 A 
ATOM     19  F   UNL     1      -4.332  10.589  15.249  0.00  0.00    +0.000 F 
ATOM     20  C   UNL     1      -3.430  11.368  17.281  0.00  0.00    +0.000 A 
ENDBRANCH   3  14
BRANCH   1  22
ATOM     21  N   UNL     1      -3.754  15.870  21.070  0.00  0.00    +0.000 N 
ATOM     22  C   UNL     1      -4.277  14.617  21.220  0.00  0.00    +0.000 C 
ATOM     23  O   UNL     1      -5.409  14.453  21.665  0.00  0.00    +0.000 OA
ATOM     24  H   UNL     1      -4.330  16.671  21.277  0.00  0.00    +0.000 HD
ATOM     25  H   UNL     1      -2.847  15.973  20.632  0.00  0.00    +0.000 HD
ENDBRANCH   1  22
BRANCH  11  26
ATOM     26  N   UNL     1       1.659   8.438  20.081  0.00  0.00    +0.000 N 
ATOM     27  C   UNL     1       1.888   7.076  20.124  0.00  0.00    +0.000 C 
ATOM     28  O   UNL     1       1.429   6.298  20.955  0.00  0.00    +0.000 OA
ATOM     29  H   UNL     1       2.122   8.963  19.347  0.00  0.00    +0.000 HD
BRANCH  27  30
ATOM     30  C   UNL     1       2.745   6.470  19.057  0.00  0.00    +0.000 A 
ATOM     31  C   UNL     1       3.392   7.398  18.212  0.00  0.00    +0.000 A 
ATOM     32  C   UNL     1       4.157   6.982  17.126  0.00  0.00    +0.000 A 
ATOM     33  C   UNL     1       4.285   5.623  16.865  0.00  0.00    +0.000 A 
ATOM     34  C   UNL     1       3.657   4.687  17.693  0.00  0.00    +0.000 A 
ATOM     35 CL   UNL     1       3.863   3.018  17.272  0.00  0.00    +0.000 Cl
ATOM     36  C   UNL     1       2.885   5.097  18.799  0.00  0.00    +0.000 A 
ATOM     37 CL   UNL     1       2.101   3.899  19.781  0.00  0.00    +0.000 Cl
ENDBRANCH  27  30
ENDBRANCH  11  26
TORSDOF 4
ENDMDL
MODEL 3
REMARK VINA RESULT:      -7.3      6.204      9.702
REMARK  Name = 
REMARK  4 active torsions:
REMARK  status: ('A' for Active; 'I' for Inactive)
REMARK    1  A    between atoms: C_2  and  C_4
REMARK    2  A    between atoms: N_6  and  C_7
REMARK    3  A    between atoms: C_21  and  N_22
REMARK    4  A    between atoms: C_23  and  C_25
REMARK                            x       y       z     vdW  Elec       q    Type
REMARK                         _______ _______ _______ _____ _____    ______ ____
ROOT
ATOM      1  C   UNL     1      -4.479  13.828  20.688  0.00  0.00    +0.000 A 
ATOM      2  N   UNL     1      -4.345  13.354  19.434  0.00  0.00    +0.000 NA
ATOM      3  N   UNL     1      -3.437  12.334  19.523  0.00  0.00    +0.000 N 
ATOM      4  C   UNL     1      -2.864  12.269  20.787  0.00  0.00    +0.000 A 
ATOM      5  C   UNL     1      -3.551  13.206  21.546  0.00  0.00    +0.000 A 
ATOM      6  C   UNL     1      -3.251  13.433  22.987  0.00  0.00    +0.000 C 
ATOM      7  C   UNL     1      -2.751  12.133  23.635  0.00  0.00    +0.000 C 
ATOM      8  C   UNL     1      -1.726  11.400  22.784  0.00  0.00    +0.000 A 
ATOM      9  C   UNL     1      -0.757  10.622  23.420  0.00  0.00    +0.000 A 
ATOM     10  C   UNL     1       0.176   9.910  22.671  0.00  0.00    +0.000 A 
ATOM     11  C   UNL     1       0.181   9.983  21.279  0.00  0.00    +0.000 A 
ATOM     12  C   UNL     1      -0.771  10.799  20.639  0.00  0.00    +0.000 A 
ATOM     13  C   UNL     1      -1.776  11.456  21.367  0.00  0.00    +0.000 A 
ENDROOT
BRANCH   3  14
ATOM     14  C   UNL     1      -3.244  11.513  18.376  0.00  0.00    +0.000 A 
ATOM     15  C   UNL     1      -4.220  11.513  17.363  0.00  0.00    +0.000 A 
ATOM     16  C   UNL     1      -4.015  10.788  16.187  0.00  0.00    +0.000 A 
ATOM     17  C   UNL     1      -2.848  10.043  16.026  0.00  0.00    +0.000 A 
ATOM     18  C   UNL     1      -1.917   9.999  17.057  0.00  0.00    +0.000 A 
ATOM     19  F   UNL     1      -0.800   9.276  16.905  0.00  0.00    +0.000 F 
ATOM     20  C   UNL     1      -2.113  10.705  18.239  0.00  0.00    +0.000 A 
ENDBRANCH   3  14
BRANCH   1  22
ATOM     21  N   UNL     1      -5.059  16.141  20.859  0.00  0.00    +0.000 N 
ATOM     22  C   UNL     1      -5.477  14.852  21.035  0.00  0.00    +0.000 C 
ATOM     23  O   UNL     1      -6.615  14.604  21.424  0.00  0.00    +0.000 OA
ATOM     24  H   UNL     1      -5.715  16.894  20.998  0.00  0.00    +0.000 HD
ATOM     25  H   UNL     1      -4.140  16.308  20.468  0.00  0.00    +0.000 HD
ENDBRANCH   1  22
BRANCH  11  26
ATOM     26  N   UNL     1       1.085   9.256  20.467  0.00  0.00    +0.000 N 
ATOM     27  C   UNL     1       1.299   7.891  20.483  0.00  0.00    +0.000 C 
ATOM     28  O   UNL     1       0.740   7.087  21.223  0.00  0.00    +0.000 OA
ATOM     29  H   UNL     1       1.636   9.804  19.813  0.00  0.00    +0.000 HD
BRANCH  27  30
ATOM     30  C   UNL     1       2.273   7.317  19.502  0.00  0.00    +0.000 A 
ATOM     31  C   UNL     1       2.569   8.147  18.399  0.00  0.00    +0.000 A 
ATOM     32  C   UNL     1       3.396   7.715  17.365  0.00  0.00    +0.000 A 
ATOM     33  C   UNL     1       3.938   6.437  17.417  0.00  0.00    +0.000 A 
ATOM     34  C   UNL     1       3.661   5.600  18.504  0.00  0.00    +0.000 A 
ATOM     35 CL   UNL     1       4.371   4.019  18.464  0.00  0.00    +0.000 Cl
ATOM     36  C   UNL     1       2.831   6.030  19.559  0.00  0.00    +0.000 A 
ATOM     37 CL   UNL     1       2.494   4.945  20.872  0.00  0.00    +0.000 Cl
ENDBRANCH  27  30
ENDBRANCH  11  26
TORSDOF 4
ENDMDL
MODEL 4
REMARK VINA RESULT:      -7.3      0.767      1.127
REMARK  Name = 
REMARK  4 active torsions:
REMARK  status: ('A' for Active; 'I' for Inactive)
REMARK    1  A    between atoms: C_2  and  C_4
REMARK    2  A    between atoms: N_6  and  C_7
REMARK    3  A    between atoms: C_21  and  N_22
REMARK    4  A    between atoms: C_23  and  C_25
REMARK                            x       y       z     vdW  Elec       q    Type
REMARK                         _______ _______ _______ _____ _____    ______ ____
ROOT
ATOM      1  C   UNL     1       2.234   3.786  19.303  0.00  0.00    +0.000 A 
ATOM      2  N   UNL     1       1.768   4.989  19.689  0.00  0.00    +0.000 NA
ATOM      3  N   UNL     1       2.601   5.907  19.109  0.00  0.00    +0.000 N 
ATOM      4  C   UNL     1       3.691   5.296  18.501  0.00  0.00    +0.000 A 
ATOM      5  C   UNL     1       3.445   3.934  18.598  0.00  0.00    +0.000 A 
ATOM      6  C   UNL     1       4.378   2.918  18.038  0.00  0.00    +0.000 C 
ATOM      7  C   UNL     1       5.102   3.485  16.808  0.00  0.00    +0.000 C 
ATOM      8  C   UNL     1       5.609   4.903  17.017  0.00  0.00    +0.000 A 
ATOM      9  C   UNL     1       6.752   5.317  16.330  0.00  0.00    +0.000 A 
ATOM     10  C   UNL     1       7.224   6.619  16.471  0.00  0.00    +0.000 A 
ATOM     11  C   UNL     1       6.588   7.522  17.321  0.00  0.00    +0.000 A 
ATOM     12  C   UNL     1       5.459   7.093  18.045  0.00  0.00    +0.000 A 
ATOM     13  C   UNL     1       4.913   5.814  17.853  0.00  0.00    +0.000 A 
ENDROOT
BRANCH   3  14
ATOM     14  C   UNL     1       2.233   7.280  19.183  0.00  0.00    +0.000 A 
ATOM     15  C   UNL     1       1.768   7.798  20.406  0.00  0.00    +0.000 A 
ATOM     16  C   UNL     1       1.486   9.160  20.532  0.00  0.00    +0.000 A 
ATOM     17  C   UNL     1       1.643  10.006  19.436  0.00  0.00    +0.000 A 
ATOM     18  C   UNL     1       2.043   9.476  18.215  0.00  0.00    +0.000 A 
ATOM     19  F   UNL     1       2.186  10.288  17.159  0.00  0.00    +0.000 F 
ATOM     20  C   UNL     1       2.316   8.119  18.070  0.00  0.00    +0.000 A 
ENDBRANCH   3  14
BRANCH   1  22
ATOM     21  N   UNL     1       1.087   1.840  18.519  0.00  0.00    +0.000 N 
ATOM     22  C   UNL     1       1.523   2.535  19.612  0.00  0.00    +0.000 C 
ATOM     23  O   UNL     1       1.346   2.102  20.747  0.00  0.00    +0.000 OA
ATOM     24  H   UNL     1       0.664   0.934  18.648  0.00  0.00    +0.000 HD
ATOM     25  H   UNL     1       1.313   2.188  17.595  0.00  0.00    +0.000 HD
ENDBRANCH   1  22
BRANCH  11  26
ATOM     26  N   UNL     1       7.006   8.866  17.480  0.00  0.00    +0.000 N 
ATOM     27  C   UNL     1       8.105   9.313  18.187  0.00  0.00    +0.000 C 
ATOM     28  O   UNL     1       8.895   8.607  18.806  0.00  0.00    +0.000 OA
ATOM     29  H   UNL     1       6.427   9.568  17.031  0.00  0.00    +0.000 HD
BRANCH  27  30
ATOM     30  C   UNL     1       8.395  10.782  18.188  0.00  0.00    +0.000 A 
ATOM     31  C   UNL     1       7.685  11.531  17.224  0.00  0.00    +0.000 A 
ATOM     32  C   UNL     1       7.911  12.895  17.054  0.00  0.00    +0.000 A 
ATOM     33  C   UNL     1       8.857  13.532  17.846  0.00  0.00    +0.000 A 
ATOM     34  C   UNL     1       9.567  12.809  18.810  0.00  0.00    +0.000 A 
ATOM     35 CL   UNL     1      10.739  13.693  19.734  0.00  0.00    +0.000 Cl
ATOM     36  C   UNL     1       9.343  11.430  18.996  0.00  0.00    +0.000 A 
ATOM     37 CL   UNL     1      10.270  10.570  20.186  0.00  0.00    +0.000 Cl
ENDBRANCH  27  30
ENDBRANCH  11  26
TORSDOF 4
ENDMDL
MODEL 5
REMARK VINA RESULT:      -7.3      5.529      9.151
REMARK  Name = 
REMARK  4 active torsions:
REMARK  status: ('A' for Active; 'I' for Inactive)
REMARK    1  A    between atoms: C_2  and  C_4
REMARK    2  A    between atoms: N_6  and  C_7
REMARK    3  A    between atoms: C_21  and  N_22
REMARK    4  A    between atoms: C_23  and  C_25
REMARK                            x       y       z     vdW  Elec       q    Type
REMARK                         _______ _______ _______ _____ _____    ______ ____
ROOT
ATOM      1  C   UNL     1      -3.099  13.583  20.761  0.00  0.00    +0.000 A 
ATOM      2  N   UNL     1      -3.070  13.172  19.478  0.00  0.00    +0.000 NA
ATOM      3  N   UNL     1      -2.330  12.021  19.480  0.00  0.00    +0.000 N 
ATOM      4  C   UNL     1      -1.746  11.790  20.720  0.00  0.00    +0.000 A 
ATOM      5  C   UNL     1      -2.260  12.774  21.552  0.00  0.00    +0.000 A 
ATOM      6  C   UNL     1      -1.896  12.863  22.993  0.00  0.00    +0.000 C 
ATOM      7  C   UNL     1      -1.590  11.465  23.549  0.00  0.00    +0.000 C 
ATOM      8  C   UNL     1      -0.712  10.635  22.626  0.00  0.00    +0.000 A 
ATOM      9  C   UNL     1       0.139   9.680  23.185  0.00  0.00    +0.000 A 
ATOM     10  C   UNL     1       0.931   8.880  22.367  0.00  0.00    +0.000 A 
ATOM     11  C   UNL     1       0.916   9.037  20.982  0.00  0.00    +0.000 A 
ATOM     12  C   UNL     1       0.088  10.027  20.420  0.00  0.00    +0.000 A 
ATOM     13  C   UNL     1      -0.784  10.786  21.217  0.00  0.00    +0.000 A 
ENDROOT
BRANCH   3  14
ATOM     14  C   UNL     1      -2.293  11.251  18.283  0.00  0.00    +0.000 A 
ATOM     15  C   UNL     1      -1.198  10.399  18.052  0.00  0.00    +0.000 A 
ATOM     16  C   UNL     1      -1.178   9.565  16.932  0.00  0.00    +0.000 A 
ATOM     17  C   UNL     1      -2.236   9.595  16.026  0.00  0.00    +0.000 A 
ATOM     18  C   UNL     1      -3.285  10.484  16.229  0.00  0.00    +0.000 A 
ATOM     19  F   UNL     1      -4.299  10.518  15.353  0.00  0.00    +0.000 F 
ATOM     20  C   UNL     1      -3.314  11.330  17.333  0.00  0.00    +0.000 A 
ENDBRANCH   3  14
BRANCH   1  22
ATOM     21  N   UNL     1      -3.643  15.903  20.561  0.00  0.00    +0.000 N 
ATOM     22  C   UNL     1      -3.918  14.725  21.198  0.00  0.00    +0.000 C 
ATOM     23  O   UNL     1      -4.807  14.656  22.042  0.00  0.00    +0.000 OA
ATOM     24  H   UNL     1      -4.218  16.709  20.748  0.00  0.00    +0.000 HD
ATOM     25  H   UNL     1      -2.953  15.909  19.819  0.00  0.00    +0.000 HD
ENDBRANCH   1  22
BRANCH  11  26
ATOM     26  N   UNL     1       1.677   8.230  20.101  0.00  0.00    +0.000 N 
ATOM     27  C   UNL     1       1.814   6.856  20.147  0.00  0.00    +0.000 C 
ATOM     28  O   UNL     1       1.300   6.112  20.977  0.00  0.00    +0.000 OA
ATOM     29  H   UNL     1       2.178   8.721  19.368  0.00  0.00    +0.000 HD
BRANCH  27  30
ATOM     30  C   UNL     1       2.633   6.192  19.084  0.00  0.00    +0.000 A 
ATOM     31  C   UNL     1       2.841   4.807  19.269  0.00  0.00    +0.000 A 
ATOM     32  C   UNL     1       3.649   4.072  18.405  0.00  0.00    +0.000 A 
ATOM     33  C   UNL     1       4.268   4.715  17.340  0.00  0.00    +0.000 A 
ATOM     34  C   UNL     1       4.072   6.085  17.137  0.00  0.00    +0.000 A 
ATOM     35 CL   UNL     1       4.904   6.796  15.792  0.00  0.00    +0.000 Cl
ATOM     36  C   UNL     1       3.251   6.838  18.001  0.00  0.00    +0.000 A 
ATOM     37 CL   UNL     1       3.060   8.541  17.724  0.00  0.00    +0.000 Cl
ENDBRANCH  27  30
ENDBRANCH  11  26
TORSDOF 4
ENDMDL
MODEL 6
REMARK VINA RESULT:      -7.2      7.193     10.098
REMARK  Name = 
REMARK  4 active torsions:
REMARK  status: ('A' for Active; 'I' for Inactive)
REMARK    1  A    between atoms: C_2  and  C_4
REMARK    2  A    between atoms: N_6  and  C_7
REMARK    3  A    between atoms: C_21  and  N_22
REMARK    4  A    between atoms: C_23  and  C_25
REMARK                            x       y       z     vdW  Elec       q    Type
REMARK                         _______ _______ _______ _____ _____    ______ ____
ROOT
ATOM      1  C   UNL     1      -4.195  13.164  23.599  0.00  0.00    +0.000 A 
ATOM      2  N   UNL     1      -3.612  12.254  22.795  0.00  0.00    +0.000 NA
ATOM      3  N   UNL     1      -2.323  12.683  22.632  0.00  0.00    +0.000 N 
ATOM      4  C   UNL     1      -2.131  13.945  23.182  0.00  0.00    +0.000 A 
ATOM      5  C   UNL     1      -3.321  14.244  23.829  0.00  0.00    +0.000 A 
ATOM      6  C   UNL     1      -3.520  15.517  24.576  0.00  0.00    +0.000 C 
ATOM      7  C   UNL     1      -2.183  16.004  25.155  0.00  0.00    +0.000 C 
ATOM      8  C   UNL     1      -1.035  15.913  24.163  0.00  0.00    +0.000 A 
ATOM      9  C   UNL     1       0.016  16.827  24.263  0.00  0.00    +0.000 A 
ATOM     10  C   UNL     1       1.099  16.751  23.393  0.00  0.00    +0.000 A 
ATOM     11  C   UNL     1       1.143  15.786  22.388  0.00  0.00    +0.000 A 
ATOM     12  C   UNL     1       0.066  14.889  22.261  0.00  0.00    +0.000 A 
ATOM     13  C   UNL     1      -0.996  14.890  23.180  0.00  0.00    +0.000 A 
ENDROOT
BRANCH   3  14
ATOM     14  C   UNL     1      -1.407  11.808  21.983  0.00  0.00    +0.000 A 
ATOM     15  C   UNL     1      -1.255  11.891  20.587  0.00  0.00    +0.000 A 
ATOM     16  C   UNL     1      -0.299  11.109  19.935  0.00  0.00    +0.000 A 
ATOM     17  C   UNL     1       0.492  10.226  20.667  0.00  0.00    +0.000 A 
ATOM     18  C   UNL     1       0.293  10.105  22.037  0.00  0.00    +0.000 A 
ATOM     19  F   UNL     1       1.048   9.250  22.739  0.00  0.00    +0.000 F 
ATOM     20  C   UNL     1      -0.663  10.868  22.699  0.00  0.00    +0.000 A 
ENDBRANCH   3  14
BRANCH   1  22
ATOM     21  N   UNL     1      -5.723  11.891  24.927  0.00  0.00    +0.000 N 
ATOM     22  C   UNL     1      -5.559  12.985  24.124  0.00  0.00    +0.000 C 
ATOM     23  O   UNL     1      -6.490  13.754  23.905  0.00  0.00    +0.000 OA
ATOM     24  H   UNL     1      -6.607  11.749  25.389  0.00  0.00    +0.000 HD
ATOM     25  H   UNL     1      -4.917  11.319  25.145  0.00  0.00    +0.000 HD
ENDBRANCH   1  22
BRANCH  11  26
ATOM     26  N   UNL     1       2.234  15.643  21.496  0.00  0.00    +0.000 N 
ATOM     27  C   UNL     1       2.408  16.295  20.290  0.00  0.00    +0.000 C 
ATOM     28  O   UNL     1       1.628  17.102  19.793  0.00  0.00    +0.000 OA
ATOM     29  H   UNL     1       2.954  14.985  21.775  0.00  0.00    +0.000 HD
BRANCH  27  30
ATOM     30  C   UNL     1       3.664  16.032  19.520  0.00  0.00    +0.000 A 
ATOM     31  C   UNL     1       3.624  14.895  18.683  0.00  0.00    +0.000 A 
ATOM     32  C   UNL     1       4.743  14.480  17.967  0.00  0.00    +0.000 A 
ATOM     33  C   UNL     1       5.928  15.197  18.081  0.00  0.00    +0.000 A 
ATOM     34  C   UNL     1       5.988  16.329  18.900  0.00  0.00    +0.000 A 
ATOM     35 CL   UNL     1       7.517  17.142  18.989  0.00  0.00    +0.000 Cl
ATOM     36  C   UNL     1       4.859  16.762  19.625  0.00  0.00    +0.000 A 
ATOM     37 CL   UNL     1       4.990  18.157  20.651  0.00  0.00    +0.000 Cl
ENDBRANCH  27  30
ENDBRANCH  11  26
TORSDOF 4
ENDMDL
MODEL 7
REMARK VINA RESULT:      -7.1      7.508     10.505
REMARK  Name = 
REMARK  4 active torsions:
REMARK  status: ('A' for Active; 'I' for Inactive)
REMARK    1  A    between atoms: C_2  and  C_4
REMARK    2  A    between atoms: N_6  and  C_7
REMARK    3  A    between atoms: C_21  and  N_22
REMARK    4  A    between atoms: C_23  and  C_25
REMARK                            x       y       z     vdW  Elec       q    Type
REMARK                         _______ _______ _______ _____ _____    ______ ____
ROOT
ATOM      1  C   UNL     1      -5.067  13.241  23.591  0.00  0.00    +0.000 A 
ATOM      2  N   UNL     1      -4.363  12.314  22.914  0.00  0.00    +0.000 NA
ATOM      3  N   UNL     1      -3.124  12.863  22.722  0.00  0.00    +0.000 N 
ATOM      4  C   UNL     1      -3.089  14.195  23.119  0.00  0.00    +0.000 A 
ATOM      5  C   UNL     1      -4.324  14.433  23.704  0.00  0.00    +0.000 A 
ATOM      6  C   UNL     1      -4.684  15.755  24.287  0.00  0.00    +0.000 C 
ATOM      7  C   UNL     1      -3.427  16.454  24.826  0.00  0.00    +0.000 C 
ATOM      8  C   UNL     1      -2.246  16.376  23.872  0.00  0.00    +0.000 A 
ATOM      9  C   UNL     1      -1.306  17.408  23.880  0.00  0.00    +0.000 A 
ATOM     10  C   UNL     1      -0.194  17.352  23.044  0.00  0.00    +0.000 A 
ATOM     11  C   UNL     1      -0.014  16.286  22.165  0.00  0.00    +0.000 A 
ATOM     12  C   UNL     1      -0.982  15.264  22.128  0.00  0.00    +0.000 A 
ATOM     13  C   UNL     1      -2.065  15.254  23.022  0.00  0.00    +0.000 A 
ENDROOT
BRANCH   3  14
ATOM     14  C   UNL     1      -2.098  12.026  22.200  0.00  0.00    +0.000 A 
ATOM     15  C   UNL     1      -1.799  12.087  20.827  0.00  0.00    +0.000 A 
ATOM     16  C   UNL     1      -0.738  11.345  20.303  0.00  0.00    +0.000 A 
ATOM     17  C   UNL     1       0.013  10.523  21.141  0.00  0.00    +0.000 A 
ATOM     18  C   UNL     1      -0.327  10.421  22.484  0.00  0.00    +0.000 A 
ATOM     19  F   UNL     1       0.390   9.624  23.287  0.00  0.00    +0.000 F 
ATOM     20  C   UNL     1      -1.389  11.144  23.018  0.00  0.00    +0.000 A 
ENDBRANCH   3  14
BRANCH   1  22
ATOM     21  N   UNL     1      -7.165  14.089  24.361  0.00  0.00    +0.000 N 
ATOM     22  C   UNL     1      -6.418  12.973  24.110  0.00  0.00    +0.000 C 
ATOM     23  O   UNL     1      -6.882  11.850  24.284  0.00  0.00    +0.000 OA
ATOM     24  H   UNL     1      -8.128  13.983  24.640  0.00  0.00    +0.000 HD
ATOM     25  H   UNL     1      -6.779  14.998  24.138  0.00  0.00    +0.000 HD
ENDBRANCH   1  22
BRANCH  11  26
ATOM     26  N   UNL     1       1.113  16.161  21.316  0.00  0.00    +0.000 N 
ATOM     27  C   UNL     1       2.008  15.110  21.277  0.00  0.00    +0.000 C 
ATOM     28  O   UNL     1       1.973  14.111  21.990  0.00  0.00    +0.000 OA
ATOM     29  H   UNL     1       1.278  16.934  20.678  0.00  0.00    +0.000 HD
BRANCH  27  30
ATOM     30  C   UNL     1       3.110  15.156  20.265  0.00  0.00    +0.000 A 
ATOM     31  C   UNL     1       2.690  15.055  18.920  0.00  0.00    +0.000 A 
ATOM     32  C   UNL     1       3.608  15.004  17.874  0.00  0.00    +0.000 A 
ATOM     33  C   UNL     1       4.967  15.048  18.159  0.00  0.00    +0.000 A 
ATOM     34  C   UNL     1       5.404  15.154  19.483  0.00  0.00    +0.000 A 
ATOM     35 CL   UNL     1       7.119  15.184  19.733  0.00  0.00    +0.000 Cl
ATOM     36  C   UNL     1       4.484  15.214  20.550  0.00  0.00    +0.000 A 
ATOM     37 CL   UNL     1       5.075  15.315  22.179  0.00  0.00    +0.000 Cl
ENDBRANCH  27  30
ENDBRANCH  11  26
TORSDOF 4
ENDMDL
MODEL 8
REMARK VINA RESULT:      -7.1      6.944      9.869
REMARK  Name = 
REMARK  4 active torsions:
REMARK  status: ('A' for Active; 'I' for Inactive)
REMARK    1  A    between atoms: C_2  and  C_4
REMARK    2  A    between atoms: N_6  and  C_7
REMARK    3  A    between atoms: C_21  and  N_22
REMARK    4  A    between atoms: C_23  and  C_25
REMARK                            x       y       z     vdW  Elec       q    Type
REMARK                         _______ _______ _______ _____ _____    ______ ____
ROOT
ATOM      1  C   UNL     1      -4.390  13.074  23.399  0.00  0.00    +0.000 A 
ATOM      2  N   UNL     1      -3.832  12.260  22.483  0.00  0.00    +0.000 NA
ATOM      3  N   UNL     1      -2.548  12.708  22.328  0.00  0.00    +0.000 N 
ATOM      4  C   UNL     1      -2.338  13.902  23.008  0.00  0.00    +0.000 A 
ATOM      5  C   UNL     1      -3.508  14.126  23.720  0.00  0.00    +0.000 A 
ATOM      6  C   UNL     1      -3.682  15.308  24.608  0.00  0.00    +0.000 C 
ATOM      7  C   UNL     1      -2.328  15.732  25.197  0.00  0.00    +0.000 C 
ATOM      8  C   UNL     1      -1.211  15.753  24.165  0.00  0.00    +0.000 A 
ATOM      9  C   UNL     1      -0.157  16.653  24.334  0.00  0.00    +0.000 A 
ATOM     10  C   UNL     1       0.899  16.676  23.428  0.00  0.00    +0.000 A 
ATOM     11  C   UNL     1       0.911  15.828  22.322  0.00  0.00    +0.000 A 
ATOM     12  C   UNL     1      -0.170  14.948  22.130  0.00  0.00    +0.000 A 
ATOM     13  C   UNL     1      -1.203  14.845  23.076  0.00  0.00    +0.000 A 
ENDROOT
BRANCH   3  14
ATOM     14  C   UNL     1      -1.653  11.912  21.559  0.00  0.00    +0.000 A 
ATOM     15  C   UNL     1      -1.736  11.954  20.155  0.00  0.00    +0.000 A 
ATOM     16  C   UNL     1      -0.813  11.255  19.374  0.00  0.00    +0.000 A 
ATOM     17  C   UNL     1       0.180  10.494  19.988  0.00  0.00    +0.000 A 
ATOM     18  C   UNL     1       0.217  10.408  21.375  0.00  0.00    +0.000 A 
ATOM     19  F   UNL     1       1.166   9.669  21.964  0.00  0.00    +0.000 F 
ATOM     20  C   UNL     1      -0.703  11.088  22.166  0.00  0.00    +0.000 A 
ENDBRANCH   3  14
BRANCH   1  22
ATOM     21  N   UNL     1      -6.711  13.647  23.433  0.00  0.00    +0.000 N 
ATOM     22  C   UNL     1      -5.736  12.835  23.943  0.00  0.00    +0.000 C 
ATOM     23  O   UNL     1      -6.005  11.963  24.764  0.00  0.00    +0.000 OA
ATOM     24  H   UNL     1      -7.671  13.487  23.697  0.00  0.00    +0.000 HD
ATOM     25  H   UNL     1      -6.467  14.306  22.704  0.00  0.00    +0.000 HD
ENDBRANCH   1  22
BRANCH  11  26
ATOM     26  N   UNL     1       1.974  15.787  21.386  0.00  0.00    +0.000 N 
ATOM     27  C   UNL     1       3.084  14.965  21.430  0.00  0.00    +0.000 C 
ATOM     28  O   UNL     1       3.330  14.140  22.305  0.00  0.00    +0.000 OA
ATOM     29  H   UNL     1       1.910  16.438  20.611  0.00  0.00    +0.000 HD
BRANCH  27  30
ATOM     30  C   UNL     1       4.071  15.050  20.308  0.00  0.00    +0.000 A 
ATOM     31  C   UNL     1       3.556  14.725  19.034  0.00  0.00    +0.000 A 
ATOM     32  C   UNL     1       4.375  14.683  17.908  0.00  0.00    +0.000 A 
ATOM     33  C   UNL     1       5.730  14.962  18.042  0.00  0.00    +0.000 A 
ATOM     34  C   UNL     1       6.258  15.292  19.294  0.00  0.00    +0.000 A 
ATOM     35 CL   UNL     1       7.963  15.605  19.358  0.00  0.00    +0.000 Cl
ATOM     36  C   UNL     1       5.438  15.344  20.439  0.00  0.00    +0.000 A 
ATOM     37 CL   UNL     1       6.146  15.729  21.977  0.00  0.00    +0.000 Cl
ENDBRANCH  27  30
ENDBRANCH  11  26
TORSDOF 4
ENDMDL
MODEL 9
REMARK VINA RESULT:      -7.1      8.347     12.771
REMARK  Name = 
REMARK  4 active torsions:
REMARK  status: ('A' for Active; 'I' for Inactive)
REMARK    1  A    between atoms: C_2  and  C_4
REMARK    2  A    between atoms: N_6  and  C_7
REMARK    3  A    between atoms: C_21  and  N_22
REMARK    4  A    between atoms: C_23  and  C_25
REMARK                            x       y       z     vdW  Elec       q    Type
REMARK                         _______ _______ _______ _____ _____    ______ ____
ROOT
ATOM      1  C   UNL     1       2.982  14.939  18.933  0.00  0.00    +0.000 A 
ATOM      2  N   UNL     1       2.455  13.699  18.955  0.00  0.00    +0.000 NA
ATOM      3  N   UNL     1       1.108  13.878  19.121  0.00  0.00    +0.000 N 
ATOM      4  C   UNL     1       0.796  15.208  19.377  0.00  0.00    +0.000 A 
ATOM      5  C   UNL     1       1.992  15.897  19.229  0.00  0.00    +0.000 A 
ATOM      6  C   UNL     1       2.083  17.373  19.398  0.00  0.00    +0.000 C 
ATOM      7  C   UNL     1       0.756  18.035  18.995  0.00  0.00    +0.000 C 
ATOM      8  C   UNL     1      -0.462  17.311  19.547  0.00  0.00    +0.000 A 
ATOM      9  C   UNL     1      -1.615  18.049  19.820  0.00  0.00    +0.000 A 
ATOM     10  C   UNL     1      -2.760  17.414  20.294  0.00  0.00    +0.000 A 
ATOM     11  C   UNL     1      -2.768  16.041  20.534  0.00  0.00    +0.000 A 
ATOM     12  C   UNL     1      -1.593  15.303  20.296  0.00  0.00    +0.000 A 
ATOM     13  C   UNL     1      -0.455  15.905  19.736  0.00  0.00    +0.000 A 
ENDROOT
BRANCH   3  14
ATOM     14  C   UNL     1       0.264  12.740  18.984  0.00  0.00    +0.000 A 
ATOM     15  C   UNL     1       0.528  11.596  19.760  0.00  0.00    +0.000 A 
ATOM     16  C   UNL     1      -0.336  10.499  19.714  0.00  0.00    +0.000 A 
ATOM     17  C   UNL     1      -1.450  10.528  18.878  0.00  0.00    +0.000 A 
ATOM     18  C   UNL     1      -1.670  11.637  18.068  0.00  0.00    +0.000 A 
ATOM     19  F   UNL     1      -2.737  11.661  17.259  0.00  0.00    +0.000 F 
ATOM     20  C   UNL     1      -0.812  12.732  18.094  0.00  0.00    +0.000 A 
ENDBRANCH   3  14
BRANCH   1  22
ATOM     21  N   UNL     1       4.937  14.351  17.689  0.00  0.00    +0.000 N 
ATOM     22  C   UNL     1       4.403  15.180  18.635  0.00  0.00    +0.000 C 
ATOM     23  O   UNL     1       5.077  16.066  19.152  0.00  0.00    +0.000 OA
ATOM     24  H   UNL     1       5.881  14.509  17.373  0.00  0.00    +0.000 HD
ATOM     25  H   UNL     1       4.334  13.679  17.230  0.00  0.00    +0.000 HD
ENDBRANCH   1  22
BRANCH  11  26
ATOM     26  N   UNL     1      -3.912  15.338  20.985  0.00  0.00    +0.000 N 
ATOM     27  C   UNL     1      -4.073  14.715  22.208  0.00  0.00    +0.000 C 
ATOM     28  O   UNL     1      -3.232  14.662  23.101  0.00  0.00    +0.000 OA
ATOM     29  H   UNL     1      -4.688  15.284  20.333  0.00  0.00    +0.000 HD
BRANCH  27  30
ATOM     30  C   UNL     1      -5.388  14.065  22.503  0.00  0.00    +0.000 A 
ATOM     31  C   UNL     1      -6.049  14.550  23.653  0.00  0.00    +0.000 A 
ATOM     32  C   UNL     1      -7.242  13.986  24.097  0.00  0.00    +0.000 A 
ATOM     33  C   UNL     1      -7.794  12.921  23.397  0.00  0.00    +0.000 A 
ATOM     34  C   UNL     1      -7.158  12.429  22.252  0.00  0.00    +0.000 A 
ATOM     35 CL   UNL     1      -7.916  11.085  21.461  0.00  0.00    +0.000 Cl
ATOM     36  C   UNL     1      -5.953  12.996  21.789  0.00  0.00    +0.000 A 
ATOM     37 CL   UNL     1      -5.186  12.332  20.380  0.00  0.00    +0.000 Cl
ENDBRANCH  27  30
ENDBRANCH  11  26
TORSDOF 4
ENDMDL
