MODEL 1
REMARK VINA RESULT:      -6.8      0.000      0.000
REMARK  Name = 
REMARK  5 active torsions:
REMARK  status: ('A' for Active; 'I' for Inactive)
REMARK    1  A    between atoms: C_1  and  C_2
REMARK    2  A    between atoms: C_5  and  C_6
REMARK    3  A    between atoms: C_6  and  N_7
REMARK    4  A    between atoms: N_14  and  S_15
REMARK    5  A    between atoms: S_15  and  C_16
REMARK                            x       y       z     vdW  Elec       q    Type
REMARK                         _______ _______ _______ _____ _____    ______ ____
ROOT
ATOM      1  N   UNL     1       1.570   8.504  18.961  0.00  0.00    +0.000 NA
ATOM      2  C   UNL     1       2.668   8.645  17.984  0.00  0.00    +0.000 C 
ATOM      3  C   UNL     1       3.179   7.394  17.285  0.00  0.00    +0.000 C 
ATOM      4  C   UNL     1       3.710   6.345  18.249  0.00  0.00    +0.000 C 
ATOM      5  O   UNL     1       4.514   5.437  17.466  0.00  0.00    +0.000 OA
ATOM      6  C   UNL     1       5.118   4.394  18.249  0.00  0.00    +0.000 C 
ATOM      7  C   UNL     1       4.269   3.978  19.446  0.00  0.00    +0.000 C 
ATOM      8  N   UNL     1       2.826   4.186  19.164  0.00  0.00    +0.000 NA
ATOM      9  C   UNL     1       2.510   5.633  18.918  0.00  0.00    +0.000 C 
ATOM     10  C   UNL     1       2.102   6.286  20.231  0.00  0.00    +0.000 C 
ATOM     11  C   UNL     1       1.906   7.805  20.214  0.00  0.00    +0.000 C 
ENDROOT
BRANCH   8  12
ATOM     12  S   UNL     1       2.037   3.074  18.157  0.00  0.00    +0.000 S 
ATOM     13  C   UNL     1       0.651   2.453  19.105  0.00  0.00    +0.000 C 
ATOM     14  O   UNL     1       1.511   3.809  17.019  0.00  0.00    +0.000 OA
ATOM     15  O   UNL     1       2.945   1.965  17.970  0.00  0.00    +0.000 OA
ENDBRANCH   8  12
BRANCH   1  16
ATOM     16  C   UNL     1       1.043   9.870  19.290  0.00  0.00    +0.000 C 
BRANCH  16  21
ATOM     17  C   UNL     1      -3.882  11.896  18.561  0.00  0.00    +0.000 C 
ATOM     18  C   UNL     1      -2.612  11.130  18.414  0.00  0.00    +0.000 A 
ATOM     19  C   UNL     1      -2.243  10.279  17.395  0.00  0.00    +0.000 A 
ATOM     20  C   UNL     1      -0.944   9.730  17.596  0.00  0.00    +0.000 A 
ATOM     21  C   UNL     1      -0.340  10.194  18.752  0.00  0.00    +0.000 A 
ATOM     22  S   UNL     1      -1.403  11.230  19.617  0.00  0.00    +0.000 S 
ENDBRANCH  16  21
ENDBRANCH   1  16
TORSDOF 3
ENDMDL
MODEL 2
REMARK VINA RESULT:      -6.8      2.748      4.028
REMARK  Name = 
REMARK  5 active torsions:
REMARK  status: ('A' for Active; 'I' for Inactive)
REMARK    1  A    between atoms: C_1  and  C_2
REMARK    2  A    between atoms: C_5  and  C_6
REMARK    3  A    between atoms: C_6  and  N_7
REMARK    4  A    between atoms: N_14  and  S_15
REMARK    5  A    between atoms: S_15  and  C_16
REMARK                            x       y       z     vdW  Elec       q    Type
REMARK                         _______ _______ _______ _____ _____    ______ ____
ROOT
ATOM      1  N   UNL     1       2.325   8.119  18.971  0.00  0.00    +0.000 NA
ATOM      2  C   UNL     1       1.796   6.916  19.644  0.00  0.00    +0.000 C 
ATOM      3  C   UNL     1       2.752   5.766  19.926  0.00  0.00    +0.000 C 
ATOM      4  C   UNL     1       3.396   5.202  18.669  0.00  0.00    +0.000 C 
ATOM      5  O   UNL     1       3.923   3.905  19.025  0.00  0.00    +0.000 OA
ATOM      6  C   UNL     1       4.544   3.224  17.922  0.00  0.00    +0.000 C 
ATOM      7  C   UNL     1       5.197   4.175  16.923  0.00  0.00    +0.000 C 
ATOM      8  N   UNL     1       5.653   5.415  17.600  0.00  0.00    +0.000 NA
ATOM      9  C   UNL     1       4.505   6.174  18.201  0.00  0.00    +0.000 C 
ATOM     10  C   UNL     1       3.999   7.196  17.193  0.00  0.00    +0.000 C 
ATOM     11  C   UNL     1       2.718   7.952  17.561  0.00  0.00    +0.000 C 
ENDROOT
BRANCH   8  12
ATOM     12  S   UNL     1       7.066   5.347  18.534  0.00  0.00    +0.000 S 
ATOM     13  C   UNL     1       7.889   6.918  18.289  0.00  0.00    +0.000 C 
ATOM     14  O   UNL     1       6.668   5.259  19.928  0.00  0.00    +0.000 OA
ATOM     15  O   UNL     1       7.910   4.337  17.937  0.00  0.00    +0.000 OA
ENDBRANCH   8  12
BRANCH   1  16
ATOM     16  C   UNL     1       1.300   9.211  19.066  0.00  0.00    +0.000 C 
BRANCH  16  21
ATOM     17  C   UNL     1      -1.469  11.140  23.250  0.00  0.00    +0.000 C 
ATOM     18  C   UNL     1      -0.506  10.395  22.391  0.00  0.00    +0.000 A 
ATOM     19  C   UNL     1       0.420   9.447  22.771  0.00  0.00    +0.000 A 
ATOM     20  C   UNL     1       1.165   8.948  21.664  0.00  0.00    +0.000 A 
ATOM     21  C   UNL     1       0.773   9.506  20.459  0.00  0.00    +0.000 A 
ATOM     22  S   UNL     1      -0.443  10.695  20.709  0.00  0.00    +0.000 S 
ENDBRANCH  16  21
ENDBRANCH   1  16
TORSDOF 3
ENDMDL
MODEL 3
REMARK VINA RESULT:      -6.7      0.879      1.045
REMARK  Name = 
REMARK  5 active torsions:
REMARK  status: ('A' for Active; 'I' for Inactive)
REMARK    1  A    between atoms: C_1  and  C_2
REMARK    2  A    between atoms: C_5  and  C_6
REMARK    3  A    between atoms: C_6  and  N_7
REMARK    4  A    between atoms: N_14  and  S_15
REMARK    5  A    between atoms: S_15  and  C_16
REMARK                            x       y       z     vdW  Elec       q    Type
REMARK                         _______ _______ _______ _____ _____    ______ ____
ROOT
ATOM      1  N   UNL     1       1.357   8.796  19.090  0.00  0.00    +0.000 NA
ATOM      2  C   UNL     1       2.387   8.883  18.036  0.00  0.00    +0.000 C 
ATOM      3  C   UNL     1       2.834   7.599  17.353  0.00  0.00    +0.000 C 
ATOM      4  C   UNL     1       3.416   6.579  18.320  0.00  0.00    +0.000 C 
ATOM      5  O   UNL     1       4.153   5.630  17.520  0.00  0.00    +0.000 OA
ATOM      6  C   UNL     1       4.796   4.608  18.301  0.00  0.00    +0.000 C 
ATOM      7  C   UNL     1       4.025   4.252  19.568  0.00  0.00    +0.000 C 
ATOM      8  N   UNL     1       2.569   4.470  19.376  0.00  0.00    +0.000 NA
ATOM      9  C   UNL     1       2.256   5.912  19.096  0.00  0.00    +0.000 C 
ATOM     10  C   UNL     1       1.946   6.620  20.407  0.00  0.00    +0.000 C 
ATOM     11  C   UNL     1       1.768   8.141  20.343  0.00  0.00    +0.000 C 
ENDROOT
BRANCH   8  12
ATOM     12  S   UNL     1       1.699   3.333  18.469  0.00  0.00    +0.000 S 
ATOM     13  C   UNL     1       2.867   2.041  18.054  0.00  0.00    +0.000 C 
ATOM     14  O   UNL     1       0.685   2.762  19.338  0.00  0.00    +0.000 OA
ATOM     15  O   UNL     1       1.336   3.981  17.229  0.00  0.00    +0.000 OA
ENDBRANCH   8  12
BRANCH   1  16
ATOM     16  C   UNL     1       0.871  10.182  19.400  0.00  0.00    +0.000 C 
BRANCH  16  21
ATOM     17  C   UNL     1      -4.085  12.210  18.931  0.00  0.00    +0.000 C 
ATOM     18  C   UNL     1      -2.823  11.447  18.714  0.00  0.00    +0.000 A 
ATOM     19  C   UNL     1      -2.502  10.610  17.668  0.00  0.00    +0.000 A 
ATOM     20  C   UNL     1      -1.194  10.060  17.801  0.00  0.00    +0.000 A 
ATOM     21  C   UNL     1      -0.536  10.511  18.932  0.00  0.00    +0.000 A 
ATOM     22  S   UNL     1      -1.558  11.534  19.860  0.00  0.00    +0.000 S 
ENDBRANCH  16  21
ENDBRANCH   1  16
TORSDOF 3
ENDMDL
MODEL 4
REMARK VINA RESULT:      -6.6      0.962      1.007
REMARK  Name = 
REMARK  5 active torsions:
REMARK  status: ('A' for Active; 'I' for Inactive)
REMARK    1  A    between atoms: C_1  and  C_2
REMARK    2  A    between atoms: C_5  and  C_6
REMARK    3  A    between atoms: C_6  and  N_7
REMARK    4  A    between atoms: N_14  and  S_15
REMARK    5  A    between atoms: S_15  and  C_16
REMARK                            x       y       z     vdW  Elec       q    Type
REMARK                         _______ _______ _______ _____ _____    ______ ____
ROOT
ATOM      1  N   UNL     1       0.857   9.157  19.155  0.00  0.00    +0.000 NA
ATOM      2  C   UNL     1       1.799   9.381  18.040  0.00  0.00    +0.000 C 
ATOM      3  C   UNL     1       2.421   8.169  17.365  0.00  0.00    +0.000 C 
ATOM      4  C   UNL     1       3.222   7.297  18.320  0.00  0.00    +0.000 C 
ATOM      5  O   UNL     1       4.066   6.460  17.502  0.00  0.00    +0.000 OA
ATOM      6  C   UNL     1       4.916   5.590  18.268  0.00  0.00    +0.000 C 
ATOM      7  C   UNL     1       4.287   5.151  19.587  0.00  0.00    +0.000 C 
ATOM      8  N   UNL     1       2.807   5.113  19.476  0.00  0.00    +0.000 NA
ATOM      9  C   UNL     1       2.236   6.470  19.180  0.00  0.00    +0.000 C 
ATOM     10  C   UNL     1       1.881   7.160  20.489  0.00  0.00    +0.000 C 
ATOM     11  C   UNL     1       1.442   8.625  20.398  0.00  0.00    +0.000 C 
ENDROOT
BRANCH   8  12
ATOM     12  S   UNL     1       2.097   3.814  18.651  0.00  0.00    +0.000 S 
ATOM     13  C   UNL     1       0.894   3.117  19.778  0.00  0.00    +0.000 C 
ATOM     14  O   UNL     1       1.384   4.357  17.509  0.00  0.00    +0.000 OA
ATOM     15  O   UNL     1       3.131   2.818  18.476  0.00  0.00    +0.000 OA
ENDBRANCH   8  12
BRANCH   1  16
ATOM     16  C   UNL     1       0.158  10.450  19.459  0.00  0.00    +0.000 C 
BRANCH  16  21
ATOM     17  C   UNL     1      -4.762  12.192  18.175  0.00  0.00    +0.000 C 
ATOM     18  C   UNL     1      -3.481  11.432  18.232  0.00  0.00    +0.000 A 
ATOM     19  C   UNL     1      -3.074  10.386  17.433  0.00  0.00    +0.000 A 
ATOM     20  C   UNL     1      -1.776   9.914  17.785  0.00  0.00    +0.000 A 
ATOM     21  C   UNL     1      -1.211  10.628  18.827  0.00  0.00    +0.000 A 
ATOM     22  S   UNL     1      -2.309  11.811  19.416  0.00  0.00    +0.000 S 
ENDBRANCH  16  21
ENDBRANCH   1  16
TORSDOF 3
ENDMDL
MODEL 5
REMARK VINA RESULT:      -6.6      0.946      1.200
REMARK  Name = 
REMARK  5 active torsions:
REMARK  status: ('A' for Active; 'I' for Inactive)
REMARK    1  A    between atoms: C_1  and  C_2
REMARK    2  A    between atoms: C_5  and  C_6
REMARK    3  A    between atoms: C_6  and  N_7
REMARK    4  A    between atoms: N_14  and  S_15
REMARK    5  A    between atoms: S_15  and  C_16
REMARK                            x       y       z     vdW  Elec       q    Type
REMARK                         _______ _______ _______ _____ _____    ______ ____
ROOT
ATOM      1  N   UNL     1       1.114   8.859  19.421  0.00  0.00    +0.000 NA
ATOM      2  C   UNL     1       2.098   9.165  18.364  0.00  0.00    +0.000 C 
ATOM      3  C   UNL     1       2.624   8.020  17.512  0.00  0.00    +0.000 C 
ATOM      4  C   UNL     1       3.320   6.940  18.326  0.00  0.00    +0.000 C 
ATOM      5  O   UNL     1       4.105   6.165  17.394  0.00  0.00    +0.000 OA
ATOM      6  C   UNL     1       4.854   5.112  18.023  0.00  0.00    +0.000 C 
ATOM      7  C   UNL     1       4.158   4.534  19.251  0.00  0.00    +0.000 C 
ATOM      8  N   UNL     1       2.684   4.650  19.122  0.00  0.00    +0.000 NA
ATOM      9  C   UNL     1       2.245   6.084  19.037  0.00  0.00    +0.000 C 
ATOM     10  C   UNL     1       1.923   6.593  20.434  0.00  0.00    +0.000 C 
ATOM     11  C   UNL     1       1.619   8.088  20.571  0.00  0.00    +0.000 C 
ENDROOT
BRANCH   8  12
ATOM     12  S   UNL     1       1.880   3.567  18.097  0.00  0.00    +0.000 S 
ATOM     13  C   UNL     1       0.792   2.612  19.151  0.00  0.00    +0.000 C 
ATOM     14  O   UNL     1       1.057   4.348  17.190  0.00  0.00    +0.000 OA
ATOM     15  O   UNL     1       2.879   2.652  17.592  0.00  0.00    +0.000 OA
ENDBRANCH   8  12
BRANCH   1  16
ATOM     16  C   UNL     1       0.527  10.148  19.918  0.00  0.00    +0.000 C 
BRANCH  16  21
ATOM     17  C   UNL     1      -3.635  10.671  16.558  0.00  0.00    +0.000 C 
ATOM     18  C   UNL     1      -2.664  10.850  17.674  0.00  0.00    +0.000 A 
ATOM     19  C   UNL     1      -2.720  11.750  18.716  0.00  0.00    +0.000 A 
ATOM     20  C   UNL     1      -1.608  11.622  19.598  0.00  0.00    +0.000 A 
ATOM     21  C   UNL     1      -0.742  10.609  19.223  0.00  0.00    +0.000 A 
ATOM     22  S   UNL     1      -1.255   9.886  17.752  0.00  0.00    +0.000 S 
ENDBRANCH  16  21
ENDBRANCH   1  16
TORSDOF 3
ENDMDL
MODEL 6
REMARK VINA RESULT:      -6.4      3.678      7.660
REMARK  Name = 
REMARK  5 active torsions:
REMARK  status: ('A' for Active; 'I' for Inactive)
REMARK    1  A    between atoms: C_1  and  C_2
REMARK    2  A    between atoms: C_5  and  C_6
REMARK    3  A    between atoms: C_6  and  N_7
REMARK    4  A    between atoms: N_14  and  S_15
REMARK    5  A    between atoms: S_15  and  C_16
REMARK                            x       y       z     vdW  Elec       q    Type
REMARK                         _______ _______ _______ _____ _____    ______ ____
ROOT
ATOM      1  N   UNL     1       1.515   8.014  19.579  0.00  0.00    +0.000 NA
ATOM      2  C   UNL     1       1.083   8.522  20.896  0.00  0.00    +0.000 C 
ATOM      3  C   UNL     1      -0.209   9.323  20.974  0.00  0.00    +0.000 C 
ATOM      4  C   UNL     1      -0.188  10.575  20.112  0.00  0.00    +0.000 C 
ATOM      5  O   UNL     1      -1.258  11.419  20.589  0.00  0.00    +0.000 OA
ATOM      6  C   UNL     1      -1.351  12.669  19.886  0.00  0.00    +0.000 C 
ATOM      7  C   UNL     1      -0.920  12.567  18.426  0.00  0.00    +0.000 C 
ATOM      8  N   UNL     1      -1.178  11.205  17.897  0.00  0.00    +0.000 NA
ATOM      9  C   UNL     1      -0.385  10.163  18.633  0.00  0.00    +0.000 C 
ATOM     10  C   UNL     1       0.934   9.935  17.910  0.00  0.00    +0.000 C 
ATOM     11  C   UNL     1       1.954   9.029  18.606  0.00  0.00    +0.000 C 
ENDROOT
BRANCH   8  12
ATOM     12  S   UNL     1      -2.773  10.783  17.507  0.00  0.00    +0.000 S 
ATOM     13  C   UNL     1      -2.848  10.758  15.718  0.00  0.00    +0.000 C 
ATOM     14  O   UNL     1      -2.999   9.431  17.987  0.00  0.00    +0.000 OA
ATOM     15  O   UNL     1      -3.611  11.877  17.944  0.00  0.00    +0.000 OA
ENDBRANCH   8  12
BRANCH   1  16
ATOM     16  C   UNL     1       2.625   7.025  19.787  0.00  0.00    +0.000 C 
BRANCH  16  21
ATOM     17  C   UNL     1       2.145   1.857  18.387  0.00  0.00    +0.000 C 
ATOM     18  C   UNL     1       2.009   3.175  19.070  0.00  0.00    +0.000 A 
ATOM     19  C   UNL     1       1.285   3.477  20.203  0.00  0.00    +0.000 A 
ATOM     20  C   UNL     1       1.399   4.850  20.565  0.00  0.00    +0.000 A 
ATOM     21  C   UNL     1       2.230   5.560  19.715  0.00  0.00    +0.000 A 
ATOM     22  S   UNL     1       2.791   4.557  18.438  0.00  0.00    +0.000 S 
ENDBRANCH  16  21
ENDBRANCH   1  16
TORSDOF 3
ENDMDL
MODEL 7
REMARK VINA RESULT:      -6.4      2.297      3.649
REMARK  Name = 
REMARK  5 active torsions:
REMARK  status: ('A' for Active; 'I' for Inactive)
REMARK    1  A    between atoms: C_1  and  C_2
REMARK    2  A    between atoms: C_5  and  C_6
REMARK    3  A    between atoms: C_6  and  N_7
REMARK    4  A    between atoms: N_14  and  S_15
REMARK    5  A    between atoms: S_15  and  C_16
REMARK                            x       y       z     vdW  Elec       q    Type
REMARK                         _______ _______ _______ _____ _____    ______ ____
ROOT
ATOM      1  N   UNL     1       2.168   7.537  20.108  0.00  0.00    +0.000 NA
ATOM      2  C   UNL     1       1.852   6.132  20.431  0.00  0.00    +0.000 C 
ATOM      3  C   UNL     1       2.901   5.069  20.138  0.00  0.00    +0.000 C 
ATOM      4  C   UNL     1       3.292   5.005  18.669  0.00  0.00    +0.000 C 
ATOM      5  O   UNL     1       3.945   3.732  18.474  0.00  0.00    +0.000 OA
ATOM      6  C   UNL     1       4.352   3.506  17.114  0.00  0.00    +0.000 C 
ATOM      7  C   UNL     1       4.732   4.790  16.383  0.00  0.00    +0.000 C 
ATOM      8  N   UNL     1       5.259   5.800  17.335  0.00  0.00    +0.000 NA
ATOM      9  C   UNL     1       4.228   6.196  18.353  0.00  0.00    +0.000 C 
ATOM     10  C   UNL     1       3.471   7.416  17.849  0.00  0.00    +0.000 C 
ATOM     11  C   UNL     1       2.262   7.866  18.675  0.00  0.00    +0.000 C 
ENDROOT
BRANCH   8  12
ATOM     12  S   UNL     1       6.839   5.607  17.917  0.00  0.00    +0.000 S 
ATOM     13  C   UNL     1       7.601   7.224  17.809  0.00  0.00    +0.000 C 
ATOM     14  O   UNL     1       6.748   5.244  19.321  0.00  0.00    +0.000 OA
ATOM     15  O   UNL     1       7.529   4.757  16.973  0.00  0.00    +0.000 OA
ENDBRANCH   8  12
BRANCH   1  16
ATOM     16  C   UNL     1       1.133   8.419  20.744  0.00  0.00    +0.000 C 
BRANCH  16  21
ATOM     17  C   UNL     1       0.426  13.301  18.608  0.00  0.00    +0.000 C 
ATOM     18  C   UNL     1       0.332  11.846  18.919  0.00  0.00    +0.000 A 
ATOM     19  C   UNL     1      -0.429  10.886  18.288  0.00  0.00    +0.000 A 
ATOM     20  C   UNL     1      -0.253   9.595  18.865  0.00  0.00    +0.000 A 
ATOM     21  C   UNL     1       0.658   9.594  19.907  0.00  0.00    +0.000 A 
ATOM     22  S   UNL     1       1.223  11.186  20.220  0.00  0.00    +0.000 S 
ENDBRANCH  16  21
ENDBRANCH   1  16
TORSDOF 3
ENDMDL
MODEL 8
REMARK VINA RESULT:      -6.4      1.371      1.511
REMARK  Name = 
REMARK  5 active torsions:
REMARK  status: ('A' for Active; 'I' for Inactive)
REMARK    1  A    between atoms: C_1  and  C_2
REMARK    2  A    between atoms: C_5  and  C_6
REMARK    3  A    between atoms: C_6  and  N_7
REMARK    4  A    between atoms: N_14  and  S_15
REMARK    5  A    between atoms: S_15  and  C_16
REMARK                            x       y       z     vdW  Elec       q    Type
REMARK                         _______ _______ _______ _____ _____    ______ ____
ROOT
ATOM      1  N   UNL     1       0.989   8.157  20.102  0.00  0.00    +0.000 NA
ATOM      2  C   UNL     1       1.850   8.670  19.018  0.00  0.00    +0.000 C 
ATOM      3  C   UNL     1       2.362   7.688  17.975  0.00  0.00    +0.000 C 
ATOM      4  C   UNL     1       3.193   6.562  18.570  0.00  0.00    +0.000 C 
ATOM      5  O   UNL     1       3.932   5.975  17.478  0.00  0.00    +0.000 OA
ATOM      6  C   UNL     1       4.798   4.904  17.889  0.00  0.00    +0.000 C 
ATOM      7  C   UNL     1       4.254   4.121  19.080  0.00  0.00    +0.000 C 
ATOM      8  N   UNL     1       2.771   4.148  19.093  0.00  0.00    +0.000 NA
ATOM      9  C   UNL     1       2.241   5.545  19.244  0.00  0.00    +0.000 C 
ATOM     10  C   UNL     1       2.021   5.841  20.720  0.00  0.00    +0.000 C 
ATOM     11  C   UNL     1       1.644   7.279  21.087  0.00  0.00    +0.000 C 
ENDROOT
BRANCH   8  12
ATOM     12  S   UNL     1       1.939   3.155  18.000  0.00  0.00    +0.000 S 
ATOM     13  C   UNL     1       0.692   2.304  18.962  0.00  0.00    +0.000 C 
ATOM     14  O   UNL     1       1.263   4.019  17.048  0.00  0.00    +0.000 OA
ATOM     15  O   UNL     1       2.879   2.151  17.554  0.00  0.00    +0.000 OA
ENDBRANCH   8  12
BRANCH   1  16
ATOM     16  C   UNL     1       0.376   9.324  20.820  0.00  0.00    +0.000 C 
BRANCH  16  21
ATOM     17  C   UNL     1      -0.219  14.091  18.407  0.00  0.00    +0.000 C 
ATOM     18  C   UNL     1      -0.370  12.669  18.826  0.00  0.00    +0.000 A 
ATOM     19  C   UNL     1      -1.232  11.719  18.322  0.00  0.00    +0.000 A 
ATOM     20  C   UNL     1      -1.085  10.460  18.972  0.00  0.00    +0.000 A 
ATOM     21  C   UNL     1      -0.096  10.469  19.941  0.00  0.00    +0.000 A 
ATOM     22  S   UNL     1       0.582  12.040  20.099  0.00  0.00    +0.000 S 
ENDBRANCH  16  21
ENDBRANCH   1  16
TORSDOF 3
ENDMDL
MODEL 9
REMARK VINA RESULT:      -6.2      1.296      1.429
REMARK  Name = 
REMARK  5 active torsions:
REMARK  status: ('A' for Active; 'I' for Inactive)
REMARK    1  A    between atoms: C_1  and  C_2
REMARK    2  A    between atoms: C_5  and  C_6
REMARK    3  A    between atoms: C_6  and  N_7
REMARK    4  A    between atoms: N_14  and  S_15
REMARK    5  A    between atoms: S_15  and  C_16
REMARK                            x       y       z     vdW  Elec       q    Type
REMARK                         _______ _______ _______ _____ _____    ______ ____
ROOT
ATOM      1  N   UNL     1       2.319   8.345  18.038  0.00  0.00    +0.000 NA
ATOM      2  C   UNL     1       3.668   8.107  17.488  0.00  0.00    +0.000 C 
ATOM      3  C   UNL     1       4.095   6.672  17.215  0.00  0.00    +0.000 C 
ATOM      4  C   UNL     1       4.069   5.794  18.457  0.00  0.00    +0.000 C 
ATOM      5  O   UNL     1       4.866   4.629  18.152  0.00  0.00    +0.000 OA
ATOM      6  C   UNL     1       4.964   3.707  19.250  0.00  0.00    +0.000 C 
ATOM      7  C   UNL     1       3.720   3.692  20.132  0.00  0.00    +0.000 C 
ATOM      8  N   UNL     1       2.513   4.041  19.342  0.00  0.00    +0.000 NA
ATOM      9  C   UNL     1       2.600   5.429  18.777  0.00  0.00    +0.000 C 
ATOM     10  C   UNL     1       1.954   6.406  19.748  0.00  0.00    +0.000 C 
ATOM     11  C   UNL     1       2.096   7.897  19.423  0.00  0.00    +0.000 C 
ENDROOT
BRANCH   8  12
ATOM     12  S   UNL     1       1.857   2.863  18.315  0.00  0.00    +0.000 S 
ATOM     13  C   UNL     1       2.974   1.466  18.397  0.00  0.00    +0.000 C 
ATOM     14  O   UNL     1       0.581   2.453  18.875  0.00  0.00    +0.000 OA
ATOM     15  O   UNL     1       1.945   3.388  16.971  0.00  0.00    +0.000 OA
ENDBRANCH   8  12
BRANCH   1  16
ATOM     16  C   UNL     1       2.016   9.812  17.945  0.00  0.00    +0.000 C 
BRANCH  16  21
ATOM     17  C   UNL     1      -2.154  12.160  20.393  0.00  0.00    +0.000 C 
ATOM     18  C   UNL     1      -1.303  11.314  19.510  0.00  0.00    +0.000 A 
ATOM     19  C   UNL     1      -1.703  10.448  18.515  0.00  0.00    +0.000 A 
ATOM     20  C   UNL     1      -0.598   9.813  17.877  0.00  0.00    +0.000 A 
ATOM     21  C   UNL     1       0.622  10.229  18.381  0.00  0.00    +0.000 A 
ATOM     22  S   UNL     1       0.397  11.327  19.684  0.00  0.00    +0.000 S 
ENDBRANCH  16  21
ENDBRANCH   1  16
TORSDOF 3
ENDMDL
