MODEL 1
REMARK VINA RESULT:      -7.8      0.000      0.000
REMARK  Name = 
REMARK  5 active torsions:
REMARK  status: ('A' for Active; 'I' for Inactive)
REMARK    1  A    between atoms: C_2  and  C_23
REMARK    2  A    between atoms: N_3  and  N_4
REMARK    3  A    between atoms: C_5  and  C_6
REMARK    4  A    between atoms: C_16  and  C_17
REMARK    5  A    between atoms: C_28  and  O_29
REMARK                            x       y       z     vdW  Elec       q    Type
REMARK                         _______ _______ _______ _____ _____    ______ ____
ROOT
ATOM      1  C   UNL     1      -0.681  10.558  19.015  0.00  0.00    +0.000 A 
ATOM      2  S   UNL     1      -0.304  11.130  20.578  0.00  0.00    +0.000 S 
ATOM      3  C   UNL     1      -1.692  12.154  20.576  0.00  0.00    +0.000 A 
ATOM      4  N   UNL     1      -1.992  12.958  21.633  0.00  0.00    +0.000 N 
ATOM      5  C   UNL     1      -1.610  12.627  23.014  0.00  0.00    +0.000 C 
ATOM      6  C   UNL     1      -2.860  12.305  23.848  0.00  0.00    +0.000 C 
ATOM      7  O   UNL     1      -3.812  13.380  23.799  0.00  0.00    +0.000 OA
ATOM      8  C   UNL     1      -4.235  13.601  22.441  0.00  0.00    +0.000 C 
ATOM      9  C   UNL     1      -3.053  13.964  21.529  0.00  0.00    +0.000 C 
ATOM     10  N   UNL     1      -2.370  12.111  19.446  0.00  0.00    +0.000 NA
ATOM     11  C   UNL     1      -1.838  11.167  18.567  0.00  0.00    +0.000 A 
ENDROOT
BRANCH  11  12
ATOM     12  C   UNL     1      -2.515  10.872  17.302  0.00  0.00    +0.000 A 
ATOM     13  C   UNL     1      -3.724  11.511  16.993  0.00  0.00    +0.000 A 
ATOM     14  C   UNL     1      -4.404  11.222  15.804  0.00  0.00    +0.000 A 
ATOM     15  C   UNL     1      -3.880  10.293  14.907  0.00  0.00    +0.000 A 
ATOM     16  C   UNL     1      -2.686   9.642  15.202  0.00  0.00    +0.000 A 
ATOM     17  C   UNL     1      -2.018   9.919  16.398  0.00  0.00    +0.000 A 
ENDBRANCH  11  12
BRANCH   1  19
ATOM     18  N   UNL     1       1.458   9.600  18.633  0.00  0.00    +0.000 NA
ATOM     19  C   UNL     1       0.185   9.590  18.400  0.00  0.00    +0.000 C 
BRANCH  18  22
ATOM     20  O   UNL     1       2.196   7.241  19.892  0.00  0.00    +0.000 OA
ATOM     21  C   UNL     1       2.513   7.472  18.728  0.00  0.00    +0.000 C 
ATOM     22  N   UNL     1       2.188   8.626  18.034  0.00  0.00    +0.000 N 
ATOM     23  H   UNL     1       2.480   8.717  17.062  0.00  0.00    +0.000 HD
BRANCH  21  24
ATOM     24  C   UNL     1       3.317   6.465  17.962  0.00  0.00    +0.000 A 
ATOM     25  C   UNL     1       4.404   6.950  17.218  0.00  0.00    +0.000 A 
ATOM     26  C   UNL     1       5.197   6.083  16.464  0.00  0.00    +0.000 A 
ATOM     27  C   UNL     1       4.911   4.721  16.442  0.00  0.00    +0.000 A 
ATOM     28  C   UNL     1       3.840   4.219  17.182  0.00  0.00    +0.000 A 
ATOM     29  C   UNL     1       3.050   5.084  17.944  0.00  0.00    +0.000 A 
BRANCH  29  30
ATOM     30  O   UNL     1       2.015   4.553  18.674  0.00  0.00    +0.000 OA
ATOM     31  H   UNL     1       2.346   4.345  19.566  0.00  0.00    +0.000 HD
ENDBRANCH  29  30
ENDBRANCH  21  24
ENDBRANCH  18  22
ENDBRANCH   1  19
TORSDOF 5
ENDMDL
MODEL 2
REMARK VINA RESULT:      -7.8      1.246      1.653
REMARK  Name = 
REMARK  5 active torsions:
REMARK  status: ('A' for Active; 'I' for Inactive)
REMARK    1  A    between atoms: C_2  and  C_23
REMARK    2  A    between atoms: N_3  and  N_4
REMARK    3  A    between atoms: C_5  and  C_6
REMARK    4  A    between atoms: C_16  and  C_17
REMARK    5  A    between atoms: C_28  and  O_29
REMARK                            x       y       z     vdW  Elec       q    Type
REMARK                         _______ _______ _______ _____ _____    ______ ____
ROOT
ATOM      1  C   UNL     1      -0.256  10.919  18.938  0.00  0.00    +0.000 A 
ATOM      2  S   UNL     1       0.470  11.734  20.250  0.00  0.00    +0.000 S 
ATOM      3  C   UNL     1      -0.771  12.930  20.239  0.00  0.00    +0.000 A 
ATOM      4  N   UNL     1      -0.777  13.968  21.121  0.00  0.00    +0.000 N 
ATOM      5  C   UNL     1      -0.180  13.871  22.461  0.00  0.00    +0.000 C 
ATOM      6  C   UNL     1      -1.278  13.914  23.535  0.00  0.00    +0.000 C 
ATOM      7  O   UNL     1      -2.098  15.085  23.398  0.00  0.00    +0.000 OA
ATOM      8  C   UNL     1      -2.742  15.086  22.111  0.00  0.00    +0.000 C 
ATOM      9  C   UNL     1      -1.721  15.077  20.963  0.00  0.00    +0.000 C 
ATOM     10  N   UNL     1      -1.651  12.759  19.272  0.00  0.00    +0.000 NA
ATOM     11  C   UNL     1      -1.402  11.588  18.555  0.00  0.00    +0.000 A 
ENDROOT
BRANCH  11  12
ATOM     12  C   UNL     1      -2.334  11.146  17.515  0.00  0.00    +0.000 A 
ATOM     13  C   UNL     1      -3.639  11.659  17.485  0.00  0.00    +0.000 A 
ATOM     14  C   UNL     1      -4.555  11.228  16.518  0.00  0.00    +0.000 A 
ATOM     15  C   UNL     1      -4.176  10.283  15.566  0.00  0.00    +0.000 A 
ATOM     16  C   UNL     1      -2.888   9.757  15.588  0.00  0.00    +0.000 A 
ATOM     17  C   UNL     1      -1.980  10.175  16.565  0.00  0.00    +0.000 A 
ENDBRANCH  11  12
BRANCH   1  19
ATOM     18  N   UNL     1       1.652   9.663  18.288  0.00  0.00    +0.000 NA
ATOM     19  C   UNL     1       0.367   9.728  18.427  0.00  0.00    +0.000 C 
BRANCH  18  22
ATOM     20  O   UNL     1       2.229   7.500  19.926  0.00  0.00    +0.000 OA
ATOM     21  C   UNL     1       2.408   7.449  18.712  0.00  0.00    +0.000 C 
ATOM     22  N   UNL     1       2.150   8.486  17.831  0.00  0.00    +0.000 N 
ATOM     23  H   UNL     1       2.311   8.340  16.835  0.00  0.00    +0.000 HD
BRANCH  21  24
ATOM     24  C   UNL     1       2.949   6.196  18.092  0.00  0.00    +0.000 A 
ATOM     25  C   UNL     1       2.139   5.051  18.156  0.00  0.00    +0.000 A 
ATOM     26  C   UNL     1       2.571   3.838  17.616  0.00  0.00    +0.000 A 
ATOM     27  C   UNL     1       3.821   3.755  17.008  0.00  0.00    +0.000 A 
ATOM     28  C   UNL     1       4.636   4.884  16.926  0.00  0.00    +0.000 A 
ATOM     29  C   UNL     1       4.202   6.100  17.459  0.00  0.00    +0.000 A 
BRANCH  29  30
ATOM     30  O   UNL     1       5.023   7.195  17.345  0.00  0.00    +0.000 OA
ATOM     31  H   UNL     1       4.749   7.702  16.559  0.00  0.00    +0.000 HD
ENDBRANCH  29  30
ENDBRANCH  21  24
ENDBRANCH  18  22
ENDBRANCH   1  19
TORSDOF 5
ENDMDL
MODEL 3
REMARK VINA RESULT:      -7.8      3.724      5.262
REMARK  Name = 
REMARK  5 active torsions:
REMARK  status: ('A' for Active; 'I' for Inactive)
REMARK    1  A    between atoms: C_2  and  C_23
REMARK    2  A    between atoms: N_3  and  N_4
REMARK    3  A    between atoms: C_5  and  C_6
REMARK    4  A    between atoms: C_16  and  C_17
REMARK    5  A    between atoms: C_28  and  O_29
REMARK                            x       y       z     vdW  Elec       q    Type
REMARK                         _______ _______ _______ _____ _____    ______ ____
ROOT
ATOM      1  C   UNL     1       1.050  11.535  19.452  0.00  0.00    +0.000 A 
ATOM      2  S   UNL     1       2.200  12.226  18.397  0.00  0.00    +0.000 S 
ATOM      3  C   UNL     1       1.707  13.816  18.845  0.00  0.00    +0.000 A 
ATOM      4  N   UNL     1       2.285  14.926  18.307  0.00  0.00    +0.000 N 
ATOM      5  C   UNL     1       3.676  14.943  17.832  0.00  0.00    +0.000 C 
ATOM      6  C   UNL     1       4.536  15.835  18.740  0.00  0.00    +0.000 C 
ATOM      7  O   UNL     1       3.989  17.159  18.841  0.00  0.00    +0.000 OA
ATOM      8  C   UNL     1       2.666  17.103  19.406  0.00  0.00    +0.000 C 
ATOM      9  C   UNL     1       1.716  16.255  18.547  0.00  0.00    +0.000 C 
ATOM     10  N   UNL     1       0.700  13.829  19.697  0.00  0.00    +0.000 NA
ATOM     11  C   UNL     1       0.349  12.538  20.093  0.00  0.00    +0.000 A 
ENDROOT
BRANCH  11  12
ATOM     12  C   UNL     1      -0.665  12.334  21.130  0.00  0.00    +0.000 A 
ATOM     13  C   UNL     1      -1.837  13.102  21.119  0.00  0.00    +0.000 A 
ATOM     14  C   UNL     1      -2.806  12.945  22.117  0.00  0.00    +0.000 A 
ATOM     15  C   UNL     1      -2.617  12.013  23.136  0.00  0.00    +0.000 A 
ATOM     16  C   UNL     1      -1.454  11.249  23.167  0.00  0.00    +0.000 A 
ATOM     17  C   UNL     1      -0.480  11.420  22.180  0.00  0.00    +0.000 A 
ENDBRANCH  11  12
BRANCH   1  19
ATOM     18  N   UNL     1       1.862   9.348  19.006  0.00  0.00    +0.000 NA
ATOM     19  C   UNL     1       0.954  10.103  19.536  0.00  0.00    +0.000 C 
BRANCH  18  22
ATOM     20  O   UNL     1       3.499   7.452  17.815  0.00  0.00    +0.000 OA
ATOM     21  C   UNL     1       2.565   7.125  18.543  0.00  0.00    +0.000 C 
ATOM     22  N   UNL     1       1.702   8.010  19.168  0.00  0.00    +0.000 N 
ATOM     23  H   UNL     1       0.969   7.642  19.771  0.00  0.00    +0.000 HD
BRANCH  21  24
ATOM     24  C   UNL     1       2.296   5.673  18.800  0.00  0.00    +0.000 A 
ATOM     25  C   UNL     1       2.220   4.830  17.680  0.00  0.00    +0.000 A 
ATOM     26  C   UNL     1       1.958   3.467  17.827  0.00  0.00    +0.000 A 
ATOM     27  C   UNL     1       1.766   2.930  19.097  0.00  0.00    +0.000 A 
ATOM     28  C   UNL     1       1.846   3.749  20.223  0.00  0.00    +0.000 A 
ATOM     29  C   UNL     1       2.116   5.113  20.078  0.00  0.00    +0.000 A 
BRANCH  29  30
ATOM     30  O   UNL     1       2.206   5.886  21.209  0.00  0.00    +0.000 OA
ATOM     31  H   UNL     1       1.540   5.572  21.847  0.00  0.00    +0.000 HD
ENDBRANCH  29  30
ENDBRANCH  21  24
ENDBRANCH  18  22
ENDBRANCH   1  19
TORSDOF 5
ENDMDL
MODEL 4
REMARK VINA RESULT:      -7.7      1.527      2.011
REMARK  Name = 
REMARK  5 active torsions:
REMARK  status: ('A' for Active; 'I' for Inactive)
REMARK    1  A    between atoms: C_2  and  C_23
REMARK    2  A    between atoms: N_3  and  N_4
REMARK    3  A    between atoms: C_5  and  C_6
REMARK    4  A    between atoms: C_16  and  C_17
REMARK    5  A    between atoms: C_28  and  O_29
REMARK                            x       y       z     vdW  Elec       q    Type
REMARK                         _______ _______ _______ _____ _____    ______ ____
ROOT
ATOM      1  C   UNL     1      -0.700  10.881  20.012  0.00  0.00    +0.000 A 
ATOM      2  S   UNL     1      -0.206  11.718  21.415  0.00  0.00    +0.000 S 
ATOM      3  C   UNL     1      -1.318  12.994  21.088  0.00  0.00    +0.000 A 
ATOM      4  N   UNL     1      -1.428  14.078  21.904  0.00  0.00    +0.000 N 
ATOM      5  C   UNL     1      -1.139  14.017  23.344  0.00  0.00    +0.000 C 
ATOM      6  C   UNL     1      -2.432  14.197  24.154  0.00  0.00    +0.000 C 
ATOM      7  O   UNL     1      -3.109  15.412  23.795  0.00  0.00    +0.000 OA
ATOM      8  C   UNL     1      -3.464  15.384  22.400  0.00  0.00    +0.000 C 
ATOM      9  C   UNL     1      -2.227  15.240  21.501  0.00  0.00    +0.000 C 
ATOM     10  N   UNL     1      -1.984  12.829  19.961  0.00  0.00    +0.000 NA
ATOM     11  C   UNL     1      -1.682  11.605  19.363  0.00  0.00    +0.000 A 
ENDROOT
BRANCH  11  12
ATOM     12  C   UNL     1      -2.404  11.169  18.166  0.00  0.00    +0.000 A 
ATOM     13  C   UNL     1      -1.755  10.376  17.210  0.00  0.00    +0.000 A 
ATOM     14  C   UNL     1      -2.417   9.973  16.045  0.00  0.00    +0.000 A 
ATOM     15  C   UNL     1      -3.738  10.355  15.822  0.00  0.00    +0.000 A 
ATOM     16  C   UNL     1      -4.395  11.150  16.757  0.00  0.00    +0.000 A 
ATOM     17  C   UNL     1      -3.727  11.566  17.912  0.00  0.00    +0.000 A 
ENDBRANCH  11  12
BRANCH   1  19
ATOM     18  N   UNL     1       1.209   9.499  19.720  0.00  0.00    +0.000 NA
ATOM     19  C   UNL     1      -0.079   9.623  19.697  0.00  0.00    +0.000 C 
BRANCH  18  22
ATOM     20  O   UNL     1       2.387   8.825  17.300  0.00  0.00    +0.000 OA
ATOM     21  C   UNL     1       2.279   8.006  18.210  0.00  0.00    +0.000 C 
ATOM     22  N   UNL     1       1.700   8.265  19.441  0.00  0.00    +0.000 N 
ATOM     23  H   UNL     1       1.677   7.525  20.141  0.00  0.00    +0.000 HD
BRANCH  21  24
ATOM     24  C   UNL     1       2.792   6.611  18.019  0.00  0.00    +0.000 A 
ATOM     25  C   UNL     1       1.906   5.561  18.311  0.00  0.00    +0.000 A 
ATOM     26  C   UNL     1       2.306   4.230  18.175  0.00  0.00    +0.000 A 
ATOM     27  C   UNL     1       3.597   3.933  17.748  0.00  0.00    +0.000 A 
ATOM     28  C   UNL     1       4.488   4.962  17.445  0.00  0.00    +0.000 A 
ATOM     29  C   UNL     1       4.088   6.294  17.574  0.00  0.00    +0.000 A 
BRANCH  29  30
ATOM     30  O   UNL     1       4.986   7.282  17.249  0.00  0.00    +0.000 OA
ATOM     31  H   UNL     1       5.429   7.031  16.419  0.00  0.00    +0.000 HD
ENDBRANCH  29  30
ENDBRANCH  21  24
ENDBRANCH  18  22
ENDBRANCH   1  19
TORSDOF 5
ENDMDL
MODEL 5
REMARK VINA RESULT:      -7.7      1.615      1.944
REMARK  Name = 
REMARK  5 active torsions:
REMARK  status: ('A' for Active; 'I' for Inactive)
REMARK    1  A    between atoms: C_2  and  C_23
REMARK    2  A    between atoms: N_3  and  N_4
REMARK    3  A    between atoms: C_5  and  C_6
REMARK    4  A    between atoms: C_16  and  C_17
REMARK    5  A    between atoms: C_28  and  O_29
REMARK                            x       y       z     vdW  Elec       q    Type
REMARK                         _______ _______ _______ _____ _____    ______ ____
ROOT
ATOM      1  C   UNL     1      -0.766  10.936  20.509  0.00  0.00    +0.000 A 
ATOM      2  S   UNL     1      -0.417  11.799  21.939  0.00  0.00    +0.000 S 
ATOM      3  C   UNL     1      -1.491  13.066  21.478  0.00  0.00    +0.000 A 
ATOM      4  N   UNL     1      -1.684  14.165  22.260  0.00  0.00    +0.000 N 
ATOM      5  C   UNL     1      -1.541  14.130  23.723  0.00  0.00    +0.000 C 
ATOM      6  C   UNL     1      -2.910  14.321  24.394  0.00  0.00    +0.000 C 
ATOM      7  O   UNL     1      -3.547  15.528  23.946  0.00  0.00    +0.000 OA
ATOM      8  C   UNL     1      -3.760  15.474  22.524  0.00  0.00    +0.000 C 
ATOM      9  C   UNL     1      -2.438  15.316  21.757  0.00  0.00    +0.000 C 
ATOM     10  N   UNL     1      -2.039  12.879  20.293  0.00  0.00    +0.000 NA
ATOM     11  C   UNL     1      -1.678  11.645  19.752  0.00  0.00    +0.000 A 
ENDROOT
BRANCH  11  12
ATOM     12  C   UNL     1      -2.275  11.186  18.496  0.00  0.00    +0.000 A 
ATOM     13  C   UNL     1      -3.608  11.506  18.200  0.00  0.00    +0.000 A 
ATOM     14  C   UNL     1      -4.208  11.053  17.020  0.00  0.00    +0.000 A 
ATOM     15  C   UNL     1      -3.481  10.278  16.117  0.00  0.00    +0.000 A 
ATOM     16  C   UNL     1      -2.160   9.944  16.400  0.00  0.00    +0.000 A 
ATOM     17  C   UNL     1      -1.568  10.382  17.588  0.00  0.00    +0.000 A 
ENDBRANCH  11  12
BRANCH   1  19
ATOM     18  N   UNL     1       1.077   9.627  19.780  0.00  0.00    +0.000 NA
ATOM     19  C   UNL     1      -0.116   9.674  20.281  0.00  0.00    +0.000 C 
BRANCH  18  22
ATOM     20  O   UNL     1       2.306   8.758  17.450  0.00  0.00    +0.000 OA
ATOM     21  C   UNL     1       2.223   8.033  18.439  0.00  0.00    +0.000 C 
ATOM     22  N   UNL     1       1.621   8.393  19.633  0.00  0.00    +0.000 N 
ATOM     23  H   UNL     1       1.621   7.728  20.406  0.00  0.00    +0.000 HD
BRANCH  21  24
ATOM     24  C   UNL     1       2.794   6.648  18.396  0.00  0.00    +0.000 A 
ATOM     25  C   UNL     1       2.208   5.691  19.240  0.00  0.00    +0.000 A 
ATOM     26  C   UNL     1       2.687   4.380  19.275  0.00  0.00    +0.000 A 
ATOM     27  C   UNL     1       3.760   4.011  18.468  0.00  0.00    +0.000 A 
ATOM     28  C   UNL     1       4.349   4.945  17.617  0.00  0.00    +0.000 A 
ATOM     29  C   UNL     1       3.866   6.256  17.575  0.00  0.00    +0.000 A 
BRANCH  29  30
ATOM     30  O   UNL     1       4.459   7.145  16.712  0.00  0.00    +0.000 OA
ATOM     31  H   UNL     1       3.997   7.094  15.856  0.00  0.00    +0.000 HD
ENDBRANCH  29  30
ENDBRANCH  21  24
ENDBRANCH  18  22
ENDBRANCH   1  19
TORSDOF 5
ENDMDL
MODEL 6
REMARK VINA RESULT:      -7.7      1.449      1.692
REMARK  Name = 
REMARK  5 active torsions:
REMARK  status: ('A' for Active; 'I' for Inactive)
REMARK    1  A    between atoms: C_2  and  C_23
REMARK    2  A    between atoms: N_3  and  N_4
REMARK    3  A    between atoms: C_5  and  C_6
REMARK    4  A    between atoms: C_16  and  C_17
REMARK    5  A    between atoms: C_28  and  O_29
REMARK                            x       y       z     vdW  Elec       q    Type
REMARK                         _______ _______ _______ _____ _____    ______ ____
ROOT
ATOM      1  C   UNL     1      -0.915  11.134  20.537  0.00  0.00    +0.000 A 
ATOM      2  S   UNL     1      -0.642  12.028  21.964  0.00  0.00    +0.000 S 
ATOM      3  C   UNL     1      -1.785  13.223  21.477  0.00  0.00    +0.000 A 
ATOM      4  N   UNL     1      -2.057  14.313  22.247  0.00  0.00    +0.000 N 
ATOM      5  C   UNL     1      -1.935  14.298  23.712  0.00  0.00    +0.000 C 
ATOM      6  C   UNL     1      -3.322  14.409  24.362  0.00  0.00    +0.000 C 
ATOM      7  O   UNL     1      -4.027  15.570  23.895  0.00  0.00    +0.000 OA
ATOM      8  C   UNL     1      -4.215  15.492  22.470  0.00  0.00    +0.000 C 
ATOM      9  C   UNL     1      -2.874  15.411  21.724  0.00  0.00    +0.000 C 
ATOM     10  N   UNL     1      -2.303  12.993  20.286  0.00  0.00    +0.000 NA
ATOM     11  C   UNL     1      -1.858  11.780  19.760  0.00  0.00    +0.000 A 
ENDROOT
BRANCH  11  12
ATOM     12  C   UNL     1      -2.407  11.275  18.500  0.00  0.00    +0.000 A 
ATOM     13  C   UNL     1      -3.731  11.572  18.148  0.00  0.00    +0.000 A 
ATOM     14  C   UNL     1      -4.285  11.075  16.963  0.00  0.00    +0.000 A 
ATOM     15  C   UNL     1      -3.521  10.279  16.112  0.00  0.00    +0.000 A 
ATOM     16  C   UNL     1      -2.208   9.968  16.451  0.00  0.00    +0.000 A 
ATOM     17  C   UNL     1      -1.661  10.449  17.643  0.00  0.00    +0.000 A 
ENDBRANCH  11  12
BRANCH   1  19
ATOM     18  N   UNL     1       0.998   9.934  19.802  0.00  0.00    +0.000 NA
ATOM     19  C   UNL     1      -0.184   9.913  20.328  0.00  0.00    +0.000 C 
BRANCH  18  22
ATOM     20  O   UNL     1       2.160   9.046  17.444  0.00  0.00    +0.000 OA
ATOM     21  C   UNL     1       2.184   8.365  18.466  0.00  0.00    +0.000 C 
ATOM     22  N   UNL     1       1.622   8.735  19.677  0.00  0.00    +0.000 N 
ATOM     23  H   UNL     1       1.713   8.109  20.475  0.00  0.00    +0.000 HD
BRANCH  21  24
ATOM     24  C   UNL     1       2.852   7.023  18.450  0.00  0.00    +0.000 A 
ATOM     25  C   UNL     1       3.652   6.723  17.335  0.00  0.00    +0.000 A 
ATOM     26  C   UNL     1       4.299   5.490  17.231  0.00  0.00    +0.000 A 
ATOM     27  C   UNL     1       4.153   4.542  18.240  0.00  0.00    +0.000 A 
ATOM     28  C   UNL     1       3.370   4.825  19.359  0.00  0.00    +0.000 A 
ATOM     29  C   UNL     1       2.727   6.061  19.468  0.00  0.00    +0.000 A 
BRANCH  29  30
ATOM     30  O   UNL     1       1.979   6.313  20.592  0.00  0.00    +0.000 OA
ATOM     31  H   UNL     1       2.587   6.524  21.323  0.00  0.00    +0.000 HD
ENDBRANCH  29  30
ENDBRANCH  21  24
ENDBRANCH  18  22
ENDBRANCH   1  19
TORSDOF 5
ENDMDL
MODEL 7
REMARK VINA RESULT:      -7.7      1.191      1.596
REMARK  Name = 
REMARK  5 active torsions:
REMARK  status: ('A' for Active; 'I' for Inactive)
REMARK    1  A    between atoms: C_2  and  C_23
REMARK    2  A    between atoms: N_3  and  N_4
REMARK    3  A    between atoms: C_5  and  C_6
REMARK    4  A    between atoms: C_16  and  C_17
REMARK    5  A    between atoms: C_28  and  O_29
REMARK                            x       y       z     vdW  Elec       q    Type
REMARK                         _______ _______ _______ _____ _____    ______ ____
ROOT
ATOM      1  C   UNL     1      -0.904  11.096  19.727  0.00  0.00    +0.000 A 
ATOM      2  S   UNL     1      -0.553  11.842  21.220  0.00  0.00    +0.000 S 
ATOM      3  C   UNL     1      -1.904  12.898  21.051  0.00  0.00    +0.000 A 
ATOM      4  N   UNL     1      -2.208  13.833  21.993  0.00  0.00    +0.000 N 
ATOM      5  C   UNL     1      -1.877  13.661  23.415  0.00  0.00    +0.000 C 
ATOM      6  C   UNL     1      -3.160  13.480  24.241  0.00  0.00    +0.000 C 
ATOM      7  O   UNL     1      -4.074  14.568  24.032  0.00  0.00    +0.000 OA
ATOM      8  C   UNL     1      -4.451  14.635  22.645  0.00  0.00    +0.000 C 
ATOM      9  C   UNL     1      -3.232  14.850  21.734  0.00  0.00    +0.000 C 
ATOM     10  N   UNL     1      -2.551  12.738  19.913  0.00  0.00    +0.000 NA
ATOM     11  C   UNL     1      -2.026  11.679  19.171  0.00  0.00    +0.000 A 
ENDROOT
BRANCH  11  12
ATOM     12  C   UNL     1      -2.676  11.253  17.930  0.00  0.00    +0.000 A 
ATOM     13  C   UNL     1      -1.993  10.416  17.036  0.00  0.00    +0.000 A 
ATOM     14  C   UNL     1      -2.584  10.021  15.831  0.00  0.00    +0.000 A 
ATOM     15  C   UNL     1      -3.868  10.453  15.506  0.00  0.00    +0.000 A 
ATOM     16  C   UNL     1      -4.557  11.291  16.377  0.00  0.00    +0.000 A 
ATOM     17  C   UNL     1      -3.959  11.700  17.572  0.00  0.00    +0.000 A 
ENDBRANCH  11  12
BRANCH   1  19
ATOM     18  N   UNL     1       1.055   9.761  19.871  0.00  0.00    +0.000 NA
ATOM     19  C   UNL     1      -0.053  10.035  19.260  0.00  0.00    +0.000 C 
BRANCH  18  22
ATOM     20  O   UNL     1       1.263   7.301  21.137  0.00  0.00    +0.000 OA
ATOM     21  C   UNL     1       1.824   7.520  20.067  0.00  0.00    +0.000 C 
ATOM     22  N   UNL     1       1.773   8.720  19.378  0.00  0.00    +0.000 N 
ATOM     23  H   UNL     1       2.257   8.798  18.484  0.00  0.00    +0.000 HD
BRANCH  21  24
ATOM     24  C   UNL     1       2.642   6.442  19.423  0.00  0.00    +0.000 A 
ATOM     25  C   UNL     1       3.138   6.701  18.135  0.00  0.00    +0.000 A 
ATOM     26  C   UNL     1       3.897   5.747  17.455  0.00  0.00    +0.000 A 
ATOM     27  C   UNL     1       4.168   4.519  18.054  0.00  0.00    +0.000 A 
ATOM     28  C   UNL     1       3.692   4.247  19.337  0.00  0.00    +0.000 A 
ATOM     29  C   UNL     1       2.938   5.204  20.021  0.00  0.00    +0.000 A 
BRANCH  29  30
ATOM     30  O   UNL     1       2.500   4.908  21.289  0.00  0.00    +0.000 OA
ATOM     31  H   UNL     1       2.192   5.733  21.706  0.00  0.00    +0.000 HD
ENDBRANCH  29  30
ENDBRANCH  21  24
ENDBRANCH  18  22
ENDBRANCH   1  19
TORSDOF 5
ENDMDL
MODEL 8
REMARK VINA RESULT:      -7.7      3.730      5.204
REMARK  Name = 
REMARK  5 active torsions:
REMARK  status: ('A' for Active; 'I' for Inactive)
REMARK    1  A    between atoms: C_2  and  C_23
REMARK    2  A    between atoms: N_3  and  N_4
REMARK    3  A    between atoms: C_5  and  C_6
REMARK    4  A    between atoms: C_16  and  C_17
REMARK    5  A    between atoms: C_28  and  O_29
REMARK                            x       y       z     vdW  Elec       q    Type
REMARK                         _______ _______ _______ _____ _____    ______ ____
ROOT
ATOM      1  C   UNL     1       1.515  11.219  18.768  0.00  0.00    +0.000 A 
ATOM      2  S   UNL     1       2.175  12.403  17.731  0.00  0.00    +0.000 S 
ATOM      3  C   UNL     1       1.730  13.660  18.824  0.00  0.00    +0.000 A 
ATOM      4  N   UNL     1       1.993  14.969  18.559  0.00  0.00    +0.000 N 
ATOM      5  C   UNL     1       3.134  15.396  17.735  0.00  0.00    +0.000 C 
ATOM      6  C   UNL     1       4.171  16.125  18.602  0.00  0.00    +0.000 C 
ATOM      7  O   UNL     1       3.580  17.226  19.309  0.00  0.00    +0.000 OA
ATOM      8  C   UNL     1       2.538  16.749  20.180  0.00  0.00    +0.000 C 
ATOM      9  C   UNL     1       1.429  16.030  19.398  0.00  0.00    +0.000 C 
ATOM     10  N   UNL     1       1.075  13.223  19.882  0.00  0.00    +0.000 NA
ATOM     11  C   UNL     1       0.991  11.830  19.892  0.00  0.00    +0.000 A 
ENDROOT
BRANCH  11  12
ATOM     12  C   UNL     1       0.411  11.133  21.041  0.00  0.00    +0.000 A 
ATOM     13  C   UNL     1      -0.663  11.708  21.736  0.00  0.00    +0.000 A 
ATOM     14  C   UNL     1      -1.213  11.074  22.856  0.00  0.00    +0.000 A 
ATOM     15  C   UNL     1      -0.700   9.854  23.292  0.00  0.00    +0.000 A 
ATOM     16  C   UNL     1       0.371   9.274  22.620  0.00  0.00    +0.000 A 
ATOM     17  C   UNL     1       0.931   9.917  21.513  0.00  0.00    +0.000 A 
ENDBRANCH  11  12
BRANCH   1  19
ATOM     18  N   UNL     1       2.715   9.261  18.164  0.00  0.00    +0.000 NA
ATOM     19  C   UNL     1       1.576   9.837  18.377  0.00  0.00    +0.000 C 
BRANCH  18  22
ATOM     20  O   UNL     1       2.580   7.212  20.029  0.00  0.00    +0.000 OA
ATOM     21  C   UNL     1       2.600   6.980  18.823  0.00  0.00    +0.000 C 
ATOM     22  N   UNL     1       2.672   7.946  17.833  0.00  0.00    +0.000 N 
ATOM     23  H   UNL     1       2.663   7.654  16.857  0.00  0.00    +0.000 HD
BRANCH  21  24
ATOM     24  C   UNL     1       2.552   5.562  18.338  0.00  0.00    +0.000 A 
ATOM     25  C   UNL     1       1.485   4.770  18.790  0.00  0.00    +0.000 A 
ATOM     26  C   UNL     1       1.370   3.434  18.399  0.00  0.00    +0.000 A 
ATOM     27  C   UNL     1       2.323   2.874  17.552  0.00  0.00    +0.000 A 
ATOM     28  C   UNL     1       3.386   3.648  17.086  0.00  0.00    +0.000 A 
ATOM     29  C   UNL     1       3.498   4.987  17.470  0.00  0.00    +0.000 A 
BRANCH  29  30
ATOM     30  O   UNL     1       4.547   5.724  16.977  0.00  0.00    +0.000 OA
ATOM     31  H   UNL     1       4.841   6.339  17.673  0.00  0.00    +0.000 HD
ENDBRANCH  29  30
ENDBRANCH  21  24
ENDBRANCH  18  22
ENDBRANCH   1  19
TORSDOF 5
ENDMDL
MODEL 9
REMARK VINA RESULT:      -7.7      2.010      2.652
REMARK  Name = 
REMARK  5 active torsions:
REMARK  status: ('A' for Active; 'I' for Inactive)
REMARK    1  A    between atoms: C_2  and  C_23
REMARK    2  A    between atoms: N_3  and  N_4
REMARK    3  A    between atoms: C_5  and  C_6
REMARK    4  A    between atoms: C_16  and  C_17
REMARK    5  A    between atoms: C_28  and  O_29
REMARK                            x       y       z     vdW  Elec       q    Type
REMARK                         _______ _______ _______ _____ _____    ______ ____
ROOT
ATOM      1  C   UNL     1      -0.677  10.912  20.699  0.00  0.00    +0.000 A 
ATOM      2  S   UNL     1      -0.252  11.908  22.017  0.00  0.00    +0.000 S 
ATOM      3  C   UNL     1      -1.156  13.221  21.362  0.00  0.00    +0.000 A 
ATOM      4  N   UNL     1      -1.229  14.427  21.990  0.00  0.00    +0.000 N 
ATOM      5  C   UNL     1      -1.117  14.569  23.449  0.00  0.00    +0.000 C 
ATOM      6  C   UNL     1      -2.465  15.005  24.044  0.00  0.00    +0.000 C 
ATOM      7  O   UNL     1      -2.944  16.209  23.426  0.00  0.00    +0.000 OA
ATOM      8  C   UNL     1      -3.136  15.995  22.015  0.00  0.00    +0.000 C 
ATOM      9  C   UNL     1      -1.830  15.584  21.319  0.00  0.00    +0.000 C 
ATOM     10  N   UNL     1      -1.702  12.946  20.194  0.00  0.00    +0.000 NA
ATOM     11  C   UNL     1      -1.483  11.618  19.827  0.00  0.00    +0.000 A 
ENDROOT
BRANCH  11  12
ATOM     12  C   UNL     1      -2.109  11.072  18.621  0.00  0.00    +0.000 A 
ATOM     13  C   UNL     1      -1.365  10.256  17.757  0.00  0.00    +0.000 A 
ATOM     14  C   UNL     1      -1.934   9.748  16.584  0.00  0.00    +0.000 A 
ATOM     15  C   UNL     1      -3.257  10.045  16.262  0.00  0.00    +0.000 A 
ATOM     16  C   UNL     1      -4.007  10.861  17.103  0.00  0.00    +0.000 A 
ATOM     17  C   UNL     1      -3.432  11.382  18.266  0.00  0.00    +0.000 A 
ENDBRANCH  11  12
BRANCH   1  19
ATOM     18  N   UNL     1       1.032   9.294  21.022  0.00  0.00    +0.000 NA
ATOM     19  C   UNL     1      -0.180   9.563  20.655  0.00  0.00    +0.000 C 
BRANCH  18  22
ATOM     20  O   UNL     1       2.273   8.119  18.837  0.00  0.00    +0.000 OA
ATOM     21  C   UNL     1       2.020   7.476  19.852  0.00  0.00    +0.000 C 
ATOM     22  N   UNL     1       1.399   7.988  20.979  0.00  0.00    +0.000 N 
ATOM     23  H   UNL     1       1.250   7.379  21.782  0.00  0.00    +0.000 HD
BRANCH  21  24
ATOM     24  C   UNL     1       2.385   6.024  19.922  0.00  0.00    +0.000 A 
ATOM     25  C   UNL     1       1.591   5.206  20.743  0.00  0.00    +0.000 A 
ATOM     26  C   UNL     1       1.868   3.844  20.878  0.00  0.00    +0.000 A 
ATOM     27  C   UNL     1       2.946   3.284  20.196  0.00  0.00    +0.000 A 
ATOM     28  C   UNL     1       3.740   4.078  19.370  0.00  0.00    +0.000 A 
ATOM     29  C   UNL     1       3.459   5.440  19.227  0.00  0.00    +0.000 A 
BRANCH  29  30
ATOM     30  O   UNL     1       4.252   6.188  18.391  0.00  0.00    +0.000 OA
ATOM     31  H   UNL     1       4.961   6.591  18.923  0.00  0.00    +0.000 HD
ENDBRANCH  29  30
ENDBRANCH  21  24
ENDBRANCH  18  22
ENDBRANCH   1  19
TORSDOF 5
ENDMDL
