MODEL 1
REMARK VINA RESULT:      -7.0      0.000      0.000
REMARK  Name = 
REMARK  9 active torsions:
REMARK  status: ('A' for Active; 'I' for Inactive)
REMARK    1  A    between atoms: C_1  and  C_2
REMARK    2  A    between atoms: C_2  and  C_4
REMARK    3  A    between atoms: C_5  and  C_6
REMARK    4  A    between atoms: C_8  and  C_9
REMARK    5  A    between atoms: N_14  and  S_15
REMARK    6  A    between atoms: S_15  and  C_18
REMARK    7  A    between atoms: C_21  and  C_22
REMARK    8  A    between atoms: C_24  and  C_25
REMARK    9  A    between atoms: C_28  and  C_29
REMARK                            x       y       z     vdW  Elec       q    Type
REMARK                         _______ _______ _______ _____ _____    ______ ____
ROOT
ATOM      1  C   UNL     1       3.117   7.082  17.895  0.00  0.00    +0.000 C 
ATOM      2  O   UNL     1       3.732   7.423  16.886  0.00  0.00    +0.000 OA
ATOM      3  N   UNL     1       2.409   8.037  18.654  0.00  0.00    +0.000 N 
ATOM      4  C   UNL     1       1.825   7.769  19.971  0.00  0.00    +0.000 C 
ATOM      5  C   UNL     1       1.734   8.983  20.878  0.00  0.00    +0.000 C 
ATOM      6  N   UNL     1       1.064  10.112  20.190  0.00  0.00    +0.000 NA
ATOM      7  C   UNL     1       1.806  10.449  18.928  0.00  0.00    +0.000 C 
ATOM      8  C   UNL     1       1.915   9.249  17.974  0.00  0.00    +0.000 C 
ENDROOT
BRANCH   1  13
ATOM      9  C   UNL     1       3.396   3.533  19.071  0.00  0.00    +0.000 A 
ATOM     10  C   UNL     1       2.036   3.719  18.857  0.00  0.00    +0.000 A 
ATOM     11  C   UNL     1       0.785   2.933  19.026  0.00  0.00    +0.000 C 
ATOM     12  N   UNL     1       1.915   4.932  18.245  0.00  0.00    +0.000 N 
ATOM     13  C   UNL     1       3.050   5.696  18.345  0.00  0.00    +0.000 A 
ATOM     14  C   UNL     1       4.036   4.811  18.783  0.00  0.00    +0.000 A 
ATOM     15  C   UNL     1       5.501   5.094  18.905  0.00  0.00    +0.000 C 
ATOM     16  H   UNL     1       1.057   5.249  17.828  0.00  0.00    +0.000 HD
BRANCH   9  18
ATOM     17  C   UNL     1       3.980   1.075  18.598  0.00  0.00    +0.000 C 
ATOM     18  C   UNL     1       4.074   2.292  19.477  0.00  0.00    +0.000 C 
ATOM     19  O   UNL     1       4.745   2.233  20.515  0.00  0.00    +0.000 OA
ENDBRANCH   9  18
ENDBRANCH   1  13
BRANCH   6  20
ATOM     20  S   UNL     1      -0.635  10.040  20.066  0.00  0.00    +0.000 S 
ATOM     21  O   UNL     1      -0.998  10.235  18.676  0.00  0.00    +0.000 OA
ATOM     22  O   UNL     1      -1.088   8.862  20.783  0.00  0.00    +0.000 OA
BRANCH  20  23
ATOM     23  C   UNL     1      -1.182  11.478  20.980  0.00  0.00    +0.000 A 
ATOM     24  C   UNL     1      -1.617  12.602  20.258  0.00  0.00    +0.000 A 
ATOM     25  C   UNL     1      -2.003  13.763  20.927  0.00  0.00    +0.000 A 
ATOM     26  C   UNL     1      -1.960  13.818  22.318  0.00  0.00    +0.000 A 
ATOM     27  C   UNL     1      -2.354  15.067  23.059  0.00  0.00    +0.000 C 
ATOM     28  C   UNL     1      -1.551  12.686  23.041  0.00  0.00    +0.000 A 
ATOM     29  C   UNL     1      -1.168  11.501  22.387  0.00  0.00    +0.000 A 
ATOM     30  C   UNL     1      -0.766  10.319  23.225  0.00  0.00    +0.000 C 
ENDBRANCH  20  23
ENDBRANCH   6  20
TORSDOF 4
ENDMDL
MODEL 2
REMARK VINA RESULT:      -6.8      3.104      4.347
REMARK  Name = 
REMARK  9 active torsions:
REMARK  status: ('A' for Active; 'I' for Inactive)
REMARK    1  A    between atoms: C_1  and  C_2
REMARK    2  A    between atoms: C_2  and  C_4
REMARK    3  A    between atoms: C_5  and  C_6
REMARK    4  A    between atoms: C_8  and  C_9
REMARK    5  A    between atoms: N_14  and  S_15
REMARK    6  A    between atoms: S_15  and  C_18
REMARK    7  A    between atoms: C_21  and  C_22
REMARK    8  A    between atoms: C_24  and  C_25
REMARK    9  A    between atoms: C_28  and  C_29
REMARK                            x       y       z     vdW  Elec       q    Type
REMARK                         _______ _______ _______ _____ _____    ______ ____
ROOT
ATOM      1  C   UNL     1       1.321   7.968  20.676  0.00  0.00    +0.000 C 
ATOM      2  O   UNL     1       0.910   7.639  21.788  0.00  0.00    +0.000 OA
ATOM      3  N   UNL     1       1.123   9.283  20.205  0.00  0.00    +0.000 N 
ATOM      4  C   UNL     1       1.389   9.708  18.829  0.00  0.00    +0.000 C 
ATOM      5  C   UNL     1       0.525  10.862  18.350  0.00  0.00    +0.000 C 
ATOM      6  N   UNL     1       0.575  11.995  19.304  0.00  0.00    +0.000 NA
ATOM      7  C   UNL     1       0.133  11.533  20.663  0.00  0.00    +0.000 C 
ATOM      8  C   UNL     1       0.987  10.370  21.192  0.00  0.00    +0.000 C 
ENDROOT
BRANCH   1  13
ATOM      9  C   UNL     1       3.028   5.286  18.689  0.00  0.00    +0.000 A 
ATOM     10  C   UNL     1       3.485   6.474  18.130  0.00  0.00    +0.000 A 
ATOM     11  C   UNL     1       4.360   6.884  17.000  0.00  0.00    +0.000 C 
ATOM     12  N   UNL     1       3.039   7.470  18.948  0.00  0.00    +0.000 N 
ATOM     13  C   UNL     1       2.053   7.054  19.806  0.00  0.00    +0.000 A 
ATOM     14  C   UNL     1       2.081   5.662  19.732  0.00  0.00    +0.000 A 
ATOM     15  C   UNL     1       1.312   4.705  20.589  0.00  0.00    +0.000 C 
ATOM     16  H   UNL     1       3.360   8.420  18.875  0.00  0.00    +0.000 HD
BRANCH   9  18
ATOM     17  C   UNL     1       2.562   3.103  17.414  0.00  0.00    +0.000 C 
ATOM     18  C   UNL     1       3.433   3.917  18.332  0.00  0.00    +0.000 C 
ATOM     19  O   UNL     1       4.489   3.427  18.750  0.00  0.00    +0.000 OA
ENDBRANCH   9  18
ENDBRANCH   1  13
BRANCH   6  20
ATOM     20  S   UNL     1       1.967  12.979  19.260  0.00  0.00    +0.000 S 
ATOM     21  O   UNL     1       2.531  13.027  20.594  0.00  0.00    +0.000 OA
ATOM     22  O   UNL     1       2.780  12.556  18.134  0.00  0.00    +0.000 OA
BRANCH  20  23
ATOM     23  C   UNL     1       1.318  14.603  18.883  0.00  0.00    +0.000 A 
ATOM     24  C   UNL     1      -0.073  14.794  18.932  0.00  0.00    +0.000 A 
ATOM     25  C   UNL     1      -0.628  16.029  18.594  0.00  0.00    +0.000 A 
ATOM     26  C   UNL     1       0.194  17.085  18.206  0.00  0.00    +0.000 A 
ATOM     27  C   UNL     1      -0.384  18.419  17.820  0.00  0.00    +0.000 C 
ATOM     28  C   UNL     1       1.586  16.902  18.183  0.00  0.00    +0.000 A 
ATOM     29  C   UNL     1       2.168  15.669  18.529  0.00  0.00    +0.000 A 
ATOM     30  C   UNL     1       3.666  15.553  18.507  0.00  0.00    +0.000 C 
ENDBRANCH  20  23
ENDBRANCH   6  20
TORSDOF 4
ENDMDL
MODEL 3
REMARK VINA RESULT:      -6.8      3.668      9.956
REMARK  Name = 
REMARK  9 active torsions:
REMARK  status: ('A' for Active; 'I' for Inactive)
REMARK    1  A    between atoms: C_1  and  C_2
REMARK    2  A    between atoms: C_2  and  C_4
REMARK    3  A    between atoms: C_5  and  C_6
REMARK    4  A    between atoms: C_8  and  C_9
REMARK    5  A    between atoms: N_14  and  S_15
REMARK    6  A    between atoms: S_15  and  C_18
REMARK    7  A    between atoms: C_21  and  C_22
REMARK    8  A    between atoms: C_24  and  C_25
REMARK    9  A    between atoms: C_28  and  C_29
REMARK                            x       y       z     vdW  Elec       q    Type
REMARK                         _______ _______ _______ _____ _____    ______ ____
ROOT
ATOM      1  C   UNL     1      -3.112  14.860  20.643  0.00  0.00    +0.000 C 
ATOM      2  O   UNL     1      -2.779  16.044  20.655  0.00  0.00    +0.000 OA
ATOM      3  N   UNL     1      -2.188  13.865  20.265  0.00  0.00    +0.000 N 
ATOM      4  C   UNL     1      -2.545  12.465  20.022  0.00  0.00    +0.000 C 
ATOM      5  C   UNL     1      -1.652  11.753  19.020  0.00  0.00    +0.000 C 
ATOM      6  N   UNL     1      -0.223  11.910  19.377  0.00  0.00    +0.000 NA
ATOM      7  C   UNL     1       0.124  13.370  19.450  0.00  0.00    +0.000 C 
ATOM      8  C   UNL     1      -0.750  14.129  20.460  0.00  0.00    +0.000 C 
ENDROOT
BRANCH   1  13
ATOM      9  C   UNL     1      -6.337  13.564  22.049  0.00  0.00    +0.000 A 
ATOM     10  C   UNL     1      -6.675  14.033  20.785  0.00  0.00    +0.000 A 
ATOM     11  C   UNL     1      -7.909  14.179  19.968  0.00  0.00    +0.000 C 
ATOM     12  N   UNL     1      -5.496  14.333  20.169  0.00  0.00    +0.000 N 
ATOM     13  C   UNL     1      -4.442  14.414  21.043  0.00  0.00    +0.000 A 
ATOM     14  C   UNL     1      -4.917  13.847  22.225  0.00  0.00    +0.000 A 
ATOM     15  C   UNL     1      -4.119  13.542  23.454  0.00  0.00    +0.000 C 
ATOM     16  H   UNL     1      -5.432  14.539  19.187  0.00  0.00    +0.000 HD
BRANCH   9  18
ATOM     17  C   UNL     1      -7.716  13.641  24.217  0.00  0.00    +0.000 C 
ATOM     18  C   UNL     1      -7.216  12.886  23.015  0.00  0.00    +0.000 C 
ATOM     19  O   UNL     1      -7.576  11.715  22.848  0.00  0.00    +0.000 OA
ENDBRANCH   9  18
ENDBRANCH   1  13
BRANCH   6  20
ATOM     20  S   UNL     1       0.368  10.933  20.643  0.00  0.00    +0.000 S 
ATOM     21  O   UNL     1       1.357  11.694  21.380  0.00  0.00    +0.000 OA
ATOM     22  O   UNL     1      -0.771  10.353  21.331  0.00  0.00    +0.000 OA
BRANCH  20  23
ATOM     23  C   UNL     1       1.220   9.612  19.789  0.00  0.00    +0.000 A 
ATOM     24  C   UNL     1       1.517   9.781  18.426  0.00  0.00    +0.000 A 
ATOM     25  C   UNL     1       2.132   8.756  17.707  0.00  0.00    +0.000 A 
ATOM     26  C   UNL     1       2.459   7.556  18.334  0.00  0.00    +0.000 A 
ATOM     27  C   UNL     1       3.107   6.432  17.573  0.00  0.00    +0.000 C 
ATOM     28  C   UNL     1       2.187   7.397  19.703  0.00  0.00    +0.000 A 
ATOM     29  C   UNL     1       1.576   8.421  20.450  0.00  0.00    +0.000 A 
ATOM     30  C   UNL     1       1.338   8.192  21.917  0.00  0.00    +0.000 C 
ENDBRANCH  20  23
ENDBRANCH   6  20
TORSDOF 4
ENDMDL
MODEL 4
REMARK VINA RESULT:      -6.6      0.366      1.298
REMARK  Name = 
REMARK  9 active torsions:
REMARK  status: ('A' for Active; 'I' for Inactive)
REMARK    1  A    between atoms: C_1  and  C_2
REMARK    2  A    between atoms: C_2  and  C_4
REMARK    3  A    between atoms: C_5  and  C_6
REMARK    4  A    between atoms: C_8  and  C_9
REMARK    5  A    between atoms: N_14  and  S_15
REMARK    6  A    between atoms: S_15  and  C_18
REMARK    7  A    between atoms: C_21  and  C_22
REMARK    8  A    between atoms: C_24  and  C_25
REMARK    9  A    between atoms: C_28  and  C_29
REMARK                            x       y       z     vdW  Elec       q    Type
REMARK                         _______ _______ _______ _____ _____    ______ ____
ROOT
ATOM      1  C   UNL     1       2.988   7.075  17.991  0.00  0.00    +0.000 C 
ATOM      2  O   UNL     1       3.531   7.419  16.942  0.00  0.00    +0.000 OA
ATOM      3  N   UNL     1       2.326   8.026  18.794  0.00  0.00    +0.000 N 
ATOM      4  C   UNL     1       1.834   7.756  20.148  0.00  0.00    +0.000 C 
ATOM      5  C   UNL     1       1.795   8.972  21.057  0.00  0.00    +0.000 C 
ATOM      6  N   UNL     1       1.071  10.094  20.414  0.00  0.00    +0.000 NA
ATOM      7  C   UNL     1       1.724  10.434  19.105  0.00  0.00    +0.000 C 
ATOM      8  C   UNL     1       1.777   9.233  18.148  0.00  0.00    +0.000 C 
ENDROOT
BRANCH   1  13
ATOM      9  C   UNL     1       3.374   3.528  19.143  0.00  0.00    +0.000 A 
ATOM     10  C   UNL     1       2.000   3.711  19.043  0.00  0.00    +0.000 A 
ATOM     11  C   UNL     1       0.770   2.922  19.317  0.00  0.00    +0.000 C 
ATOM     12  N   UNL     1       1.825   4.923  18.442  0.00  0.00    +0.000 N 
ATOM     13  C   UNL     1       2.963   5.689  18.446  0.00  0.00    +0.000 A 
ATOM     14  C   UNL     1       3.984   4.808  18.801  0.00  0.00    +0.000 A 
ATOM     15  C   UNL     1       5.453   5.095  18.801  0.00  0.00    +0.000 C 
ATOM     16  H   UNL     1       0.935   5.237  18.097  0.00  0.00    +0.000 HD
BRANCH   9  18
ATOM     17  C   UNL     1       3.971   1.089  18.594  0.00  0.00    +0.000 C 
ATOM     18  C   UNL     1       4.087   2.290  19.493  0.00  0.00    +0.000 C 
ATOM     19  O   UNL     1       4.804   2.220  20.499  0.00  0.00    +0.000 OA
ENDBRANCH   9  18
ENDBRANCH   1  13
BRANCH   6  20
ATOM     20  S   UNL     1      -0.632  10.009  20.405  0.00  0.00    +0.000 S 
ATOM     21  O   UNL     1      -1.082  10.060  19.029  0.00  0.00    +0.000 OA
ATOM     22  O   UNL     1      -1.030   8.910  21.266  0.00  0.00    +0.000 OA
BRANCH  20  23
ATOM     23  C   UNL     1      -1.130  11.532  21.201  0.00  0.00    +0.000 A 
ATOM     24  C   UNL     1      -1.380  11.511  22.583  0.00  0.00    +0.000 A 
ATOM     25  C   UNL     1      -1.821  12.662  23.237  0.00  0.00    +0.000 A 
ATOM     26  C   UNL     1      -2.018  13.842  22.523  0.00  0.00    +0.000 A 
ATOM     27  C   UNL     1      -2.511  15.090  23.205  0.00  0.00    +0.000 C 
ATOM     28  C   UNL     1      -1.743  13.870  21.147  0.00  0.00    +0.000 A 
ATOM     29  C   UNL     1      -1.287  12.724  20.469  0.00  0.00    +0.000 A 
ATOM     30  C   UNL     1      -0.988  12.833  19.000  0.00  0.00    +0.000 C 
ENDBRANCH  20  23
ENDBRANCH   6  20
TORSDOF 4
ENDMDL
MODEL 5
REMARK VINA RESULT:      -6.4      5.817      8.517
REMARK  Name = 
REMARK  9 active torsions:
REMARK  status: ('A' for Active; 'I' for Inactive)
REMARK    1  A    between atoms: C_1  and  C_2
REMARK    2  A    between atoms: C_2  and  C_4
REMARK    3  A    between atoms: C_5  and  C_6
REMARK    4  A    between atoms: C_8  and  C_9
REMARK    5  A    between atoms: N_14  and  S_15
REMARK    6  A    between atoms: S_15  and  C_18
REMARK    7  A    between atoms: C_21  and  C_22
REMARK    8  A    between atoms: C_24  and  C_25
REMARK    9  A    between atoms: C_28  and  C_29
REMARK                            x       y       z     vdW  Elec       q    Type
REMARK                         _______ _______ _______ _____ _____    ______ ____
ROOT
ATOM      1  C   UNL     1       0.713  13.756  18.605  0.00  0.00    +0.000 C 
ATOM      2  O   UNL     1      -0.340  14.225  18.179  0.00  0.00    +0.000 OA
ATOM      3  N   UNL     1       1.891  14.532  18.603  0.00  0.00    +0.000 N 
ATOM      4  C   UNL     1       3.224  13.999  18.894  0.00  0.00    +0.000 C 
ATOM      5  C   UNL     1       4.360  14.739  18.208  0.00  0.00    +0.000 C 
ATOM      6  N   UNL     1       4.274  16.196  18.461  0.00  0.00    +0.000 NA
ATOM      7  C   UNL     1       2.946  16.715  17.990  0.00  0.00    +0.000 C 
ATOM      8  C   UNL     1       1.765  16.000  18.666  0.00  0.00    +0.000 C 
ENDROOT
BRANCH   1  13
ATOM      9  C   UNL     1       0.842  10.481  20.428  0.00  0.00    +0.000 A 
ATOM     10  C   UNL     1       1.241  10.172  19.133  0.00  0.00    +0.000 A 
ATOM     11  C   UNL     1       1.612   8.953  18.366  0.00  0.00    +0.000 C 
ATOM     12  N   UNL     1       1.394  11.366  18.492  0.00  0.00    +0.000 N 
ATOM     13  C   UNL     1       0.807  12.409  19.161  0.00  0.00    +0.000 A 
ATOM     14  C   UNL     1       0.526  11.905  20.430  0.00  0.00    +0.000 A 
ATOM     15  C   UNL     1       0.024  12.679  21.609  0.00  0.00    +0.000 C 
ATOM     16  H   UNL     1       1.833  11.448  17.591  0.00  0.00    +0.000 HD
BRANCH   9  18
ATOM     17  C   UNL     1      -0.350   8.581  21.683  0.00  0.00    +0.000 C 
ATOM     18  C   UNL     1       0.777   9.573  21.584  0.00  0.00    +0.000 C 
ATOM     19  O   UNL     1       1.644   9.589  22.466  0.00  0.00    +0.000 OA
ENDBRANCH   9  18
ENDBRANCH   1  13
BRANCH   6  20
ATOM     20  S   UNL     1       4.797  16.746  19.988  0.00  0.00    +0.000 S 
ATOM     21  O   UNL     1       5.205  18.130  19.856  0.00  0.00    +0.000 OA
ATOM     22  O   UNL     1       3.796  16.367  20.968  0.00  0.00    +0.000 OA
BRANCH  20  23
ATOM     23  C   UNL     1       6.264  15.772  20.303  0.00  0.00    +0.000 A 
ATOM     24  C   UNL     1       6.210  14.790  21.306  0.00  0.00    +0.000 A 
ATOM     25  C   UNL     1       7.344  14.042  21.623  0.00  0.00    +0.000 A 
ATOM     26  C   UNL     1       8.541  14.262  20.946  0.00  0.00    +0.000 A 
ATOM     27  C   UNL     1       9.781  13.479  21.284  0.00  0.00    +0.000 C 
ATOM     28  C   UNL     1       8.589  15.224  19.924  0.00  0.00    +0.000 A 
ATOM     29  C   UNL     1       7.454  15.983  19.581  0.00  0.00    +0.000 A 
ATOM     30  C   UNL     1       7.570  16.977  18.460  0.00  0.00    +0.000 C 
ENDBRANCH  20  23
ENDBRANCH   6  20
TORSDOF 4
ENDMDL
MODEL 6
REMARK VINA RESULT:      -6.4      2.474      3.449
REMARK  Name = 
REMARK  9 active torsions:
REMARK  status: ('A' for Active; 'I' for Inactive)
REMARK    1  A    between atoms: C_1  and  C_2
REMARK    2  A    between atoms: C_2  and  C_4
REMARK    3  A    between atoms: C_5  and  C_6
REMARK    4  A    between atoms: C_8  and  C_9
REMARK    5  A    between atoms: N_14  and  S_15
REMARK    6  A    between atoms: S_15  and  C_18
REMARK    7  A    between atoms: C_21  and  C_22
REMARK    8  A    between atoms: C_24  and  C_25
REMARK    9  A    between atoms: C_28  and  C_29
REMARK                            x       y       z     vdW  Elec       q    Type
REMARK                         _______ _______ _______ _____ _____    ______ ____
ROOT
ATOM      1  C   UNL     1       2.246   6.639  19.717  0.00  0.00    +0.000 C 
ATOM      2  O   UNL     1       1.906   5.890  20.631  0.00  0.00    +0.000 OA
ATOM      3  N   UNL     1       1.690   7.930  19.609  0.00  0.00    +0.000 N 
ATOM      4  C   UNL     1       1.874   8.808  18.450  0.00  0.00    +0.000 C 
ATOM      5  C   UNL     1       0.729   9.776  18.206  0.00  0.00    +0.000 C 
ATOM      6  N   UNL     1       0.405  10.536  19.437  0.00  0.00    +0.000 NA
ATOM      7  C   UNL     1       0.064   9.583  20.546  0.00  0.00    +0.000 C 
ATOM      8  C   UNL     1       1.200   8.589  20.834  0.00  0.00    +0.000 C 
ENDROOT
BRANCH   1  13
ATOM      9  C   UNL     1       4.562   5.319  17.079  0.00  0.00    +0.000 A 
ATOM     10  C   UNL     1       5.218   6.433  17.589  0.00  0.00    +0.000 A 
ATOM     11  C   UNL     1       6.474   7.181  17.315  0.00  0.00    +0.000 C 
ATOM     12  N   UNL     1       4.500   6.825  18.680  0.00  0.00    +0.000 N 
ATOM     13  C   UNL     1       3.250   6.263  18.725  0.00  0.00    +0.000 A 
ATOM     14  C   UNL     1       3.286   5.239  17.780  0.00  0.00    +0.000 A 
ATOM     15  C   UNL     1       2.228   4.207  17.539  0.00  0.00    +0.000 C 
ATOM     16  H   UNL     1       4.836   7.507  19.337  0.00  0.00    +0.000 HD
BRANCH   9  18
ATOM     17  C   UNL     1       5.366   4.885  14.677  0.00  0.00    +0.000 C 
ATOM     18  C   UNL     1       5.056   4.380  16.059  0.00  0.00    +0.000 C 
ATOM     19  O   UNL     1       5.247   3.186  16.321  0.00  0.00    +0.000 OA
ENDBRANCH   9  18
ENDBRANCH   1  13
BRANCH   6  20
ATOM     20  S   UNL     1       1.446  11.823  19.844  0.00  0.00    +0.000 S 
ATOM     21  O   UNL     1       1.948  11.594  21.184  0.00  0.00    +0.000 OA
ATOM     22  O   UNL     1       2.367  12.022  18.740  0.00  0.00    +0.000 OA
BRANCH  20  23
ATOM     23  C   UNL     1       0.355  13.240  19.905  0.00  0.00    +0.000 A 
ATOM     24  C   UNL     1       0.384  14.150  18.836  0.00  0.00    +0.000 A 
ATOM     25  C   UNL     1      -0.410  15.296  18.863  0.00  0.00    +0.000 A 
ATOM     26  C   UNL     1      -1.241  15.548  19.953  0.00  0.00    +0.000 A 
ATOM     27  C   UNL     1      -2.093  16.787  20.013  0.00  0.00    +0.000 C 
ATOM     28  C   UNL     1      -1.291  14.624  21.010  0.00  0.00    +0.000 A 
ATOM     29  C   UNL     1      -0.506  13.456  20.997  0.00  0.00    +0.000 A 
ATOM     30  C   UNL     1      -0.629  12.499  22.150  0.00  0.00    +0.000 C 
ENDBRANCH  20  23
ENDBRANCH   6  20
TORSDOF 4
ENDMDL
MODEL 7
REMARK VINA RESULT:      -6.4      2.421      3.503
REMARK  Name = 
REMARK  9 active torsions:
REMARK  status: ('A' for Active; 'I' for Inactive)
REMARK    1  A    between atoms: C_1  and  C_2
REMARK    2  A    between atoms: C_2  and  C_4
REMARK    3  A    between atoms: C_5  and  C_6
REMARK    4  A    between atoms: C_8  and  C_9
REMARK    5  A    between atoms: N_14  and  S_15
REMARK    6  A    between atoms: S_15  and  C_18
REMARK    7  A    between atoms: C_21  and  C_22
REMARK    8  A    between atoms: C_24  and  C_25
REMARK    9  A    between atoms: C_28  and  C_29
REMARK                            x       y       z     vdW  Elec       q    Type
REMARK                         _______ _______ _______ _____ _____    ______ ____
ROOT
ATOM      1  C   UNL     1       2.238   6.559  19.866  0.00  0.00    +0.000 C 
ATOM      2  O   UNL     1       1.943   5.813  20.798  0.00  0.00    +0.000 OA
ATOM      3  N   UNL     1       1.627   7.824  19.744  0.00  0.00    +0.000 N 
ATOM      4  C   UNL     1       1.756   8.687  18.568  0.00  0.00    +0.000 C 
ATOM      5  C   UNL     1       0.568   9.602  18.326  0.00  0.00    +0.000 C 
ATOM      6  N   UNL     1       0.231  10.370  19.548  0.00  0.00    +0.000 NA
ATOM      7  C   UNL     1      -0.052   9.425  20.679  0.00  0.00    +0.000 C 
ATOM      8  C   UNL     1       1.128   8.484  20.966  0.00  0.00    +0.000 C 
ENDROOT
BRANCH   1  13
ATOM      9  C   UNL     1       4.548   5.308  17.190  0.00  0.00    +0.000 A 
ATOM     10  C   UNL     1       5.215   6.395  17.742  0.00  0.00    +0.000 A 
ATOM     11  C   UNL     1       6.480   7.138  17.499  0.00  0.00    +0.000 C 
ATOM     12  N   UNL     1       4.497   6.756  18.844  0.00  0.00    +0.000 N 
ATOM     13  C   UNL     1       3.240   6.208  18.865  0.00  0.00    +0.000 A 
ATOM     14  C   UNL     1       3.268   5.217  17.884  0.00  0.00    +0.000 A 
ATOM     15  C   UNL     1       2.200   4.207  17.602  0.00  0.00    +0.000 C 
ATOM     16  H   UNL     1       4.839   7.411  19.526  0.00  0.00    +0.000 HD
BRANCH   9  18
ATOM     17  C   UNL     1       5.325   4.944  14.767  0.00  0.00    +0.000 C 
ATOM     18  C   UNL     1       5.035   4.400  16.139  0.00  0.00    +0.000 C 
ATOM     19  O   UNL     1       5.237   3.201  16.365  0.00  0.00    +0.000 OA
ENDBRANCH   9  18
ENDBRANCH   1  13
BRANCH   6  20
ATOM     20  S   UNL     1       1.224  11.707  19.916  0.00  0.00    +0.000 S 
ATOM     21  O   UNL     1       1.916  11.430  21.159  0.00  0.00    +0.000 OA
ATOM     22  O   UNL     1       1.972  12.052  18.721  0.00  0.00    +0.000 OA
BRANCH  20  23
ATOM     23  C   UNL     1       0.053  13.024  20.225  0.00  0.00    +0.000 A 
ATOM     24  C   UNL     1      -1.310  12.697  20.317  0.00  0.00    +0.000 A 
ATOM     25  C   UNL     1      -2.264  13.697  20.505  0.00  0.00    +0.000 A 
ATOM     26  C   UNL     1      -1.873  15.031  20.602  0.00  0.00    +0.000 A 
ATOM     27  C   UNL     1      -2.886  16.127  20.786  0.00  0.00    +0.000 C 
ATOM     28  C   UNL     1      -0.508  15.355  20.537  0.00  0.00    +0.000 A 
ATOM     29  C   UNL     1       0.472  14.361  20.359  0.00  0.00    +0.000 A 
ATOM     30  C   UNL     1       1.916  14.778  20.324  0.00  0.00    +0.000 C 
ENDBRANCH  20  23
ENDBRANCH   6  20
TORSDOF 4
ENDMDL
MODEL 8
REMARK VINA RESULT:      -6.3      7.075      9.877
REMARK  Name = 
REMARK  9 active torsions:
REMARK  status: ('A' for Active; 'I' for Inactive)
REMARK    1  A    between atoms: C_1  and  C_2
REMARK    2  A    between atoms: C_2  and  C_4
REMARK    3  A    between atoms: C_5  and  C_6
REMARK    4  A    between atoms: C_8  and  C_9
REMARK    5  A    between atoms: N_14  and  S_15
REMARK    6  A    between atoms: S_15  and  C_18
REMARK    7  A    between atoms: C_21  and  C_22
REMARK    8  A    between atoms: C_24  and  C_25
REMARK    9  A    between atoms: C_28  and  C_29
REMARK                            x       y       z     vdW  Elec       q    Type
REMARK                         _______ _______ _______ _____ _____    ______ ____
ROOT
ATOM      1  C   UNL     1       0.058  15.752  19.006  0.00  0.00    +0.000 C 
ATOM      2  O   UNL     1      -0.565  16.748  18.641  0.00  0.00    +0.000 OA
ATOM      3  N   UNL     1       1.437  15.636  18.737  0.00  0.00    +0.000 N 
ATOM      4  C   UNL     1       2.213  14.411  18.946  0.00  0.00    +0.000 C 
ATOM      5  C   UNL     1       3.406  14.257  18.019  0.00  0.00    +0.000 C 
ATOM      6  N   UNL     1       4.258  15.469  18.044  0.00  0.00    +0.000 NA
ATOM      7  C   UNL     1       3.443  16.670  17.660  0.00  0.00    +0.000 C 
ATOM      8  C   UNL     1       2.228  16.871  18.579  0.00  0.00    +0.000 C 
ENDROOT
BRANCH   1  13
ATOM      9  C   UNL     1      -1.300  13.099  21.281  0.00  0.00    +0.000 A 
ATOM     10  C   UNL     1      -1.881  12.827  20.048  0.00  0.00    +0.000 A 
ATOM     11  C   UNL     1      -2.864  11.859  19.493  0.00  0.00    +0.000 C 
ATOM     12  N   UNL     1      -1.263  13.649  19.153  0.00  0.00    +0.000 N 
ATOM     13  C   UNL     1      -0.566  14.666  19.755  0.00  0.00    +0.000 A 
ATOM     14  C   UNL     1      -0.493  14.300  21.098  0.00  0.00    +0.000 A 
ATOM     15  C   UNL     1       0.298  14.983  22.170  0.00  0.00    +0.000 C 
ATOM     16  H   UNL     1      -1.371  13.550  18.158  0.00  0.00    +0.000 HD
BRANCH   9  18
ATOM     17  C   UNL     1      -2.747  12.333  23.263  0.00  0.00    +0.000 C 
ATOM     18  C   UNL     1      -1.436  12.322  22.524  0.00  0.00    +0.000 C 
ATOM     19  O   UNL     1      -0.504  11.637  22.962  0.00  0.00    +0.000 OA
ENDBRANCH   9  18
ENDBRANCH   1  13
BRANCH   6  20
ATOM     20  S   UNL     1       5.290  15.658  19.388  0.00  0.00    +0.000 S 
ATOM     21  O   UNL     1       5.680  17.052  19.469  0.00  0.00    +0.000 OA
ATOM     22  O   UNL     1       4.669  15.004  20.526  0.00  0.00    +0.000 OA
BRANCH  20  23
ATOM     23  C   UNL     1       6.740  14.710  18.940  0.00  0.00    +0.000 A 
ATOM     24  C   UNL     1       6.779  14.113  17.669  0.00  0.00    +0.000 A 
ATOM     25  C   UNL     1       7.866  13.322  17.295  0.00  0.00    +0.000 A 
ATOM     26  C   UNL     1       8.922  13.117  18.181  0.00  0.00    +0.000 A 
ATOM     27  C   UNL     1      10.095  12.252  17.805  0.00  0.00    +0.000 C 
ATOM     28  C   UNL     1       8.895  13.736  19.441  0.00  0.00    +0.000 A 
ATOM     29  C   UNL     1       7.814  14.547  19.834  0.00  0.00    +0.000 A 
ATOM     30  C   UNL     1       7.864  15.199  21.188  0.00  0.00    +0.000 C 
ENDBRANCH  20  23
ENDBRANCH   6  20
TORSDOF 4
ENDMDL
MODEL 9
REMARK VINA RESULT:      -6.3      3.605     10.411
REMARK  Name = 
REMARK  9 active torsions:
REMARK  status: ('A' for Active; 'I' for Inactive)
REMARK    1  A    between atoms: C_1  and  C_2
REMARK    2  A    between atoms: C_2  and  C_4
REMARK    3  A    between atoms: C_5  and  C_6
REMARK    4  A    between atoms: C_8  and  C_9
REMARK    5  A    between atoms: N_14  and  S_15
REMARK    6  A    between atoms: S_15  and  C_18
REMARK    7  A    between atoms: C_21  and  C_22
REMARK    8  A    between atoms: C_24  and  C_25
REMARK    9  A    between atoms: C_28  and  C_29
REMARK                            x       y       z     vdW  Elec       q    Type
REMARK                         _______ _______ _______ _____ _____    ______ ____
ROOT
ATOM      1  C   UNL     1       0.139  16.077  20.128  0.00  0.00    +0.000 C 
ATOM      2  O   UNL     1       1.126  16.796  20.272  0.00  0.00    +0.000 OA
ATOM      3  N   UNL     1       0.290  14.731  19.734  0.00  0.00    +0.000 N 
ATOM      4  C   UNL     1      -0.822  13.863  19.339  0.00  0.00    +0.000 C 
ATOM      5  C   UNL     1      -0.448  12.773  18.349  0.00  0.00    +0.000 C 
ATOM      6  N   UNL     1       0.721  11.999  18.827  0.00  0.00    +0.000 NA
ATOM      7  C   UNL     1       1.882  12.924  19.058  0.00  0.00    +0.000 C 
ATOM      8  C   UNL     1       1.551  14.040  20.062  0.00  0.00    +0.000 C 
ENDROOT
BRANCH   1  13
ATOM      9  C   UNL     1      -3.310  17.095  21.190  0.00  0.00    +0.000 A 
ATOM     10  C   UNL     1      -3.219  17.511  19.867  0.00  0.00    +0.000 A 
ATOM     11  C   UNL     1      -4.068  18.247  18.892  0.00  0.00    +0.000 C 
ATOM     12  N   UNL     1      -2.055  16.987  19.388  0.00  0.00    +0.000 N 
ATOM     13  C   UNL     1      -1.220  16.545  20.382  0.00  0.00    +0.000 A 
ATOM     14  C   UNL     1      -2.015  16.515  21.527  0.00  0.00    +0.000 A 
ATOM     15  C   UNL     1      -1.638  15.957  22.864  0.00  0.00    +0.000 C 
ATOM     16  H   UNL     1      -1.816  16.992  18.411  0.00  0.00    +0.000 HD
BRANCH   9  18
ATOM     17  C   UNL     1      -5.655  16.272  21.848  0.00  0.00    +0.000 C 
ATOM     18  C   UNL     1      -4.481  17.185  22.076  0.00  0.00    +0.000 C 
ATOM     19  O   UNL     1      -4.512  17.979  23.025  0.00  0.00    +0.000 OA
ENDBRANCH   9  18
ENDBRANCH   1  13
BRANCH   6  20
ATOM     20  S   UNL     1       0.433  10.838  20.042  0.00  0.00    +0.000 S 
ATOM     21  O   UNL     1       1.070  11.291  21.263  0.00  0.00    +0.000 OA
ATOM     22  O   UNL     1      -0.983  10.518  20.029  0.00  0.00    +0.000 OA
BRANCH  20  23
ATOM     23  C   UNL     1       1.323   9.398  19.463  0.00  0.00    +0.000 A 
ATOM     24  C   UNL     1       1.827   9.408  18.152  0.00  0.00    +0.000 A 
ATOM     25  C   UNL     1       2.482   8.288  17.640  0.00  0.00    +0.000 A 
ATOM     26  C   UNL     1       2.641   7.148  18.425  0.00  0.00    +0.000 A 
ATOM     27  C   UNL     1       3.327   5.922  17.887  0.00  0.00    +0.000 C 
ATOM     28  C   UNL     1       2.160   7.147  19.745  0.00  0.00    +0.000 A 
ATOM     29  C   UNL     1       1.506   8.270  20.285  0.00  0.00    +0.000 A 
ATOM     30  C   UNL     1       1.041   8.209  21.713  0.00  0.00    +0.000 C 
ENDBRANCH  20  23
ENDBRANCH   6  20
TORSDOF 4
ENDMDL
