MODEL 1
REMARK VINA RESULT:      -8.6      0.000      0.000
REMARK  Name = 
REMARK  15 active torsions:
REMARK  status: ('A' for Active; 'I' for Inactive)
REMARK    1  A    between atoms: C_1  and  O_2
REMARK    2  A    between atoms: O_2  and  C_3
REMARK    3  A    between atoms: C_8  and  C_9
REMARK    4  A    between atoms: C_12  and  C_13
REMARK    5  A    between atoms: C_13  and  O_14
REMARK    6  A    between atoms: O_14  and  C_15
REMARK    7  A    between atoms: C_19  and  C_20
REMARK    8  A    between atoms: C_20  and  C_21
REMARK    9  A    between atoms: C_20  and  C_25
REMARK   10  A    between atoms: C_21  and  C_22
REMARK   11  A    between atoms: C_22  and  O_24
REMARK   12  A    between atoms: C_30  and  C_31
REMARK   13  A    between atoms: C_31  and  C_32
REMARK   14  A    between atoms: C_31  and  C_33
REMARK   15  A    between atoms: C_31  and  C_34
REMARK                            x       y       z     vdW  Elec       q    Type
REMARK                         _______ _______ _______ _____ _____    ______ ____
ROOT
ATOM      1  C   UNL     1      -0.542  11.043  21.870  0.00  0.00    +0.000 A 
ATOM      2  C   UNL     1       0.191  10.162  22.731  0.00  0.00    +0.000 A 
ATOM      3  C   UNL     1       0.922   9.041  22.322  0.00  0.00    +0.000 A 
ATOM      4  C   UNL     1       0.973   8.724  20.989  0.00  0.00    +0.000 A 
ATOM      5  C   UNL     1       0.322   9.572  20.091  0.00  0.00    +0.000 A 
ATOM      6  C   UNL     1      -0.463  10.711  20.458  0.00  0.00    +0.000 A 
ENDROOT
BRANCH   1  12
ATOM      7  C   UNL     1      -3.370  12.906  23.827  0.00  0.00    +0.000 A 
ATOM      8  C   UNL     1      -2.823  14.137  24.106  0.00  0.00    +0.000 A 
ATOM      9  C   UNL     1      -1.571  14.422  23.583  0.00  0.00    +0.000 A 
ATOM     10  C   UNL     1      -0.863  13.469  22.824  0.00  0.00    +0.000 A 
ATOM     11  F   UNL     1       0.305  13.922  22.350  0.00  0.00    +0.000 F 
ATOM     12  C   UNL     1      -1.343  12.157  22.569  0.00  0.00    +0.000 A 
ATOM     13  C   UNL     1      -2.632  11.967  23.085  0.00  0.00    +0.000 A 
BRANCH   7  15
ATOM     14  C   UNL     1      -5.662  12.608  23.350  0.00  0.00    +0.000 C 
ATOM     15  O   UNL     1      -4.581  12.437  24.254  0.00  0.00    +0.000 OA
ENDBRANCH   7  15
ENDBRANCH   1  12
BRANCH   6  16
ATOM     16  C   UNL     1      -1.180  11.396  19.240  0.00  0.00    +0.000 C 
ATOM     17  C   UNL     1      -0.497  12.717  18.719  0.00  0.00    +0.000 C 
ATOM     18  C   UNL     1      -1.085  10.488  17.981  0.00  0.00    +0.000 C 
ATOM     19  C   UNL     1      -2.593  11.929  19.617  0.00  0.00    +0.000 C 
ENDBRANCH   6  16
BRANCH   4  20
ATOM     20  C   UNL     1       1.661   7.486  20.487  0.00  0.00    +0.000 C 
BRANCH  20  21
ATOM     21  O   UNL     1       2.178   7.718  19.175  0.00  0.00    +0.000 OA
BRANCH  21  22
ATOM     22  C   UNL     1       2.730   6.607  18.593  0.00  0.00    +0.000 A 
ATOM     23  C   UNL     1       1.934   5.465  18.566  0.00  0.00    +0.000 A 
ATOM     24  C   UNL     1       2.407   4.298  17.968  0.00  0.00    +0.000 A 
ATOM     25  C   UNL     1       3.679   4.275  17.390  0.00  0.00    +0.000 A 
ATOM     26  C   UNL     1       4.503   5.413  17.423  0.00  0.00    +0.000 A 
ATOM     27  C   UNL     1       4.020   6.564  18.058  0.00  0.00    +0.000 A 
BRANCH  26  28
ATOM     28  C   UNL     1       5.834   5.406  16.681  0.00  0.00    +0.000 C 
BRANCH  28  29
ATOM     29  C   UNL     1       5.975   4.280  15.674  0.00  0.00    +0.000 C 
ATOM     30  C   UNL     1       5.430   4.361  14.268  0.00  0.00    +0.000 C 
ATOM     31  C   UNL     1       6.909   4.469  14.502  0.00  0.00    +0.000 C 
ENDBRANCH  28  29
BRANCH  28  32
ATOM     32  C   UNL     1       7.013   5.420  17.670  0.00  0.00    +0.000 C 
BRANCH  32  33
ATOM     33  C   UNL     1       7.692   6.764  17.808  0.00  0.00    +0.000 C 
ATOM     34  O   UNL     1       8.339   7.102  18.789  0.00  0.00    +0.000 OA
BRANCH  33  35
ATOM     35  O   UNL     1       7.519   7.585  16.750  0.00  0.00    +0.000 OA
ATOM     36  H   UNL     1       7.219   8.486  16.986  0.00  0.00    +0.000 HD
ENDBRANCH  33  35
ENDBRANCH  32  33
ENDBRANCH  28  32
ENDBRANCH  26  28
ENDBRANCH  21  22
ENDBRANCH  20  21
ENDBRANCH   4  20
TORSDOF 11
ENDMDL
MODEL 2
REMARK VINA RESULT:      -8.5      3.178     10.110
REMARK  Name = 
REMARK  15 active torsions:
REMARK  status: ('A' for Active; 'I' for Inactive)
REMARK    1  A    between atoms: C_1  and  O_2
REMARK    2  A    between atoms: O_2  and  C_3
REMARK    3  A    between atoms: C_8  and  C_9
REMARK    4  A    between atoms: C_12  and  C_13
REMARK    5  A    between atoms: C_13  and  O_14
REMARK    6  A    between atoms: O_14  and  C_15
REMARK    7  A    between atoms: C_19  and  C_20
REMARK    8  A    between atoms: C_20  and  C_21
REMARK    9  A    between atoms: C_20  and  C_25
REMARK   10  A    between atoms: C_21  and  C_22
REMARK   11  A    between atoms: C_22  and  O_24
REMARK   12  A    between atoms: C_30  and  C_31
REMARK   13  A    between atoms: C_31  and  C_32
REMARK   14  A    between atoms: C_31  and  C_33
REMARK   15  A    between atoms: C_31  and  C_34
REMARK                            x       y       z     vdW  Elec       q    Type
REMARK                         _______ _______ _______ _____ _____    ______ ____
ROOT
ATOM      1  C   UNL     1       3.841   5.391  18.665  0.00  0.00    +0.000 A 
ATOM      2  C   UNL     1       3.557   6.796  18.707  0.00  0.00    +0.000 A 
ATOM      3  C   UNL     1       2.540   7.402  19.451  0.00  0.00    +0.000 A 
ATOM      4  C   UNL     1       1.721   6.622  20.227  0.00  0.00    +0.000 A 
ATOM      5  C   UNL     1       1.976   5.251  20.270  0.00  0.00    +0.000 A 
ATOM      6  C   UNL     1       2.982   4.577  19.507  0.00  0.00    +0.000 A 
ENDROOT
BRANCH   1  12
ATOM      7  C   UNL     1       5.715   4.357  15.391  0.00  0.00    +0.000 A 
ATOM      8  C   UNL     1       7.042   4.360  15.756  0.00  0.00    +0.000 A 
ATOM      9  C   UNL     1       7.347   4.598  17.087  0.00  0.00    +0.000 A 
ATOM     10  C   UNL     1       6.335   4.870  18.030  0.00  0.00    +0.000 A 
ATOM     11  F   UNL     1       6.795   5.026  19.278  0.00  0.00    +0.000 F 
ATOM     12  C   UNL     1       4.957   4.957  17.698  0.00  0.00    +0.000 A 
ATOM     13  C   UNL     1       4.729   4.652  16.349  0.00  0.00    +0.000 A 
BRANCH   7  15
ATOM     14  C   UNL     1       6.151   3.706  13.165  0.00  0.00    +0.000 C 
ATOM     15  O   UNL     1       5.216   4.150  14.136  0.00  0.00    +0.000 OA
ENDBRANCH   7  15
ENDBRANCH   1  12
BRANCH   6  16
ATOM     16  C   UNL     1       2.947   3.015  19.666  0.00  0.00    +0.000 C 
ATOM     17  C   UNL     1       1.975   2.478  20.783  0.00  0.00    +0.000 C 
ATOM     18  C   UNL     1       2.340   2.358  18.394  0.00  0.00    +0.000 C 
ATOM     19  C   UNL     1       4.307   2.449  20.169  0.00  0.00    +0.000 C 
ENDBRANCH   6  16
BRANCH   4  20
ATOM     20  C   UNL     1       0.552   7.192  20.980  0.00  0.00    +0.000 C 
BRANCH  20  21
ATOM     21  O   UNL     1       0.976   8.315  21.754  0.00  0.00    +0.000 OA
BRANCH  21  22
ATOM     22  C   UNL     1       0.186   9.424  21.601  0.00  0.00    +0.000 A 
ATOM     23  C   UNL     1      -0.184  10.085  22.769  0.00  0.00    +0.000 A 
ATOM     24  C   UNL     1      -0.965  11.238  22.702  0.00  0.00    +0.000 A 
ATOM     25  C   UNL     1      -1.372  11.734  21.462  0.00  0.00    +0.000 A 
ATOM     26  C   UNL     1      -1.023  11.071  20.273  0.00  0.00    +0.000 A 
ATOM     27  C   UNL     1      -0.266   9.897  20.366  0.00  0.00    +0.000 A 
BRANCH  26  28
ATOM     28  C   UNL     1      -1.371  11.695  18.927  0.00  0.00    +0.000 C 
BRANCH  28  29
ATOM     29  C   UNL     1      -1.503  10.692  17.796  0.00  0.00    +0.000 C 
ATOM     30  C   UNL     1      -2.727   9.831  17.597  0.00  0.00    +0.000 C 
ATOM     31  C   UNL     1      -2.471  10.988  16.674  0.00  0.00    +0.000 C 
ENDBRANCH  28  29
BRANCH  28  32
ATOM     32  C   UNL     1      -0.379  12.815  18.568  0.00  0.00    +0.000 C 
BRANCH  32  33
ATOM     33  C   UNL     1       1.065  12.486  18.871  0.00  0.00    +0.000 C 
ATOM     34  O   UNL     1       1.673  12.918  19.841  0.00  0.00    +0.000 OA
BRANCH  33  35
ATOM     35  O   UNL     1       1.651  11.671  17.968  0.00  0.00    +0.000 OA
ATOM     36  H   UNL     1       1.659  10.726  18.226  0.00  0.00    +0.000 HD
ENDBRANCH  33  35
ENDBRANCH  32  33
ENDBRANCH  28  32
ENDBRANCH  26  28
ENDBRANCH  21  22
ENDBRANCH  20  21
ENDBRANCH   4  20
TORSDOF 11
ENDMDL
MODEL 3
REMARK VINA RESULT:      -8.5      3.194     10.333
REMARK  Name = 
REMARK  15 active torsions:
REMARK  status: ('A' for Active; 'I' for Inactive)
REMARK    1  A    between atoms: C_1  and  O_2
REMARK    2  A    between atoms: O_2  and  C_3
REMARK    3  A    between atoms: C_8  and  C_9
REMARK    4  A    between atoms: C_12  and  C_13
REMARK    5  A    between atoms: C_13  and  O_14
REMARK    6  A    between atoms: O_14  and  C_15
REMARK    7  A    between atoms: C_19  and  C_20
REMARK    8  A    between atoms: C_20  and  C_21
REMARK    9  A    between atoms: C_20  and  C_25
REMARK   10  A    between atoms: C_21  and  C_22
REMARK   11  A    between atoms: C_22  and  O_24
REMARK   12  A    between atoms: C_30  and  C_31
REMARK   13  A    between atoms: C_31  and  C_32
REMARK   14  A    between atoms: C_31  and  C_33
REMARK   15  A    between atoms: C_31  and  C_34
REMARK                            x       y       z     vdW  Elec       q    Type
REMARK                         _______ _______ _______ _____ _____    ______ ____
ROOT
ATOM      1  C   UNL     1       3.897   5.359  18.551  0.00  0.00    +0.000 A 
ATOM      2  C   UNL     1       3.626   6.766  18.596  0.00  0.00    +0.000 A 
ATOM      3  C   UNL     1       2.628   7.382  19.359  0.00  0.00    +0.000 A 
ATOM      4  C   UNL     1       1.819   6.609  20.153  0.00  0.00    +0.000 A 
ATOM      5  C   UNL     1       2.063   5.236  20.192  0.00  0.00    +0.000 A 
ATOM      6  C   UNL     1       3.048   4.553  19.411  0.00  0.00    +0.000 A 
ENDROOT
BRANCH   1  12
ATOM      7  C   UNL     1       5.698   4.308  15.241  0.00  0.00    +0.000 A 
ATOM      8  C   UNL     1       7.032   4.298  15.581  0.00  0.00    +0.000 A 
ATOM      9  C   UNL     1       7.364   4.532  16.906  0.00  0.00    +0.000 A 
ATOM     10  C   UNL     1       6.373   4.813  17.868  0.00  0.00    +0.000 A 
ATOM     11  F   UNL     1       6.858   4.965  19.108  0.00  0.00    +0.000 F 
ATOM     12  C   UNL     1       4.990   4.914  17.562  0.00  0.00    +0.000 A 
ATOM     13  C   UNL     1       4.734   4.612  16.218  0.00  0.00    +0.000 A 
BRANCH   7  15
ATOM     14  C   UNL     1       6.090   3.678  13.002  0.00  0.00    +0.000 C 
ATOM     15  O   UNL     1       5.173   4.107  13.996  0.00  0.00    +0.000 OA
ENDBRANCH   7  15
ENDBRANCH   1  12
BRANCH   6  16
ATOM     16  C   UNL     1       3.004   2.991  19.574  0.00  0.00    +0.000 C 
ATOM     17  C   UNL     1       2.045   2.464  20.706  0.00  0.00    +0.000 C 
ATOM     18  C   UNL     1       2.373   2.337  18.312  0.00  0.00    +0.000 C 
ATOM     19  C   UNL     1       4.367   2.416  20.056  0.00  0.00    +0.000 C 
ENDBRANCH   6  16
BRANCH   4  20
ATOM     20  C   UNL     1       0.669   7.189  20.928  0.00  0.00    +0.000 C 
BRANCH  20  21
ATOM     21  O   UNL     1       1.138   8.242  21.773  0.00  0.00    +0.000 OA
BRANCH  21  22
ATOM     22  C   UNL     1       0.539   9.451  21.536  0.00  0.00    +0.000 A 
ATOM     23  C   UNL     1      -0.152  10.017  22.605  0.00  0.00    +0.000 A 
ATOM     24  C   UNL     1      -0.769  11.259  22.458  0.00  0.00    +0.000 A 
ATOM     25  C   UNL     1      -0.689  11.939  21.241  0.00  0.00    +0.000 A 
ATOM     26  C   UNL     1      -0.011  11.376  20.146  0.00  0.00    +0.000 A 
ATOM     27  C   UNL     1       0.572  10.113  20.306  0.00  0.00    +0.000 A 
BRANCH  26  28
ATOM     28  C   UNL     1       0.170  12.186  18.869  0.00  0.00    +0.000 C 
BRANCH  28  29
ATOM     29  C   UNL     1       1.067  13.399  19.027  0.00  0.00    +0.000 C 
ATOM     30  C   UNL     1       2.410  13.345  19.716  0.00  0.00    +0.000 C 
ATOM     31  C   UNL     1       2.343  13.467  18.220  0.00  0.00    +0.000 C 
ENDBRANCH  28  29
BRANCH  28  32
ATOM     32  C   UNL     1      -1.193  12.574  18.269  0.00  0.00    +0.000 C 
BRANCH  32  33
ATOM     33  C   UNL     1      -2.040  11.399  17.837  0.00  0.00    +0.000 C 
ATOM     34  O   UNL     1      -3.183  11.204  18.227  0.00  0.00    +0.000 OA
BRANCH  33  35
ATOM     35  O   UNL     1      -1.425  10.556  16.980  0.00  0.00    +0.000 OA
ATOM     36  H   UNL     1      -1.412   9.623  17.275  0.00  0.00    +0.000 HD
ENDBRANCH  33  35
ENDBRANCH  32  33
ENDBRANCH  28  32
ENDBRANCH  26  28
ENDBRANCH  21  22
ENDBRANCH  20  21
ENDBRANCH   4  20
TORSDOF 11
ENDMDL
MODEL 4
REMARK VINA RESULT:      -8.4      2.810      9.850
REMARK  Name = 
REMARK  15 active torsions:
REMARK  status: ('A' for Active; 'I' for Inactive)
REMARK    1  A    between atoms: C_1  and  O_2
REMARK    2  A    between atoms: O_2  and  C_3
REMARK    3  A    between atoms: C_8  and  C_9
REMARK    4  A    between atoms: C_12  and  C_13
REMARK    5  A    between atoms: C_13  and  O_14
REMARK    6  A    between atoms: O_14  and  C_15
REMARK    7  A    between atoms: C_19  and  C_20
REMARK    8  A    between atoms: C_20  and  C_21
REMARK    9  A    between atoms: C_20  and  C_25
REMARK   10  A    between atoms: C_21  and  C_22
REMARK   11  A    between atoms: C_22  and  O_24
REMARK   12  A    between atoms: C_30  and  C_31
REMARK   13  A    between atoms: C_31  and  C_32
REMARK   14  A    between atoms: C_31  and  C_33
REMARK   15  A    between atoms: C_31  and  C_34
REMARK                            x       y       z     vdW  Elec       q    Type
REMARK                         _______ _______ _______ _____ _____    ______ ____
ROOT
ATOM      1  C   UNL     1       3.149   5.842  19.091  0.00  0.00    +0.000 A 
ATOM      2  C   UNL     1       2.887   7.251  19.062  0.00  0.00    +0.000 A 
ATOM      3  C   UNL     1       1.948   7.925  19.850  0.00  0.00    +0.000 A 
ATOM      4  C   UNL     1       1.193   7.213  20.748  0.00  0.00    +0.000 A 
ATOM      5  C   UNL     1       1.434   5.843  20.861  0.00  0.00    +0.000 A 
ATOM      6  C   UNL     1       2.359   5.102  20.059  0.00  0.00    +0.000 A 
ENDROOT
BRANCH   1  12
ATOM      7  C   UNL     1       6.520   5.181  17.220  0.00  0.00    +0.000 A 
ATOM      8  C   UNL     1       6.200   4.210  16.299  0.00  0.00    +0.000 A 
ATOM      9  C   UNL     1       4.873   3.824  16.199  0.00  0.00    +0.000 A 
ATOM     10  C   UNL     1       3.887   4.377  17.040  0.00  0.00    +0.000 A 
ATOM     11  F   UNL     1       2.650   3.934  16.779  0.00  0.00    +0.000 F 
ATOM     12  C   UNL     1       4.168   5.324  18.060  0.00  0.00    +0.000 A 
ATOM     13  C   UNL     1       5.519   5.699  18.060  0.00  0.00    +0.000 A 
BRANCH   7  15
ATOM     14  C   UNL     1       7.934   6.303  18.739  0.00  0.00    +0.000 C 
ATOM     15  O   UNL     1       7.763   5.687  17.472  0.00  0.00    +0.000 OA
ENDBRANCH   7  15
ENDBRANCH   1  12
BRANCH   6  16
ATOM     16  C   UNL     1       2.320   3.555  20.328  0.00  0.00    +0.000 C 
ATOM     17  C   UNL     1       3.681   2.799  20.089  0.00  0.00    +0.000 C 
ATOM     18  C   UNL     1       2.081   3.277  21.839  0.00  0.00    +0.000 C 
ATOM     19  C   UNL     1       1.394   2.811  19.322  0.00  0.00    +0.000 C 
ENDBRANCH   6  16
BRANCH   4  20
ATOM     20  C   UNL     1       0.103   7.854  21.560  0.00  0.00    +0.000 C 
BRANCH  20  21
ATOM     21  O   UNL     1       0.560   9.102  22.085  0.00  0.00    +0.000 OA
BRANCH  21  22
ATOM     22  C   UNL     1      -0.231  10.167  21.748  0.00  0.00    +0.000 A 
ATOM     23  C   UNL     1      -0.733  10.922  22.805  0.00  0.00    +0.000 A 
ATOM     24  C   UNL     1      -1.526  12.040  22.550  0.00  0.00    +0.000 A 
ATOM     25  C   UNL     1      -1.811  12.408  21.233  0.00  0.00    +0.000 A 
ATOM     26  C   UNL     1      -1.327  11.650  20.154  0.00  0.00    +0.000 A 
ATOM     27  C   UNL     1      -0.561  10.511  20.434  0.00  0.00    +0.000 A 
BRANCH  26  28
ATOM     28  C   UNL     1      -1.546  12.137  18.727  0.00  0.00    +0.000 C 
BRANCH  28  29
ATOM     29  C   UNL     1      -1.510  11.035  17.685  0.00  0.00    +0.000 C 
ATOM     30  C   UNL     1      -2.554   9.948  17.599  0.00  0.00    +0.000 C 
ATOM     31  C   UNL     1      -2.538  11.050  16.579  0.00  0.00    +0.000 C 
ENDBRANCH  28  29
BRANCH  28  32
ATOM     32  C   UNL     1      -0.564  13.268  18.377  0.00  0.00    +0.000 C 
BRANCH  32  33
ATOM     33  C   UNL     1       0.865  13.002  18.793  0.00  0.00    +0.000 C 
ATOM     34  O   UNL     1       1.369  13.442  19.817  0.00  0.00    +0.000 OA
BRANCH  33  35
ATOM     35  O   UNL     1       1.562  12.235  17.928  0.00  0.00    +0.000 OA
ATOM     36  H   UNL     1       1.022  11.847  17.210  0.00  0.00    +0.000 HD
ENDBRANCH  33  35
ENDBRANCH  32  33
ENDBRANCH  28  32
ENDBRANCH  26  28
ENDBRANCH  21  22
ENDBRANCH  20  21
ENDBRANCH   4  20
TORSDOF 11
ENDMDL
MODEL 5
REMARK VINA RESULT:      -8.2      3.499     11.078
REMARK  Name = 
REMARK  15 active torsions:
REMARK  status: ('A' for Active; 'I' for Inactive)
REMARK    1  A    between atoms: C_1  and  O_2
REMARK    2  A    between atoms: O_2  and  C_3
REMARK    3  A    between atoms: C_8  and  C_9
REMARK    4  A    between atoms: C_12  and  C_13
REMARK    5  A    between atoms: C_13  and  O_14
REMARK    6  A    between atoms: O_14  and  C_15
REMARK    7  A    between atoms: C_19  and  C_20
REMARK    8  A    between atoms: C_20  and  C_21
REMARK    9  A    between atoms: C_20  and  C_25
REMARK   10  A    between atoms: C_21  and  C_22
REMARK   11  A    between atoms: C_22  and  O_24
REMARK   12  A    between atoms: C_30  and  C_31
REMARK   13  A    between atoms: C_31  and  C_32
REMARK   14  A    between atoms: C_31  and  C_33
REMARK   15  A    between atoms: C_31  and  C_34
REMARK                            x       y       z     vdW  Elec       q    Type
REMARK                         _______ _______ _______ _____ _____    ______ ____
ROOT
ATOM      1  C   UNL     1       4.054   6.124  17.592  0.00  0.00    +0.000 A 
ATOM      2  C   UNL     1       3.986   7.531  17.328  0.00  0.00    +0.000 A 
ATOM      3  C   UNL     1       3.077   8.427  17.899  0.00  0.00    +0.000 A 
ATOM      4  C   UNL     1       2.154   7.961  18.801  0.00  0.00    +0.000 A 
ATOM      5  C   UNL     1       2.198   6.609  19.139  0.00  0.00    +0.000 A 
ATOM      6  C   UNL     1       3.086   5.645  18.564  0.00  0.00    +0.000 A 
ENDROOT
BRANCH   1  12
ATOM      7  C   UNL     1       5.771   4.235  14.629  0.00  0.00    +0.000 A 
ATOM      8  C   UNL     1       7.061   4.038  15.066  0.00  0.00    +0.000 A 
ATOM      9  C   UNL     1       7.370   4.423  16.361  0.00  0.00    +0.000 A 
ATOM     10  C   UNL     1       6.409   5.033  17.191  0.00  0.00    +0.000 A 
ATOM     11  F   UNL     1       6.856   5.295  18.426  0.00  0.00    +0.000 F 
ATOM     12  C   UNL     1       5.086   5.332  16.769  0.00  0.00    +0.000 A 
ATOM     13  C   UNL     1       4.839   4.865  15.471  0.00  0.00    +0.000 A 
BRANCH   7  15
ATOM     14  C   UNL     1       6.232   3.522  12.427  0.00  0.00    +0.000 C 
ATOM     15  O   UNL     1       5.275   3.931  13.392  0.00  0.00    +0.000 OA
ENDBRANCH   7  15
ENDBRANCH   1  12
BRANCH   6  16
ATOM     16  C   UNL     1       2.816   4.176  19.050  0.00  0.00    +0.000 C 
ATOM     17  C   UNL     1       2.405   3.162  17.917  0.00  0.00    +0.000 C 
ATOM     18  C   UNL     1       4.132   3.532  19.571  0.00  0.00    +0.000 C 
ATOM     19  C   UNL     1       1.573   4.089  19.982  0.00  0.00    +0.000 C 
ENDBRANCH   6  16
BRANCH   4  20
ATOM     20  C   UNL     1       1.088   8.846  19.384  0.00  0.00    +0.000 C 
BRANCH  20  21
ATOM     21  O   UNL     1       0.997  10.056  18.629  0.00  0.00    +0.000 OA
BRANCH  21  22
ATOM     22  C   UNL     1      -0.154  10.764  18.854  0.00  0.00    +0.000 A 
ATOM     23  C   UNL     1      -0.042  11.879  19.681  0.00  0.00    +0.000 A 
ATOM     24  C   UNL     1      -1.159  12.671  19.940  0.00  0.00    +0.000 A 
ATOM     25  C   UNL     1      -2.391  12.350  19.367  0.00  0.00    +0.000 A 
ATOM     26  C   UNL     1      -2.528  11.220  18.543  0.00  0.00    +0.000 A 
ATOM     27  C   UNL     1      -1.400  10.420  18.323  0.00  0.00    +0.000 A 
BRANCH  26  28
ATOM     28  C   UNL     1      -3.848  10.958  17.830  0.00  0.00    +0.000 C 
BRANCH  28  29
ATOM     29  C   UNL     1      -3.807  11.220  16.336  0.00  0.00    +0.000 C 
ATOM     30  C   UNL     1      -2.655  10.794  15.457  0.00  0.00    +0.000 C 
ATOM     31  C   UNL     1      -3.959  10.051  15.391  0.00  0.00    +0.000 C 
ENDBRANCH  28  29
BRANCH  28  32
ATOM     32  C   UNL     1      -4.997  11.731  18.500  0.00  0.00    +0.000 C 
BRANCH  32  33
ATOM     33  C   UNL     1      -6.375  11.193  18.187  0.00  0.00    +0.000 C 
ATOM     34  O   UNL     1      -6.798  10.123  18.601  0.00  0.00    +0.000 OA
BRANCH  33  35
ATOM     35  O   UNL     1      -7.115  11.992  17.390  0.00  0.00    +0.000 OA
ATOM     36  H   UNL     1      -7.712  12.599  17.873  0.00  0.00    +0.000 HD
ENDBRANCH  33  35
ENDBRANCH  32  33
ENDBRANCH  28  32
ENDBRANCH  26  28
ENDBRANCH  21  22
ENDBRANCH  20  21
ENDBRANCH   4  20
TORSDOF 11
ENDMDL
MODEL 6
REMARK VINA RESULT:      -8.1      2.358      3.521
REMARK  Name = 
REMARK  15 active torsions:
REMARK  status: ('A' for Active; 'I' for Inactive)
REMARK    1  A    between atoms: C_1  and  O_2
REMARK    2  A    between atoms: O_2  and  C_3
REMARK    3  A    between atoms: C_8  and  C_9
REMARK    4  A    between atoms: C_12  and  C_13
REMARK    5  A    between atoms: C_13  and  O_14
REMARK    6  A    between atoms: O_14  and  C_15
REMARK    7  A    between atoms: C_19  and  C_20
REMARK    8  A    between atoms: C_20  and  C_21
REMARK    9  A    between atoms: C_20  and  C_25
REMARK   10  A    between atoms: C_21  and  C_22
REMARK   11  A    between atoms: C_22  and  O_24
REMARK   12  A    between atoms: C_30  and  C_31
REMARK   13  A    between atoms: C_31  and  C_32
REMARK   14  A    between atoms: C_31  and  C_33
REMARK   15  A    between atoms: C_31  and  C_34
REMARK                            x       y       z     vdW  Elec       q    Type
REMARK                         _______ _______ _______ _____ _____    ______ ____
ROOT
ATOM      1  C   UNL     1      -1.220  11.491  22.405  0.00  0.00    +0.000 A 
ATOM      2  C   UNL     1      -0.665  10.495  23.273  0.00  0.00    +0.000 A 
ATOM      3  C   UNL     1       0.186   9.455  22.884  0.00  0.00    +0.000 A 
ATOM      4  C   UNL     1       0.550   9.344  21.567  0.00  0.00    +0.000 A 
ATOM      5  C   UNL     1       0.083  10.312  20.677  0.00  0.00    +0.000 A 
ATOM      6  C   UNL     1      -0.811  11.377  21.016  0.00  0.00    +0.000 A 
ENDROOT
BRANCH   1  12
ATOM      7  C   UNL     1      -4.374  12.935  24.214  0.00  0.00    +0.000 A 
ATOM      8  C   UNL     1      -4.022  14.232  24.506  0.00  0.00    +0.000 A 
ATOM      9  C   UNL     1      -2.802  14.693  24.037  0.00  0.00    +0.000 A 
ATOM     10  C   UNL     1      -1.930  13.849  23.320  0.00  0.00    +0.000 A 
ATOM     11  F   UNL     1      -0.817  14.463  22.896  0.00  0.00    +0.000 F 
ATOM     12  C   UNL     1      -2.204  12.481  23.056  0.00  0.00    +0.000 A 
ATOM     13  C   UNL     1      -3.475  12.110  23.515  0.00  0.00    +0.000 A 
BRANCH   7  15
ATOM     14  C   UNL     1      -6.728  12.845  24.073  0.00  0.00    +0.000 C 
ATOM     15  O   UNL     1      -5.524  12.299  24.589  0.00  0.00    +0.000 OA
ENDBRANCH   7  15
ENDBRANCH   1  12
BRANCH   6  16
ATOM     16  C   UNL     1      -1.262  12.233  19.779  0.00  0.00    +0.000 C 
ATOM     17  C   UNL     1      -2.795  12.595  19.738  0.00  0.00    +0.000 C 
ATOM     18  C   UNL     1      -0.619  13.648  19.840  0.00  0.00    +0.000 C 
ATOM     19  C   UNL     1      -1.113  11.451  18.441  0.00  0.00    +0.000 C 
ENDBRANCH   6  16
BRANCH   4  20
ATOM     20  C   UNL     1       1.384   8.201  21.061  0.00  0.00    +0.000 C 
BRANCH  20  21
ATOM     21  O   UNL     1       1.633   8.364  19.663  0.00  0.00    +0.000 OA
BRANCH  21  22
ATOM     22  C   UNL     1       2.277   7.301  19.087  0.00  0.00    +0.000 A 
ATOM     23  C   UNL     1       3.214   7.607  18.103  0.00  0.00    +0.000 A 
ATOM     24  C   UNL     1       3.934   6.586  17.485  0.00  0.00    +0.000 A 
ATOM     25  C   UNL     1       3.720   5.256  17.855  0.00  0.00    +0.000 A 
ATOM     26  C   UNL     1       2.767   4.927  18.834  0.00  0.00    +0.000 A 
ATOM     27  C   UNL     1       2.031   5.966  19.418  0.00  0.00    +0.000 A 
BRANCH  26  28
ATOM     28  C   UNL     1       2.636   3.486  19.310  0.00  0.00    +0.000 C 
BRANCH  28  29
ATOM     29  C   UNL     1       2.644   2.461  18.191  0.00  0.00    +0.000 C 
ATOM     30  C   UNL     1       3.802   2.292  17.238  0.00  0.00    +0.000 C 
ATOM     31  C   UNL     1       3.561   1.267  18.310  0.00  0.00    +0.000 C 
ENDBRANCH  28  29
BRANCH  28  32
ATOM     32  C   UNL     1       1.403   3.317  20.214  0.00  0.00    +0.000 C 
BRANCH  32  33
ATOM     33  C   UNL     1       1.728   3.016  21.659  0.00  0.00    +0.000 C 
ATOM     34  O   UNL     1       2.748   3.391  22.220  0.00  0.00    +0.000 OA
BRANCH  33  35
ATOM     35  O   UNL     1       0.793   2.279  22.297  0.00  0.00    +0.000 OA
ATOM     36  H   UNL     1       0.149   1.846  21.702  0.00  0.00    +0.000 HD
ENDBRANCH  33  35
ENDBRANCH  32  33
ENDBRANCH  28  32
ENDBRANCH  26  28
ENDBRANCH  21  22
ENDBRANCH  20  21
ENDBRANCH   4  20
TORSDOF 11
ENDMDL
MODEL 7
REMARK VINA RESULT:      -8.1      2.547     11.015
REMARK  Name = 
REMARK  15 active torsions:
REMARK  status: ('A' for Active; 'I' for Inactive)
REMARK    1  A    between atoms: C_1  and  O_2
REMARK    2  A    between atoms: O_2  and  C_3
REMARK    3  A    between atoms: C_8  and  C_9
REMARK    4  A    between atoms: C_12  and  C_13
REMARK    5  A    between atoms: C_13  and  O_14
REMARK    6  A    between atoms: O_14  and  C_15
REMARK    7  A    between atoms: C_19  and  C_20
REMARK    8  A    between atoms: C_20  and  C_21
REMARK    9  A    between atoms: C_20  and  C_25
REMARK   10  A    between atoms: C_21  and  C_22
REMARK   11  A    between atoms: C_22  and  O_24
REMARK   12  A    between atoms: C_30  and  C_31
REMARK   13  A    between atoms: C_31  and  C_32
REMARK   14  A    between atoms: C_31  and  C_33
REMARK   15  A    between atoms: C_31  and  C_34
REMARK                            x       y       z     vdW  Elec       q    Type
REMARK                         _______ _______ _______ _____ _____    ______ ____
ROOT
ATOM      1  C   UNL     1       3.241   6.185  18.716  0.00  0.00    +0.000 A 
ATOM      2  C   UNL     1       2.861   7.561  18.587  0.00  0.00    +0.000 A 
ATOM      3  C   UNL     1       1.954   8.238  19.408  0.00  0.00    +0.000 A 
ATOM      4  C   UNL     1       1.355   7.565  20.443  0.00  0.00    +0.000 A 
ATOM      5  C   UNL     1       1.720   6.235  20.654  0.00  0.00    +0.000 A 
ATOM      6  C   UNL     1       2.618   5.488  19.827  0.00  0.00    +0.000 A 
ENDROOT
BRANCH   1  12
ATOM      7  C   UNL     1       6.409   5.683  16.476  0.00  0.00    +0.000 A 
ATOM      8  C   UNL     1       6.134   4.535  15.769  0.00  0.00    +0.000 A 
ATOM      9  C   UNL     1       4.884   3.960  15.929  0.00  0.00    +0.000 A 
ATOM     10  C   UNL     1       3.937   4.507  16.818  0.00  0.00    +0.000 A 
ATOM     11  F   UNL     1       2.763   3.861  16.816  0.00  0.00    +0.000 F 
ATOM     12  C   UNL     1       4.191   5.643  17.631  0.00  0.00    +0.000 A 
ATOM     13  C   UNL     1       5.453   6.195  17.371  0.00  0.00    +0.000 A 
BRANCH   7  15
ATOM     14  C   UNL     1       7.695   7.413  17.436  0.00  0.00    +0.000 C 
ATOM     15  O   UNL     1       7.577   6.390  16.459  0.00  0.00    +0.000 OA
ENDBRANCH   7  15
ENDBRANCH   1  12
BRANCH   6  16
ATOM     16  C   UNL     1       2.736   3.976  20.238  0.00  0.00    +0.000 C 
ATOM     17  C   UNL     1       1.821   2.988  19.421  0.00  0.00    +0.000 C 
ATOM     18  C   UNL     1       4.152   3.434  19.892  0.00  0.00    +0.000 C 
ATOM     19  C   UNL     1       2.219   3.722  21.684  0.00  0.00    +0.000 C 
ENDBRANCH   6  16
BRANCH   4  20
ATOM     20  C   UNL     1       0.304   8.201  21.308  0.00  0.00    +0.000 C 
BRANCH  20  21
ATOM     21  O   UNL     1       0.859   9.320  22.002  0.00  0.00    +0.000 OA
BRANCH  21  22
ATOM     22  C   UNL     1       0.279  10.517  21.676  0.00  0.00    +0.000 A 
ATOM     23  C   UNL     1       0.999  11.335  20.808  0.00  0.00    +0.000 A 
ATOM     24  C   UNL     1       0.470  12.559  20.402  0.00  0.00    +0.000 A 
ATOM     25  C   UNL     1      -0.785  12.964  20.862  0.00  0.00    +0.000 A 
ATOM     26  C   UNL     1      -1.519  12.161  21.751  0.00  0.00    +0.000 A 
ATOM     27  C   UNL     1      -0.953  10.950  22.171  0.00  0.00    +0.000 A 
BRANCH  26  28
ATOM     28  C   UNL     1      -2.935  12.562  22.142  0.00  0.00    +0.000 C 
BRANCH  28  29
ATOM     29  C   UNL     1      -3.749  13.148  21.004  0.00  0.00    +0.000 C 
ATOM     30  C   UNL     1      -4.135  12.358  19.776  0.00  0.00    +0.000 C 
ATOM     31  C   UNL     1      -5.172  12.678  20.814  0.00  0.00    +0.000 C 
ENDBRANCH  28  29
BRANCH  28  32
ATOM     32  C   UNL     1      -2.922  13.502  23.360  0.00  0.00    +0.000 C 
BRANCH  32  33
ATOM     33  C   UNL     1      -3.816  13.060  24.496  0.00  0.00    +0.000 C 
ATOM     34  O   UNL     1      -4.527  12.065  24.456  0.00  0.00    +0.000 OA
BRANCH  33  35
ATOM     35  O   UNL     1      -3.780  13.866  25.578  0.00  0.00    +0.000 OA
ATOM     36  H   UNL     1      -4.484  13.691  26.234  0.00  0.00    +0.000 HD
ENDBRANCH  33  35
ENDBRANCH  32  33
ENDBRANCH  28  32
ENDBRANCH  26  28
ENDBRANCH  21  22
ENDBRANCH  20  21
ENDBRANCH   4  20
TORSDOF 11
ENDMDL
MODEL 8
REMARK VINA RESULT:      -8.0      2.314      3.555
REMARK  Name = 
REMARK  15 active torsions:
REMARK  status: ('A' for Active; 'I' for Inactive)
REMARK    1  A    between atoms: C_1  and  O_2
REMARK    2  A    between atoms: O_2  and  C_3
REMARK    3  A    between atoms: C_8  and  C_9
REMARK    4  A    between atoms: C_12  and  C_13
REMARK    5  A    between atoms: C_13  and  O_14
REMARK    6  A    between atoms: O_14  and  C_15
REMARK    7  A    between atoms: C_19  and  C_20
REMARK    8  A    between atoms: C_20  and  C_21
REMARK    9  A    between atoms: C_20  and  C_25
REMARK   10  A    between atoms: C_21  and  C_22
REMARK   11  A    between atoms: C_22  and  O_24
REMARK   12  A    between atoms: C_30  and  C_31
REMARK   13  A    between atoms: C_31  and  C_32
REMARK   14  A    between atoms: C_31  and  C_33
REMARK   15  A    between atoms: C_31  and  C_34
REMARK                            x       y       z     vdW  Elec       q    Type
REMARK                         _______ _______ _______ _____ _____    ______ ____
ROOT
ATOM      1  C   UNL     1      -1.257  11.531  22.208  0.00  0.00    +0.000 A 
ATOM      2  C   UNL     1      -0.610  10.602  23.087  0.00  0.00    +0.000 A 
ATOM      3  C   UNL     1       0.253   9.573  22.697  0.00  0.00    +0.000 A 
ATOM      4  C   UNL     1       0.536   9.404  21.365  0.00  0.00    +0.000 A 
ATOM      5  C   UNL     1      -0.023  10.307  20.460  0.00  0.00    +0.000 A 
ATOM      6  C   UNL     1      -0.934  11.357  20.802  0.00  0.00    +0.000 A 
ENDROOT
BRANCH   1  12
ATOM      7  C   UNL     1      -4.378  12.967  24.078  0.00  0.00    +0.000 A 
ATOM      8  C   UNL     1      -4.032  14.272  24.343  0.00  0.00    +0.000 A 
ATOM      9  C   UNL     1      -2.829  14.738  23.837  0.00  0.00    +0.000 A 
ATOM     10  C   UNL     1      -1.967  13.893  23.109  0.00  0.00    +0.000 A 
ATOM     11  F   UNL     1      -0.872  14.513  22.649  0.00  0.00    +0.000 F 
ATOM     12  C   UNL     1      -2.234  12.519  22.871  0.00  0.00    +0.000 A 
ATOM     13  C   UNL     1      -3.489  12.142  23.367  0.00  0.00    +0.000 A 
BRANCH   7  15
ATOM     14  C   UNL     1      -6.734  12.858  24.008  0.00  0.00    +0.000 C 
ATOM     15  O   UNL     1      -5.511  12.325  24.491  0.00  0.00    +0.000 OA
ENDBRANCH   7  15
ENDBRANCH   1  12
BRANCH   6  16
ATOM     16  C   UNL     1      -1.495  12.130  19.555  0.00  0.00    +0.000 C 
ATOM     17  C   UNL     1      -3.025  12.496  19.628  0.00  0.00    +0.000 C 
ATOM     18  C   UNL     1      -0.849  13.541  19.462  0.00  0.00    +0.000 C 
ATOM     19  C   UNL     1      -1.466  11.258  18.267  0.00  0.00    +0.000 C 
ENDBRANCH   6  16
BRANCH   4  20
ATOM     20  C   UNL     1       1.379   8.265  20.865  0.00  0.00    +0.000 C 
BRANCH  20  21
ATOM     21  O   UNL     1       1.803   8.528  19.526  0.00  0.00    +0.000 OA
BRANCH  21  22
ATOM     22  C   UNL     1       2.378   7.451  18.905  0.00  0.00    +0.000 A 
ATOM     23  C   UNL     1       3.219   7.734  17.831  0.00  0.00    +0.000 A 
ATOM     24  C   UNL     1       3.866   6.698  17.160  0.00  0.00    +0.000 A 
ATOM     25  C   UNL     1       3.676   5.376  17.567  0.00  0.00    +0.000 A 
ATOM     26  C   UNL     1       2.818   5.069  18.637  0.00  0.00    +0.000 A 
ATOM     27  C   UNL     1       2.152   6.123  19.276  0.00  0.00    +0.000 A 
BRANCH  26  28
ATOM     28  C   UNL     1       2.720   3.636  19.143  0.00  0.00    +0.000 C 
BRANCH  28  29
ATOM     29  C   UNL     1       1.660   3.427  20.208  0.00  0.00    +0.000 C 
ATOM     30  C   UNL     1       1.654   2.240  21.142  0.00  0.00    +0.000 C 
ATOM     31  C   UNL     1       2.047   3.594  21.659  0.00  0.00    +0.000 C 
ENDBRANCH  28  29
BRANCH  28  32
ATOM     32  C   UNL     1       4.093   3.126  19.615  0.00  0.00    +0.000 C 
BRANCH  32  33
ATOM     33  C   UNL     1       4.362   1.674  19.291  0.00  0.00    +0.000 C 
ATOM     34  O   UNL     1       3.760   1.045  18.431  0.00  0.00    +0.000 OA
BRANCH  33  35
ATOM     35  O   UNL     1       5.328   1.106  20.044  0.00  0.00    +0.000 OA
ATOM     36  H   UNL     1       5.136   1.097  21.004  0.00  0.00    +0.000 HD
ENDBRANCH  33  35
ENDBRANCH  32  33
ENDBRANCH  28  32
ENDBRANCH  26  28
ENDBRANCH  21  22
ENDBRANCH  20  21
ENDBRANCH   4  20
TORSDOF 11
ENDMDL
MODEL 9
REMARK VINA RESULT:      -8.0      3.118     10.685
REMARK  Name = 
REMARK  15 active torsions:
REMARK  status: ('A' for Active; 'I' for Inactive)
REMARK    1  A    between atoms: C_1  and  O_2
REMARK    2  A    between atoms: O_2  and  C_3
REMARK    3  A    between atoms: C_8  and  C_9
REMARK    4  A    between atoms: C_12  and  C_13
REMARK    5  A    between atoms: C_13  and  O_14
REMARK    6  A    between atoms: O_14  and  C_15
REMARK    7  A    between atoms: C_19  and  C_20
REMARK    8  A    between atoms: C_20  and  C_21
REMARK    9  A    between atoms: C_20  and  C_25
REMARK   10  A    between atoms: C_21  and  C_22
REMARK   11  A    between atoms: C_22  and  O_24
REMARK   12  A    between atoms: C_30  and  C_31
REMARK   13  A    between atoms: C_31  and  C_32
REMARK   14  A    between atoms: C_31  and  C_33
REMARK   15  A    between atoms: C_31  and  C_34
REMARK                            x       y       z     vdW  Elec       q    Type
REMARK                         _______ _______ _______ _____ _____    ______ ____
ROOT
ATOM      1  C   UNL     1       3.904   5.368  18.395  0.00  0.00    +0.000 A 
ATOM      2  C   UNL     1       3.655   6.779  18.449  0.00  0.00    +0.000 A 
ATOM      3  C   UNL     1       2.681   7.407  19.232  0.00  0.00    +0.000 A 
ATOM      4  C   UNL     1       1.874   6.644  20.037  0.00  0.00    +0.000 A 
ATOM      5  C   UNL     1       2.098   5.267  20.069  0.00  0.00    +0.000 A 
ATOM      6  C   UNL     1       3.059   4.572  19.267  0.00  0.00    +0.000 A 
ENDROOT
BRANCH   1  12
ATOM      7  C   UNL     1       5.634   4.318  15.047  0.00  0.00    +0.000 A 
ATOM      8  C   UNL     1       6.971   4.270  15.368  0.00  0.00    +0.000 A 
ATOM      9  C   UNL     1       7.327   4.478  16.691  0.00  0.00    +0.000 A 
ATOM     10  C   UNL     1       6.357   4.771  17.670  0.00  0.00    +0.000 A 
ATOM     11  F   UNL     1       6.862   4.893  18.905  0.00  0.00    +0.000 F 
ATOM     12  C   UNL     1       4.973   4.910  17.385  0.00  0.00    +0.000 A 
ATOM     13  C   UNL     1       4.691   4.633  16.041  0.00  0.00    +0.000 A 
BRANCH   7  15
ATOM     14  C   UNL     1       5.942   3.574  12.829  0.00  0.00    +0.000 C 
ATOM     15  O   UNL     1       5.088   4.147  13.807  0.00  0.00    +0.000 OA
ENDBRANCH   7  15
ENDBRANCH   1  12
BRANCH   6  16
ATOM     16  C   UNL     1       2.994   3.011  19.426  0.00  0.00    +0.000 C 
ATOM     17  C   UNL     1       2.807   2.209  18.084  0.00  0.00    +0.000 C 
ATOM     18  C   UNL     1       4.363   2.463  19.919  0.00  0.00    +0.000 C 
ATOM     19  C   UNL     1       1.731   2.556  20.214  0.00  0.00    +0.000 C 
ENDBRANCH   6  16
BRANCH   4  20
ATOM     20  C   UNL     1       0.748   7.240  20.834  0.00  0.00    +0.000 C 
BRANCH  20  21
ATOM     21  O   UNL     1       1.254   8.253  21.706  0.00  0.00    +0.000 OA
BRANCH  21  22
ATOM     22  C   UNL     1       0.494   9.392  21.732  0.00  0.00    +0.000 A 
ATOM     23  C   UNL     1      -0.287   9.587  22.869  0.00  0.00    +0.000 A 
ATOM     24  C   UNL     1      -1.070  10.733  22.989  0.00  0.00    +0.000 A 
ATOM     25  C   UNL     1      -1.070  11.690  21.972  0.00  0.00    +0.000 A 
ATOM     26  C   UNL     1      -0.302  11.503  20.810  0.00  0.00    +0.000 A 
ATOM     27  C   UNL     1       0.452  10.328  20.695  0.00  0.00    +0.000 A 
BRANCH  26  28
ATOM     28  C   UNL     1      -0.219  12.613  19.770  0.00  0.00    +0.000 C 
BRANCH  28  29
ATOM     29  C   UNL     1      -0.810  13.934  20.225  0.00  0.00    +0.000 C 
ATOM     30  C   UNL     1      -0.047  14.932  21.062  0.00  0.00    +0.000 C 
ATOM     31  C   UNL     1      -0.293  15.211  19.607  0.00  0.00    +0.000 C 
ENDBRANCH  28  29
BRANCH  28  32
ATOM     32  C   UNL     1      -0.831  12.159  18.433  0.00  0.00    +0.000 C 
BRANCH  32  33
ATOM     33  C   UNL     1      -2.184  11.496  18.562  0.00  0.00    +0.000 C 
ATOM     34  O   UNL     1      -2.375  10.300  18.392  0.00  0.00    +0.000 OA
BRANCH  33  35
ATOM     35  O   UNL     1      -3.189  12.342  18.877  0.00  0.00    +0.000 OA
ATOM     36  H   UNL     1      -2.971  12.978  19.588  0.00  0.00    +0.000 HD
ENDBRANCH  33  35
ENDBRANCH  32  33
ENDBRANCH  28  32
ENDBRANCH  26  28
ENDBRANCH  21  22
ENDBRANCH  20  21
ENDBRANCH   4  20
TORSDOF 11
ENDMDL
