MODEL 1
REMARK VINA RESULT:      -5.1      0.000      0.000
REMARK  Name = 
REMARK  2 active torsions:
REMARK  status: ('A' for Active; 'I' for Inactive)
REMARK    1  A    between atoms: C_1  and  N_2
REMARK    2  A    between atoms: C_3  and  S_4
REMARK                            x       y       z     vdW  Elec       q    Type
REMARK                         _______ _______ _______ _____ _____    ______ ____
ROOT
ATOM      1  C   UNL     1       4.395   2.910  19.946  0.00  0.00    +0.000 C 
ATOM      2  N   UNL     1       5.228   3.532  18.933  0.00  0.00    +0.000 NA
ATOM      3  C   UNL     1       4.750   3.993  17.822  0.00  0.00    +0.000 C 
ATOM      4  N   UNL     1       5.638   4.633  16.936  0.00  0.00    +0.000 N 
ATOM      5  N   UNL     1       5.213   5.218  15.786  0.00  0.00    +0.000 NA
ATOM      6  N   UNL     1       6.285   5.767  15.238  0.00  0.00    +0.000 NA
ATOM      7  N   UNL     1       7.403   5.539  15.997  0.00  0.00    +0.000 NA
ATOM      8  C   UNL     1       7.015   4.830  17.033  0.00  0.00    +0.000 A 
ATOM      9  N   UNL     1       7.786   4.352  18.033  0.00  0.00    +0.000 N 
ATOM     10  H   UNL     1       8.725   4.721  18.144  0.00  0.00    +0.000 HD
ATOM     11  H   UNL     1       7.354   3.984  18.881  0.00  0.00    +0.000 HD
ENDROOT
BRANCH   3  12
ATOM     12  S   UNL     1       3.046   3.872  17.363  0.00  0.00    +0.000 S 
ATOM     13  H   UNL     1       2.962   2.539  17.328  0.00  0.00    +0.000 HD
ENDBRANCH   3  12
TORSDOF 1
ENDMDL
MODEL 2
REMARK VINA RESULT:      -5.1      1.871      2.012
REMARK  Name = 
REMARK  2 active torsions:
REMARK  status: ('A' for Active; 'I' for Inactive)
REMARK    1  A    between atoms: C_1  and  N_2
REMARK    2  A    between atoms: C_3  and  S_4
REMARK                            x       y       z     vdW  Elec       q    Type
REMARK                         _______ _______ _______ _____ _____    ______ ____
ROOT
ATOM      1  C   UNL     1       4.623   3.017  19.446  0.00  0.00    +0.000 C 
ATOM      2  N   UNL     1       5.599   4.059  19.178  0.00  0.00    +0.000 NA
ATOM      3  C   UNL     1       5.571   4.781  18.104  0.00  0.00    +0.000 C 
ATOM      4  N   UNL     1       6.528   5.807  17.973  0.00  0.00    +0.000 N 
ATOM      5  N   UNL     1       6.524   6.665  16.921  0.00  0.00    +0.000 NA
ATOM      6  N   UNL     1       7.508   7.522  17.147  0.00  0.00    +0.000 NA
ATOM      7  N   UNL     1       8.162   7.230  18.315  0.00  0.00    +0.000 NA
ATOM      8  C   UNL     1       7.575   6.168  18.819  0.00  0.00    +0.000 A 
ATOM      9  N   UNL     1       7.904   5.511  19.951  0.00  0.00    +0.000 N 
ATOM     10  H   UNL     1       8.527   5.962  20.614  0.00  0.00    +0.000 HD
ATOM     11  H   UNL     1       7.264   4.822  20.348  0.00  0.00    +0.000 HD
ENDROOT
BRANCH   3  12
ATOM     12  S   UNL     1       4.392   4.559  16.803  0.00  0.00    +0.000 S 
ATOM     13  H   UNL     1       3.821   5.765  16.869  0.00  0.00    +0.000 HD
ENDBRANCH   3  12
TORSDOF 1
ENDMDL
MODEL 3
REMARK VINA RESULT:      -5.0      2.551      3.809
REMARK  Name = 
REMARK  2 active torsions:
REMARK  status: ('A' for Active; 'I' for Inactive)
REMARK    1  A    between atoms: C_1  and  N_2
REMARK    2  A    between atoms: C_3  and  S_4
REMARK                            x       y       z     vdW  Elec       q    Type
REMARK                         _______ _______ _______ _____ _____    ______ ____
ROOT
ATOM      1  C   UNL     1       7.035   5.557  19.220  0.00  0.00    +0.000 C 
ATOM      2  N   UNL     1       5.976   4.572  19.082  0.00  0.00    +0.000 NA
ATOM      3  C   UNL     1       4.956   4.749  18.306  0.00  0.00    +0.000 C 
ATOM      4  N   UNL     1       4.018   3.703  18.200  0.00  0.00    +0.000 N 
ATOM      5  N   UNL     1       2.961   3.766  17.349  0.00  0.00    +0.000 NA
ATOM      6  N   UNL     1       2.332   2.606  17.464  0.00  0.00    +0.000 NA
ATOM      7  N   UNL     1       2.947   1.796  18.382  0.00  0.00    +0.000 NA
ATOM      8  C   UNL     1       3.973   2.470  18.849  0.00  0.00    +0.000 A 
ATOM      9  N   UNL     1       4.850   2.073  19.796  0.00  0.00    +0.000 N 
ATOM     10  H   UNL     1       4.879   1.092  20.053  0.00  0.00    +0.000 HD
ATOM     11  H   UNL     1       5.717   2.592  19.941  0.00  0.00    +0.000 HD
ENDROOT
BRANCH   3  12
ATOM     12  S   UNL     1       4.682   6.222  17.365  0.00  0.00    +0.000 S 
ATOM     13  H   UNL     1       3.373   6.347  17.602  0.00  0.00    +0.000 HD
ENDBRANCH   3  12
TORSDOF 1
ENDMDL
MODEL 4
REMARK VINA RESULT:      -5.0      1.729      2.707
REMARK  Name = 
REMARK  2 active torsions:
REMARK  status: ('A' for Active; 'I' for Inactive)
REMARK    1  A    between atoms: C_1  and  N_2
REMARK    2  A    between atoms: C_3  and  S_4
REMARK                            x       y       z     vdW  Elec       q    Type
REMARK                         _______ _______ _______ _____ _____    ______ ____
ROOT
ATOM      1  C   UNL     1       2.381   3.555  17.315  0.00  0.00    +0.000 C 
ATOM      2  N   UNL     1       3.790   3.880  17.457  0.00  0.00    +0.000 NA
ATOM      3  C   UNL     1       4.267   4.471  18.504  0.00  0.00    +0.000 C 
ATOM      4  N   UNL     1       5.659   4.683  18.567  0.00  0.00    +0.000 N 
ATOM      5  N   UNL     1       6.258   5.221  19.660  0.00  0.00    +0.000 NA
ATOM      6  N   UNL     1       7.556   5.219  19.401  0.00  0.00    +0.000 NA
ATOM      7  N   UNL     1       7.814   4.707  18.157  0.00  0.00    +0.000 NA
ATOM      8  C   UNL     1       6.652   4.391  17.633  0.00  0.00    +0.000 A 
ATOM      9  N   UNL     1       6.420   3.877  16.406  0.00  0.00    +0.000 N 
ATOM     10  H   UNL     1       7.200   3.493  15.882  0.00  0.00    +0.000 HD
ATOM     11  H   UNL     1       5.504   3.490  16.178  0.00  0.00    +0.000 HD
ENDROOT
BRANCH   3  12
ATOM     12  S   UNL     1       3.273   5.013  19.864  0.00  0.00    +0.000 S 
ATOM     13  H   UNL     1       4.203   5.743  20.487  0.00  0.00    +0.000 HD
ENDBRANCH   3  12
TORSDOF 1
ENDMDL
MODEL 5
REMARK VINA RESULT:      -4.9      1.659      1.984
REMARK  Name = 
REMARK  2 active torsions:
REMARK  status: ('A' for Active; 'I' for Inactive)
REMARK    1  A    between atoms: C_1  and  N_2
REMARK    2  A    between atoms: C_3  and  S_4
REMARK                            x       y       z     vdW  Elec       q    Type
REMARK                         _______ _______ _______ _____ _____    ______ ____
ROOT
ATOM      1  C   UNL     1       3.341   2.611  17.838  0.00  0.00    +0.000 C 
ATOM      2  N   UNL     1       4.386   3.336  17.138  0.00  0.00    +0.000 NA
ATOM      3  C   UNL     1       4.846   4.472  17.553  0.00  0.00    +0.000 C 
ATOM      4  N   UNL     1       5.903   5.061  16.832  0.00  0.00    +0.000 N 
ATOM      5  N   UNL     1       6.503   6.209  17.239  0.00  0.00    +0.000 NA
ATOM      6  N   UNL     1       7.478   6.438  16.374  0.00  0.00    +0.000 NA
ATOM      7  N   UNL     1       7.516   5.472  15.402  0.00  0.00    +0.000 NA
ATOM      8  C   UNL     1       6.542   4.632  15.669  0.00  0.00    +0.000 A 
ATOM      9  N   UNL     1       6.187   3.539  14.960  0.00  0.00    +0.000 N 
ATOM     10  H   UNL     1       6.831   3.179  14.264  0.00  0.00    +0.000 HD
ATOM     11  H   UNL     1       5.545   2.855  15.362  0.00  0.00    +0.000 HD
ENDROOT
BRANCH   3  12
ATOM     12  S   UNL     1       4.230   5.317  18.980  0.00  0.00    +0.000 S 
ATOM     13  H   UNL     1       3.548   4.299  19.513  0.00  0.00    +0.000 HD
ENDBRANCH   3  12
TORSDOF 1
ENDMDL
MODEL 6
REMARK VINA RESULT:      -4.9      1.662      2.497
REMARK  Name = 
REMARK  2 active torsions:
REMARK  status: ('A' for Active; 'I' for Inactive)
REMARK    1  A    between atoms: C_1  and  N_2
REMARK    2  A    between atoms: C_3  and  S_4
REMARK                            x       y       z     vdW  Elec       q    Type
REMARK                         _______ _______ _______ _____ _____    ______ ____
ROOT
ATOM      1  C   UNL     1       2.250   5.270  18.043  0.00  0.00    +0.000 C 
ATOM      2  N   UNL     1       3.558   5.424  17.432  0.00  0.00    +0.000 NA
ATOM      3  C   UNL     1       4.602   4.779  17.845  0.00  0.00    +0.000 C 
ATOM      4  N   UNL     1       5.809   4.956  17.140  0.00  0.00    +0.000 N 
ATOM      5  N   UNL     1       6.933   4.260  17.450  0.00  0.00    +0.000 NA
ATOM      6  N   UNL     1       7.844   4.627  16.563  0.00  0.00    +0.000 NA
ATOM      7  N   UNL     1       7.343   5.558  15.691  0.00  0.00    +0.000 NA
ATOM      8  C   UNL     1       6.098   5.776  16.051  0.00  0.00    +0.000 A 
ATOM      9  N   UNL     1       5.225   6.640  15.491  0.00  0.00    +0.000 N 
ATOM     10  H   UNL     1       5.440   7.029  14.579  0.00  0.00    +0.000 HD
ATOM     11  H   UNL     1       4.232   6.587  15.723  0.00  0.00    +0.000 HD
ENDROOT
BRANCH   3  12
ATOM     12  S   UNL     1       4.591   3.682  19.233  0.00  0.00    +0.000 S 
ATOM     13  H   UNL     1       5.913   3.522  19.346  0.00  0.00    +0.000 HD
ENDBRANCH   3  12
TORSDOF 1
ENDMDL
MODEL 7
REMARK VINA RESULT:      -4.9      2.931      3.943
REMARK  Name = 
REMARK  2 active torsions:
REMARK  status: ('A' for Active; 'I' for Inactive)
REMARK    1  A    between atoms: C_1  and  N_2
REMARK    2  A    between atoms: C_3  and  S_4
REMARK                            x       y       z     vdW  Elec       q    Type
REMARK                         _______ _______ _______ _____ _____    ______ ____
ROOT
ATOM      1  C   UNL     1       7.240   6.382  17.184  0.00  0.00    +0.000 C 
ATOM      2  N   UNL     1       7.348   5.863  15.832  0.00  0.00    +0.000 NA
ATOM      3  C   UNL     1       6.575   4.928  15.380  0.00  0.00    +0.000 C 
ATOM      4  N   UNL     1       6.724   4.541  14.033  0.00  0.00    +0.000 N 
ATOM      5  N   UNL     1       5.905   3.628  13.450  0.00  0.00    +0.000 NA
ATOM      6  N   UNL     1       6.287   3.552  12.185  0.00  0.00    +0.000 NA
ATOM      7  N   UNL     1       7.347   4.384  11.935  0.00  0.00    +0.000 NA
ATOM      8  C   UNL     1       7.630   4.982  13.070  0.00  0.00    +0.000 A 
ATOM      9  N   UNL     1       8.621   5.869  13.302  0.00  0.00    +0.000 N 
ATOM     10  H   UNL     1       9.088   6.298  12.509  0.00  0.00    +0.000 HD
ATOM     11  H   UNL     1       8.628   6.415  14.164  0.00  0.00    +0.000 HD
ENDROOT
BRANCH   3  12
ATOM     12  S   UNL     1       5.339   4.120  16.354  0.00  0.00    +0.000 S 
ATOM     13  H   UNL     1       5.059   3.128  15.505  0.00  0.00    +0.000 HD
ENDBRANCH   3  12
TORSDOF 1
ENDMDL
MODEL 8
REMARK VINA RESULT:      -4.7      2.630      4.985
REMARK  Name = 
REMARK  2 active torsions:
REMARK  status: ('A' for Active; 'I' for Inactive)
REMARK    1  A    between atoms: C_1  and  N_2
REMARK    2  A    between atoms: C_3  and  S_4
REMARK                            x       y       z     vdW  Elec       q    Type
REMARK                         _______ _______ _______ _____ _____    ______ ____
ROOT
ATOM      1  C   UNL     1       4.663   4.461  16.700  0.00  0.00    +0.000 C 
ATOM      2  N   UNL     1       4.344   3.911  18.006  0.00  0.00    +0.000 NA
ATOM      3  C   UNL     1       3.466   4.445  18.793  0.00  0.00    +0.000 C 
ATOM      4  N   UNL     1       3.189   3.795  20.011  0.00  0.00    +0.000 N 
ATOM      5  N   UNL     1       2.226   4.236  20.861  0.00  0.00    +0.000 NA
ATOM      6  N   UNL     1       2.196   3.368  21.860  0.00  0.00    +0.000 NA
ATOM      7  N   UNL     1       3.129   2.380  21.687  0.00  0.00    +0.000 NA
ATOM      8  C   UNL     1       3.753   2.645  20.562  0.00  0.00    +0.000 A 
ATOM      9  N   UNL     1       4.771   1.952  20.007  0.00  0.00    +0.000 N 
ATOM     10  H   UNL     1       4.970   1.018  20.352  0.00  0.00    +0.000 HD
ATOM     11  H   UNL     1       5.047   2.133  19.041  0.00  0.00    +0.000 HD
ENDROOT
BRANCH   3  12
ATOM     12  S   UNL     1       2.589   5.935  18.416  0.00  0.00    +0.000 S 
ATOM     13  H   UNL     1       1.697   5.411  17.571  0.00  0.00    +0.000 HD
ENDBRANCH   3  12
TORSDOF 1
ENDMDL
MODEL 9
REMARK VINA RESULT:      -4.7      2.042      2.138
REMARK  Name = 
REMARK  2 active torsions:
REMARK  status: ('A' for Active; 'I' for Inactive)
REMARK    1  A    between atoms: C_1  and  N_2
REMARK    2  A    between atoms: C_3  and  S_4
REMARK                            x       y       z     vdW  Elec       q    Type
REMARK                         _______ _______ _______ _____ _____    ______ ____
ROOT
ATOM      1  C   UNL     1       2.736   5.561  19.801  0.00  0.00    +0.000 C 
ATOM      2  N   UNL     1       3.967   5.360  19.058  0.00  0.00    +0.000 NA
ATOM      3  C   UNL     1       4.347   6.155  18.109  0.00  0.00    +0.000 C 
ATOM      4  N   UNL     1       5.590   5.903  17.495  0.00  0.00    +0.000 N 
ATOM      5  N   UNL     1       6.107   6.729  16.549  0.00  0.00    +0.000 NA
ATOM      6  N   UNL     1       7.294   6.230  16.240  0.00  0.00    +0.000 NA
ATOM      7  N   UNL     1       7.554   5.089  16.952  0.00  0.00    +0.000 NA
ATOM      8  C   UNL     1       6.505   4.874  17.713  0.00  0.00    +0.000 A 
ATOM      9  N   UNL     1       6.309   3.845  18.565  0.00  0.00    +0.000 N 
ATOM     10  H   UNL     1       7.104   3.270  18.826  0.00  0.00    +0.000 HD
ATOM     11  H   UNL     1       5.549   3.881  19.245  0.00  0.00    +0.000 HD
ENDROOT
BRANCH   3  12
ATOM     12  S   UNL     1       3.400   7.541  17.552  0.00  0.00    +0.000 S 
ATOM     13  H   UNL     1       3.864   8.439  18.426  0.00  0.00    +0.000 HD
ENDBRANCH   3  12
TORSDOF 1
ENDMDL
