MODEL 1
REMARK VINA RESULT:      -8.2      0.000      0.000
REMARK  Name = 
REMARK  8 active torsions:
REMARK  status: ('A' for Active; 'I' for Inactive)
REMARK    1  A    between atoms: C_2  and  C_3
REMARK    2  A    between atoms: C_6  and  C_7
REMARK    3  A    between atoms: C_7  and  S_8
REMARK    4  A    between atoms: S_8  and  C_9
REMARK    5  A    between atoms: C_12  and  C_13
REMARK    6  A    between atoms: N_19  and  C_20
REMARK    7  A    between atoms: C_20  and  C_21
REMARK    8  A    between atoms: C_21  and  C_22
REMARK                            x       y       z     vdW  Elec       q    Type
REMARK                         _______ _______ _______ _____ _____    ______ ____
ROOT
ATOM      1  C   UNL     1       4.293   6.203  17.555  0.00  0.00    +0.000 A 
ATOM      2  N   UNL     1       5.224   7.097  17.316  0.00  0.00    +0.000 NA
ATOM      3  N   UNL     1       5.955   6.679  16.231  0.00  0.00    +0.000 NA
ATOM      4  C   UNL     1       5.445   5.546  15.779  0.00  0.00    +0.000 A 
ATOM      5  N   UNL     1       4.439   5.149  16.669  0.00  0.00    +0.000 N 
ENDROOT
BRANCH   4   6
ATOM      6  C   UNL     1       5.905   4.849  14.559  0.00  0.00    +0.000 A 
ATOM      7  C   UNL     1       7.192   5.085  14.062  0.00  0.00    +0.000 A 
ATOM      8  C   UNL     1       7.588   4.459  12.887  0.00  0.00    +0.000 A 
ATOM      9  N   UNL     1       6.810   3.606  12.188  0.00  0.00    +0.000 NA
ATOM     10  C   UNL     1       5.568   3.404  12.662  0.00  0.00    +0.000 A 
ATOM     11  C   UNL     1       5.073   4.011  13.809  0.00  0.00    +0.000 A 
ENDBRANCH   4   6
BRANCH   1  12
ATOM     12  S   UNL     1       3.065   6.384  18.787  0.00  0.00    +0.000 S 
BRANCH  12  13
ATOM     13  C   UNL     1       2.353   8.031  18.465  0.00  0.00    +0.000 C 
BRANCH  13  17
ATOM     14  C   UNL     1      -0.009  10.095  21.532  0.00  0.00    +0.000 A 
ATOM     15  C   UNL     1       0.735   8.960  21.877  0.00  0.00    +0.000 A 
ATOM     16  C   UNL     1       1.468   8.252  20.903  0.00  0.00    +0.000 A 
ATOM     17  C   UNL     1       1.468   8.650  19.558  0.00  0.00    +0.000 A 
ATOM     18  C   UNL     1       0.697   9.785  19.227  0.00  0.00    +0.000 A 
ATOM     19  C   UNL     1      -0.031  10.496  20.197  0.00  0.00    +0.000 A 
BRANCH  14  21
ATOM     20  N   UNL     1      -1.289  11.453  23.345  0.00  0.00    +0.000 NA
ATOM     21  C   UNL     1      -0.717  10.843  22.534  0.00  0.00    +0.000 C 
ENDBRANCH  14  21
ENDBRANCH  13  17
ENDBRANCH  12  13
ENDBRANCH   1  12
BRANCH   5  22
ATOM     22  C   UNL     1       3.835   3.823  16.618  0.00  0.00    +0.000 C 
BRANCH  22  23
ATOM     23  C   UNL     1       4.090   2.865  17.767  0.00  0.00    +0.000 C 
BRANCH  23  24
ATOM     24  C   UNL     1       3.038   2.758  18.844  0.00  0.00    +0.000 A 
ATOM     25  C   UNL     1       3.497   2.717  20.170  0.00  0.00    +0.000 A 
ATOM     26  C   UNL     1       2.609   2.794  21.241  0.00  0.00    +0.000 A 
ATOM     27  C   UNL     1       1.245   2.908  21.000  0.00  0.00    +0.000 A 
ATOM     28  C   UNL     1       0.769   2.925  19.688  0.00  0.00    +0.000 A 
ATOM     29  C   UNL     1       1.661   2.854  18.611  0.00  0.00    +0.000 A 
ENDBRANCH  23  24
ENDBRANCH  22  23
ENDBRANCH   5  22
TORSDOF 8
ENDMDL
MODEL 2
REMARK VINA RESULT:      -8.2      3.226      4.844
REMARK  Name = 
REMARK  8 active torsions:
REMARK  status: ('A' for Active; 'I' for Inactive)
REMARK    1  A    between atoms: C_2  and  C_3
REMARK    2  A    between atoms: C_6  and  C_7
REMARK    3  A    between atoms: C_7  and  S_8
REMARK    4  A    between atoms: S_8  and  C_9
REMARK    5  A    between atoms: C_12  and  C_13
REMARK    6  A    between atoms: N_19  and  C_20
REMARK    7  A    between atoms: C_20  and  C_21
REMARK    8  A    between atoms: C_21  and  C_22
REMARK                            x       y       z     vdW  Elec       q    Type
REMARK                         _______ _______ _______ _____ _____    ______ ____
ROOT
ATOM      1  C   UNL     1       1.627   8.981  18.677  0.00  0.00    +0.000 A 
ATOM      2  N   UNL     1       2.200   9.236  17.524  0.00  0.00    +0.000 NA
ATOM      3  N   UNL     1       3.067   8.210  17.237  0.00  0.00    +0.000 NA
ATOM      4  C   UNL     1       2.995   7.305  18.198  0.00  0.00    +0.000 A 
ATOM      5  N   UNL     1       2.159   7.813  19.199  0.00  0.00    +0.000 N 
ENDROOT
BRANCH   4   6
ATOM      6  C   UNL     1       3.709   6.010  18.182  0.00  0.00    +0.000 A 
ATOM      7  C   UNL     1       3.251   4.968  17.368  0.00  0.00    +0.000 A 
ATOM      8  C   UNL     1       3.905   3.743  17.404  0.00  0.00    +0.000 A 
ATOM      9  N   UNL     1       4.986   3.490  18.170  0.00  0.00    +0.000 NA
ATOM     10  C   UNL     1       5.406   4.490  18.965  0.00  0.00    +0.000 A 
ATOM     11  C   UNL     1       4.795   5.736  19.021  0.00  0.00    +0.000 A 
ENDBRANCH   4   6
BRANCH   1  12
ATOM     12  S   UNL     1       0.370   9.975  19.379  0.00  0.00    +0.000 S 
BRANCH  12  13
ATOM     13  C   UNL     1      -0.727  10.359  17.975  0.00  0.00    +0.000 C 
BRANCH  13  17
ATOM     14  C   UNL     1      -4.903  11.576  18.548  0.00  0.00    +0.000 A 
ATOM     15  C   UNL     1      -3.886  12.232  19.253  0.00  0.00    +0.000 A 
ATOM     16  C   UNL     1      -2.540  11.834  19.121  0.00  0.00    +0.000 A 
ATOM     17  C   UNL     1      -2.176  10.762  18.293  0.00  0.00    +0.000 A 
ATOM     18  C   UNL     1      -3.215  10.100  17.606  0.00  0.00    +0.000 A 
ATOM     19  C   UNL     1      -4.558  10.499  17.732  0.00  0.00    +0.000 A 
BRANCH  14  21
ATOM     20  N   UNL     1      -7.373  12.372  18.729  0.00  0.00    +0.000 NA
ATOM     21  C   UNL     1      -6.268  12.013  18.647  0.00  0.00    +0.000 C 
ENDBRANCH  14  21
ENDBRANCH  13  17
ENDBRANCH  12  13
ENDBRANCH   1  12
BRANCH   5  22
ATOM     22  C   UNL     1       2.051   7.191  20.513  0.00  0.00    +0.000 C 
BRANCH  22  23
ATOM     23  C   UNL     1       0.961   6.160  20.741  0.00  0.00    +0.000 C 
BRANCH  23  24
ATOM     24  C   UNL     1       1.343   4.702  20.664  0.00  0.00    +0.000 A 
ATOM     25  C   UNL     1       0.683   3.929  19.694  0.00  0.00    +0.000 A 
ATOM     26  C   UNL     1       1.082   2.622  19.424  0.00  0.00    +0.000 A 
ATOM     27  C   UNL     1       2.145   2.065  20.126  0.00  0.00    +0.000 A 
ATOM     28  C   UNL     1       2.795   2.810  21.110  0.00  0.00    +0.000 A 
ATOM     29  C   UNL     1       2.400   4.126  21.379  0.00  0.00    +0.000 A 
ENDBRANCH  23  24
ENDBRANCH  22  23
ENDBRANCH   5  22
TORSDOF 8
ENDMDL
MODEL 3
REMARK VINA RESULT:      -8.1      2.478      8.080
REMARK  Name = 
REMARK  8 active torsions:
REMARK  status: ('A' for Active; 'I' for Inactive)
REMARK    1  A    between atoms: C_2  and  C_3
REMARK    2  A    between atoms: C_6  and  C_7
REMARK    3  A    between atoms: C_7  and  S_8
REMARK    4  A    between atoms: S_8  and  C_9
REMARK    5  A    between atoms: C_12  and  C_13
REMARK    6  A    between atoms: N_19  and  C_20
REMARK    7  A    between atoms: C_20  and  C_21
REMARK    8  A    between atoms: C_21  and  C_22
REMARK                            x       y       z     vdW  Elec       q    Type
REMARK                         _______ _______ _______ _____ _____    ______ ____
ROOT
ATOM      1  C   UNL     1       6.063   5.355  18.106  0.00  0.00    +0.000 A 
ATOM      2  N   UNL     1       6.567   4.629  19.077  0.00  0.00    +0.000 NA
ATOM      3  N   UNL     1       5.534   3.986  19.715  0.00  0.00    +0.000 NA
ATOM      4  C   UNL     1       4.399   4.288  19.108  0.00  0.00    +0.000 A 
ATOM      5  N   UNL     1       4.682   5.252  18.133  0.00  0.00    +0.000 N 
ENDROOT
BRANCH   4   6
ATOM      6  C   UNL     1       3.086   3.701  19.450  0.00  0.00    +0.000 A 
ATOM      7  C   UNL     1       2.512   2.735  18.616  0.00  0.00    +0.000 A 
ATOM      8  C   UNL     1       1.256   2.232  18.928  0.00  0.00    +0.000 A 
ATOM      9  N   UNL     1       0.545   2.602  20.013  0.00  0.00    +0.000 NA
ATOM     10  C   UNL     1       1.095   3.547  20.796  0.00  0.00    +0.000 A 
ATOM     11  C   UNL     1       2.330   4.130  20.546  0.00  0.00    +0.000 A 
ENDBRANCH   4   6
BRANCH   1  12
ATOM     12  S   UNL     1       7.032   6.261  16.966  0.00  0.00    +0.000 S 
BRANCH  12  13
ATOM     13  C   UNL     1       7.677   4.993  15.826  0.00  0.00    +0.000 C 
BRANCH  13  17
ATOM     14  C   UNL     1       5.179   3.704  12.458  0.00  0.00    +0.000 A 
ATOM     15  C   UNL     1       6.523   4.032  12.239  0.00  0.00    +0.000 A 
ATOM     16  C   UNL     1       7.337   4.491  13.295  0.00  0.00    +0.000 A 
ATOM     17  C   UNL     1       6.828   4.646  14.593  0.00  0.00    +0.000 A 
ATOM     18  C   UNL     1       5.468   4.329  14.790  0.00  0.00    +0.000 A 
ATOM     19  C   UNL     1       4.654   3.866  13.739  0.00  0.00    +0.000 A 
BRANCH  14  21
ATOM     20  N   UNL     1       3.704   2.780  10.524  0.00  0.00    +0.000 NA
ATOM     21  C   UNL     1       4.363   3.192  11.392  0.00  0.00    +0.000 C 
ENDBRANCH  14  21
ENDBRANCH  13  17
ENDBRANCH  12  13
ENDBRANCH   1  12
BRANCH   5  22
ATOM     22  C   UNL     1       3.633   5.992  17.443  0.00  0.00    +0.000 C 
BRANCH  22  23
ATOM     23  C   UNL     1       3.600   7.503  17.581  0.00  0.00    +0.000 C 
BRANCH  23  24
ATOM     24  C   UNL     1       2.468   8.115  18.370  0.00  0.00    +0.000 A 
ATOM     25  C   UNL     1       2.243   7.595  19.655  0.00  0.00    +0.000 A 
ATOM     26  C   UNL     1       1.342   8.201  20.528  0.00  0.00    +0.000 A 
ATOM     27  C   UNL     1       0.647   9.335  20.126  0.00  0.00    +0.000 A 
ATOM     28  C   UNL     1       0.839   9.851  18.844  0.00  0.00    +0.000 A 
ATOM     29  C   UNL     1       1.749   9.247  17.967  0.00  0.00    +0.000 A 
ENDBRANCH  23  24
ENDBRANCH  22  23
ENDBRANCH   5  22
TORSDOF 8
ENDMDL
MODEL 4
REMARK VINA RESULT:      -8.1      4.708      7.071
REMARK  Name = 
REMARK  8 active torsions:
REMARK  status: ('A' for Active; 'I' for Inactive)
REMARK    1  A    between atoms: C_2  and  C_3
REMARK    2  A    between atoms: C_6  and  C_7
REMARK    3  A    between atoms: C_7  and  S_8
REMARK    4  A    between atoms: S_8  and  C_9
REMARK    5  A    between atoms: C_12  and  C_13
REMARK    6  A    between atoms: N_19  and  C_20
REMARK    7  A    between atoms: C_20  and  C_21
REMARK    8  A    between atoms: C_21  and  C_22
REMARK                            x       y       z     vdW  Elec       q    Type
REMARK                         _______ _______ _______ _____ _____    ______ ____
ROOT
ATOM      1  C   UNL     1       6.941   6.458  17.912  0.00  0.00    +0.000 A 
ATOM      2  N   UNL     1       7.705   5.507  18.398  0.00  0.00    +0.000 NA
ATOM      3  N   UNL     1       6.910   4.428  18.701  0.00  0.00    +0.000 NA
ATOM      4  C   UNL     1       5.662   4.705  18.362  0.00  0.00    +0.000 A 
ATOM      5  N   UNL     1       5.621   6.042  17.949  0.00  0.00    +0.000 N 
ENDROOT
BRANCH   4   6
ATOM      6  C   UNL     1       4.541   3.744  18.444  0.00  0.00    +0.000 A 
ATOM      7  C   UNL     1       4.180   3.194  19.679  0.00  0.00    +0.000 A 
ATOM      8  C   UNL     1       3.157   2.257  19.729  0.00  0.00    +0.000 A 
ATOM      9  N   UNL     1       2.458   1.847  18.650  0.00  0.00    +0.000 NA
ATOM     10  C   UNL     1       2.827   2.365  17.465  0.00  0.00    +0.000 A 
ATOM     11  C   UNL     1       3.859   3.282  17.314  0.00  0.00    +0.000 A 
ENDBRANCH   4   6
BRANCH   1  12
ATOM     12  S   UNL     1       7.554   7.976  17.296  0.00  0.00    +0.000 S 
BRANCH  12  13
ATOM     13  C   UNL     1       8.561   8.637  18.664  0.00  0.00    +0.000 C 
BRANCH  13  17
ATOM     14  C   UNL     1       9.669  12.856  18.200  0.00  0.00    +0.000 A 
ATOM     15  C   UNL     1      10.391  12.043  19.082  0.00  0.00    +0.000 A 
ATOM     16  C   UNL     1      10.030  10.694  19.283  0.00  0.00    +0.000 A 
ATOM     17  C   UNL     1       8.931  10.128  18.620  0.00  0.00    +0.000 A 
ATOM     18  C   UNL     1       8.205  10.968  17.750  0.00  0.00    +0.000 A 
ATOM     19  C   UNL     1       8.566  12.312  17.544  0.00  0.00    +0.000 A 
BRANCH  14  21
ATOM     20  N   UNL     1      10.387  15.320  17.771  0.00  0.00    +0.000 NA
ATOM     21  C   UNL     1      10.067  14.216  17.961  0.00  0.00    +0.000 C 
ENDBRANCH  14  21
ENDBRANCH  13  17
ENDBRANCH  12  13
ENDBRANCH   1  12
BRANCH   5  22
ATOM     22  C   UNL     1       4.366   6.753  17.742  0.00  0.00    +0.000 C 
BRANCH  22  23
ATOM     23  C   UNL     1       3.289   6.650  18.806  0.00  0.00    +0.000 C 
BRANCH  23  24
ATOM     24  C   UNL     1       2.270   7.761  18.889  0.00  0.00    +0.000 A 
ATOM     25  C   UNL     1       1.714   8.012  20.154  0.00  0.00    +0.000 A 
ATOM     26  C   UNL     1       0.900   9.121  20.374  0.00  0.00    +0.000 A 
ATOM     27  C   UNL     1       0.625   9.994  19.329  0.00  0.00    +0.000 A 
ATOM     28  C   UNL     1       1.149   9.747  18.060  0.00  0.00    +0.000 A 
ATOM     29  C   UNL     1       1.972   8.637  17.838  0.00  0.00    +0.000 A 
ENDBRANCH  23  24
ENDBRANCH  22  23
ENDBRANCH   5  22
TORSDOF 8
ENDMDL
MODEL 5
REMARK VINA RESULT:      -8.1      3.020      4.322
REMARK  Name = 
REMARK  8 active torsions:
REMARK  status: ('A' for Active; 'I' for Inactive)
REMARK    1  A    between atoms: C_2  and  C_3
REMARK    2  A    between atoms: C_6  and  C_7
REMARK    3  A    between atoms: C_7  and  S_8
REMARK    4  A    between atoms: S_8  and  C_9
REMARK    5  A    between atoms: C_12  and  C_13
REMARK    6  A    between atoms: N_19  and  C_20
REMARK    7  A    between atoms: C_20  and  C_21
REMARK    8  A    between atoms: C_21  and  C_22
REMARK                            x       y       z     vdW  Elec       q    Type
REMARK                         _______ _______ _______ _____ _____    ______ ____
ROOT
ATOM      1  C   UNL     1       1.884   8.513  18.705  0.00  0.00    +0.000 A 
ATOM      2  N   UNL     1       2.392   9.095  17.643  0.00  0.00    +0.000 NA
ATOM      3  N   UNL     1       3.408   8.305  17.164  0.00  0.00    +0.000 NA
ATOM      4  C   UNL     1       3.497   7.218  17.911  0.00  0.00    +0.000 A 
ATOM      5  N   UNL     1       2.604   7.362  18.979  0.00  0.00    +0.000 N 
ENDROOT
BRANCH   4   6
ATOM      6  C   UNL     1       4.410   6.087  17.637  0.00  0.00    +0.000 A 
ATOM      7  C   UNL     1       5.374   5.721  18.583  0.00  0.00    +0.000 A 
ATOM      8  C   UNL     1       6.255   4.689  18.287  0.00  0.00    +0.000 A 
ATOM      9  N   UNL     1       6.231   3.986  17.135  0.00  0.00    +0.000 NA
ATOM     10  C   UNL     1       5.315   4.360  16.224  0.00  0.00    +0.000 A 
ATOM     11  C   UNL     1       4.416   5.400  16.418  0.00  0.00    +0.000 A 
ENDBRANCH   4   6
BRANCH   1  12
ATOM     12  S   UNL     1       0.494   9.122  19.575  0.00  0.00    +0.000 S 
BRANCH  12  13
ATOM     13  C   UNL     1       0.008  10.614  18.647  0.00  0.00    +0.000 C 
BRANCH  13  17
ATOM     14  C   UNL     1      -4.319  11.131  18.142  0.00  0.00    +0.000 A 
ATOM     15  C   UNL     1      -3.647  10.149  17.403  0.00  0.00    +0.000 A 
ATOM     16  C   UNL     1      -2.250   9.990  17.513  0.00  0.00    +0.000 A 
ATOM     17  C   UNL     1      -1.487  10.815  18.354  0.00  0.00    +0.000 A 
ATOM     18  C   UNL     1      -2.179  11.810  19.075  0.00  0.00    +0.000 A 
ATOM     19  C   UNL     1      -3.573  11.968  18.971  0.00  0.00    +0.000 A 
BRANCH  14  21
ATOM     20  N   UNL     1      -6.906  11.371  18.003  0.00  0.00    +0.000 NA
ATOM     21  C   UNL     1      -5.748  11.261  18.064  0.00  0.00    +0.000 C 
ENDBRANCH  14  21
ENDBRANCH  13  17
ENDBRANCH  12  13
ENDBRANCH   1  12
BRANCH   5  22
ATOM     22  C   UNL     1       2.617   6.469  20.130  0.00  0.00    +0.000 C 
BRANCH  22  23
ATOM     23  C   UNL     1       1.701   5.258  20.120  0.00  0.00    +0.000 C 
BRANCH  23  24
ATOM     24  C   UNL     1       2.240   3.971  19.545  0.00  0.00    +0.000 A 
ATOM     25  C   UNL     1       1.797   3.622  18.258  0.00  0.00    +0.000 A 
ATOM     26  C   UNL     1       2.362   2.551  17.570  0.00  0.00    +0.000 A 
ATOM     27  C   UNL     1       3.377   1.809  18.160  0.00  0.00    +0.000 A 
ATOM     28  C   UNL     1       3.812   2.125  19.448  0.00  0.00    +0.000 A 
ATOM     29  C   UNL     1       3.250   3.205  20.139  0.00  0.00    +0.000 A 
ENDBRANCH  23  24
ENDBRANCH  22  23
ENDBRANCH   5  22
TORSDOF 8
ENDMDL
MODEL 6
REMARK VINA RESULT:      -8.0      3.084      5.478
REMARK  Name = 
REMARK  8 active torsions:
REMARK  status: ('A' for Active; 'I' for Inactive)
REMARK    1  A    between atoms: C_2  and  C_3
REMARK    2  A    between atoms: C_6  and  C_7
REMARK    3  A    between atoms: C_7  and  S_8
REMARK    4  A    between atoms: S_8  and  C_9
REMARK    5  A    between atoms: C_12  and  C_13
REMARK    6  A    between atoms: N_19  and  C_20
REMARK    7  A    between atoms: C_20  and  C_21
REMARK    8  A    between atoms: C_21  and  C_22
REMARK                            x       y       z     vdW  Elec       q    Type
REMARK                         _______ _______ _______ _____ _____    ______ ____
ROOT
ATOM      1  C   UNL     1       1.663   7.835  19.970  0.00  0.00    +0.000 A 
ATOM      2  N   UNL     1       1.220   7.176  21.016  0.00  0.00    +0.000 NA
ATOM      3  N   UNL     1       1.512   5.845  20.842  0.00  0.00    +0.000 NA
ATOM      4  C   UNL     1       2.170   5.694  19.706  0.00  0.00    +0.000 A 
ATOM      5  N   UNL     1       2.195   6.936  19.061  0.00  0.00    +0.000 N 
ENDROOT
BRANCH   4   6
ATOM      6  C   UNL     1       2.741   4.414  19.234  0.00  0.00    +0.000 A 
ATOM      7  C   UNL     1       2.026   3.621  18.330  0.00  0.00    +0.000 A 
ATOM      8  C   UNL     1       2.556   2.398  17.937  0.00  0.00    +0.000 A 
ATOM      9  N   UNL     1       3.746   1.922  18.359  0.00  0.00    +0.000 NA
ATOM     10  C   UNL     1       4.415   2.682  19.245  0.00  0.00    +0.000 A 
ATOM     11  C   UNL     1       3.949   3.901  19.720  0.00  0.00    +0.000 A 
ENDBRANCH   4   6
BRANCH   1  12
ATOM     12  S   UNL     1       1.597   9.576  19.819  0.00  0.00    +0.000 S 
BRANCH  12  13
ATOM     13  C   UNL     1       0.767   9.852  18.220  0.00  0.00    +0.000 C 
BRANCH  13  17
ATOM     14  C   UNL     1      -3.389  11.239  17.980  0.00  0.00    +0.000 A 
ATOM     15  C   UNL     1      -2.542  11.755  18.969  0.00  0.00    +0.000 A 
ATOM     16  C   UNL     1      -1.214  11.296  19.096  0.00  0.00    +0.000 A 
ATOM     17  C   UNL     1      -0.703  10.301  18.249  0.00  0.00    +0.000 A 
ATOM     18  C   UNL     1      -1.577   9.780  17.273  0.00  0.00    +0.000 A 
ATOM     19  C   UNL     1      -2.900  10.240  17.139  0.00  0.00    +0.000 A 
BRANCH  14  21
ATOM     20  N   UNL     1      -5.807  12.154  17.691  0.00  0.00    +0.000 NA
ATOM     21  C   UNL     1      -4.725  11.742  17.821  0.00  0.00    +0.000 C 
ENDBRANCH  14  21
ENDBRANCH  13  17
ENDBRANCH  12  13
ENDBRANCH   1  12
BRANCH   5  22
ATOM     22  C   UNL     1       2.621   7.084  17.675  0.00  0.00    +0.000 C 
BRANCH  22  23
ATOM     23  C   UNL     1       4.061   7.470  17.395  0.00  0.00    +0.000 C 
BRANCH  23  24
ATOM     24  C   UNL     1       5.077   6.361  17.267  0.00  0.00    +0.000 A 
ATOM     25  C   UNL     1       4.767   5.323  16.373  0.00  0.00    +0.000 A 
ATOM     26  C   UNL     1       5.707   4.347  16.052  0.00  0.00    +0.000 A 
ATOM     27  C   UNL     1       6.972   4.390  16.626  0.00  0.00    +0.000 A 
ATOM     28  C   UNL     1       7.289   5.399  17.536  0.00  0.00    +0.000 A 
ATOM     29  C   UNL     1       6.348   6.385  17.855  0.00  0.00    +0.000 A 
ENDBRANCH  23  24
ENDBRANCH  22  23
ENDBRANCH   5  22
TORSDOF 8
ENDMDL
MODEL 7
REMARK VINA RESULT:      -8.0      5.124      6.821
REMARK  Name = 
REMARK  8 active torsions:
REMARK  status: ('A' for Active; 'I' for Inactive)
REMARK    1  A    between atoms: C_2  and  C_3
REMARK    2  A    between atoms: C_6  and  C_7
REMARK    3  A    between atoms: C_7  and  S_8
REMARK    4  A    between atoms: S_8  and  C_9
REMARK    5  A    between atoms: C_12  and  C_13
REMARK    6  A    between atoms: N_19  and  C_20
REMARK    7  A    between atoms: C_20  and  C_21
REMARK    8  A    between atoms: C_21  and  C_22
REMARK                            x       y       z     vdW  Elec       q    Type
REMARK                         _______ _______ _______ _____ _____    ______ ____
ROOT
ATOM      1  C   UNL     1       7.188   6.897  18.058  0.00  0.00    +0.000 A 
ATOM      2  N   UNL     1       7.913   6.242  18.935  0.00  0.00    +0.000 NA
ATOM      3  N   UNL     1       7.273   5.062  19.227  0.00  0.00    +0.000 NA
ATOM      4  C   UNL     1       6.174   4.976  18.497  0.00  0.00    +0.000 A 
ATOM      5  N   UNL     1       6.026   6.186  17.809  0.00  0.00    +0.000 N 
ENDROOT
BRANCH   4   6
ATOM      6  C   UNL     1       5.281   3.798  18.466  0.00  0.00    +0.000 A 
ATOM      7  C   UNL     1       4.807   3.313  17.242  0.00  0.00    +0.000 A 
ATOM      8  C   UNL     1       3.929   2.236  17.236  0.00  0.00    +0.000 A 
ATOM      9  N   UNL     1       3.510   1.600  18.350  0.00  0.00    +0.000 NA
ATOM     10  C   UNL     1       3.954   2.088  19.522  0.00  0.00    +0.000 A 
ATOM     11  C   UNL     1       4.806   3.180  19.627  0.00  0.00    +0.000 A 
ENDBRANCH   4   6
BRANCH   1  12
ATOM     12  S   UNL     1       7.681   8.407  17.324  0.00  0.00    +0.000 S 
BRANCH  12  13
ATOM     13  C   UNL     1       8.612   9.257  18.640  0.00  0.00    +0.000 C 
BRANCH  13  17
ATOM     14  C   UNL     1      10.240  13.295  18.099  0.00  0.00    +0.000 A 
ATOM     15  C   UNL     1       8.928  13.016  17.697  0.00  0.00    +0.000 A 
ATOM     16  C   UNL     1       8.393  11.717  17.819  0.00  0.00    +0.000 A 
ATOM     17  C   UNL     1       9.159  10.660  18.334  0.00  0.00    +0.000 A 
ATOM     18  C   UNL     1      10.484  10.955  18.716  0.00  0.00    +0.000 A 
ATOM     19  C   UNL     1      11.018  12.252  18.600  0.00  0.00    +0.000 A 
BRANCH  14  21
ATOM     20  N   UNL     1      11.191  15.712  17.950  0.00  0.00    +0.000 NA
ATOM     21  C   UNL     1      10.767  14.629  18.018  0.00  0.00    +0.000 C 
ENDBRANCH  14  21
ENDBRANCH  13  17
ENDBRANCH  12  13
ENDBRANCH   1  12
BRANCH   5  22
ATOM     22  C   UNL     1       4.798   6.536  17.105  0.00  0.00    +0.000 C 
BRANCH  22  23
ATOM     23  C   UNL     1       3.606   7.009  17.916  0.00  0.00    +0.000 C 
BRANCH  23  24
ATOM     24  C   UNL     1       2.769   5.964  18.615  0.00  0.00    +0.000 A 
ATOM     25  C   UNL     1       2.714   6.035  20.016  0.00  0.00    +0.000 A 
ATOM     26  C   UNL     1       1.837   5.233  20.743  0.00  0.00    +0.000 A 
ATOM     27  C   UNL     1       1.005   4.342  20.077  0.00  0.00    +0.000 A 
ATOM     28  C   UNL     1       1.063   4.240  18.687  0.00  0.00    +0.000 A 
ATOM     29  C   UNL     1       1.939   5.050  17.954  0.00  0.00    +0.000 A 
ENDBRANCH  23  24
ENDBRANCH  22  23
ENDBRANCH   5  22
TORSDOF 8
ENDMDL
MODEL 8
REMARK VINA RESULT:      -8.0      0.589      1.382
REMARK  Name = 
REMARK  8 active torsions:
REMARK  status: ('A' for Active; 'I' for Inactive)
REMARK    1  A    between atoms: C_2  and  C_3
REMARK    2  A    between atoms: C_6  and  C_7
REMARK    3  A    between atoms: C_7  and  S_8
REMARK    4  A    between atoms: S_8  and  C_9
REMARK    5  A    between atoms: C_12  and  C_13
REMARK    6  A    between atoms: N_19  and  C_20
REMARK    7  A    between atoms: C_20  and  C_21
REMARK    8  A    between atoms: C_21  and  C_22
REMARK                            x       y       z     vdW  Elec       q    Type
REMARK                         _______ _______ _______ _____ _____    ______ ____
ROOT
ATOM      1  C   UNL     1       4.839   6.147  17.725  0.00  0.00    +0.000 A 
ATOM      2  N   UNL     1       5.601   7.134  17.313  0.00  0.00    +0.000 NA
ATOM      3  N   UNL     1       6.176   6.766  16.122  0.00  0.00    +0.000 NA
ATOM      4  C   UNL     1       5.734   5.567  15.782  0.00  0.00    +0.000 A 
ATOM      5  N   UNL     1       4.953   5.088  16.841  0.00  0.00    +0.000 N 
ENDROOT
BRANCH   4   6
ATOM      6  C   UNL     1       6.053   4.887  14.509  0.00  0.00    +0.000 A 
ATOM      7  C   UNL     1       5.121   4.021  13.925  0.00  0.00    +0.000 A 
ATOM      8  C   UNL     1       5.459   3.353  12.755  0.00  0.00    +0.000 A 
ATOM      9  N   UNL     1       6.640   3.500  12.119  0.00  0.00    +0.000 NA
ATOM     10  C   UNL     1       7.537   4.317  12.699  0.00  0.00    +0.000 A 
ATOM     11  C   UNL     1       7.300   5.000  13.885  0.00  0.00    +0.000 A 
ENDBRANCH   4   6
BRANCH   1  12
ATOM     12  S   UNL     1       3.832   6.228  19.153  0.00  0.00    +0.000 S 
BRANCH  12  13
ATOM     13  C   UNL     1       2.359   7.153  18.605  0.00  0.00    +0.000 C 
BRANCH  13  17
ATOM     14  C   UNL     1       0.345   9.774  21.490  0.00  0.00    +0.000 A 
ATOM     15  C   UNL     1       0.527  10.205  20.170  0.00  0.00    +0.000 A 
ATOM     16  C   UNL     1       1.209   9.402  19.233  0.00  0.00    +0.000 A 
ATOM     17  C   UNL     1       1.738   8.153  19.593  0.00  0.00    +0.000 A 
ATOM     18  C   UNL     1       1.562   7.744  20.931  0.00  0.00    +0.000 A 
ATOM     19  C   UNL     1       0.877   8.541  21.866  0.00  0.00    +0.000 A 
BRANCH  14  21
ATOM     20  N   UNL     1      -0.985  11.218  23.196  0.00  0.00    +0.000 NA
ATOM     21  C   UNL     1      -0.391  10.572  22.430  0.00  0.00    +0.000 C 
ENDBRANCH  14  21
ENDBRANCH  13  17
ENDBRANCH  12  13
ENDBRANCH   1  12
BRANCH   5  22
ATOM     22  C   UNL     1       4.511   3.701  16.916  0.00  0.00    +0.000 C 
BRANCH  22  23
ATOM     23  C   UNL     1       3.025   3.417  17.027  0.00  0.00    +0.000 C 
BRANCH  23  24
ATOM     24  C   UNL     1       2.448   3.201  18.405  0.00  0.00    +0.000 A 
ATOM     25  C   UNL     1       3.314   2.664  19.372  0.00  0.00    +0.000 A 
ATOM     26  C   UNL     1       2.937   2.587  20.711  0.00  0.00    +0.000 A 
ATOM     27  C   UNL     1       1.684   3.042  21.102  0.00  0.00    +0.000 A 
ATOM     28  C   UNL     1       0.801   3.555  20.152  0.00  0.00    +0.000 A 
ATOM     29  C   UNL     1       1.181   3.639  18.806  0.00  0.00    +0.000 A 
ENDBRANCH  23  24
ENDBRANCH  22  23
ENDBRANCH   5  22
TORSDOF 8
ENDMDL
MODEL 9
REMARK VINA RESULT:      -8.0      4.704      6.894
REMARK  Name = 
REMARK  8 active torsions:
REMARK  status: ('A' for Active; 'I' for Inactive)
REMARK    1  A    between atoms: C_2  and  C_3
REMARK    2  A    between atoms: C_6  and  C_7
REMARK    3  A    between atoms: C_7  and  S_8
REMARK    4  A    between atoms: S_8  and  C_9
REMARK    5  A    between atoms: C_12  and  C_13
REMARK    6  A    between atoms: N_19  and  C_20
REMARK    7  A    between atoms: C_20  and  C_21
REMARK    8  A    between atoms: C_21  and  C_22
REMARK                            x       y       z     vdW  Elec       q    Type
REMARK                         _______ _______ _______ _____ _____    ______ ____
ROOT
ATOM      1  C   UNL     1       6.946   6.527  17.976  0.00  0.00    +0.000 A 
ATOM      2  N   UNL     1       7.710   5.582  18.471  0.00  0.00    +0.000 NA
ATOM      3  N   UNL     1       6.925   4.485  18.730  0.00  0.00    +0.000 NA
ATOM      4  C   UNL     1       5.685   4.745  18.356  0.00  0.00    +0.000 A 
ATOM      5  N   UNL     1       5.633   6.088  17.964  0.00  0.00    +0.000 N 
ENDROOT
BRANCH   4   6
ATOM      6  C   UNL     1       4.578   3.765  18.386  0.00  0.00    +0.000 A 
ATOM      7  C   UNL     1       4.248   3.120  19.584  0.00  0.00    +0.000 A 
ATOM      8  C   UNL     1       3.238   2.166  19.582  0.00  0.00    +0.000 A 
ATOM      9  N   UNL     1       2.526   1.825  18.487  0.00  0.00    +0.000 NA
ATOM     10  C   UNL     1       2.867   2.434  17.337  0.00  0.00    +0.000 A 
ATOM     11  C   UNL     1       3.882   3.376  17.237  0.00  0.00    +0.000 A 
ENDBRANCH   4   6
BRANCH   1  12
ATOM     12  S   UNL     1       7.551   8.066  17.405  0.00  0.00    +0.000 S 
BRANCH  12  13
ATOM     13  C   UNL     1       8.712   8.598  18.705  0.00  0.00    +0.000 C 
BRANCH  13  17
ATOM     14  C   UNL     1       9.379  12.899  19.257  0.00  0.00    +0.000 A 
ATOM     15  C   UNL     1       8.967  12.415  18.009  0.00  0.00    +0.000 A 
ATOM     16  C   UNL     1       8.787  11.034  17.791  0.00  0.00    +0.000 A 
ATOM     17  C   UNL     1       9.026  10.099  18.809  0.00  0.00    +0.000 A 
ATOM     18  C   UNL     1       9.458  10.603  20.054  0.00  0.00    +0.000 A 
ATOM     19  C   UNL     1       9.633  11.981  20.275  0.00  0.00    +0.000 A 
BRANCH  14  21
ATOM     20  N   UNL     1       9.623  15.455  19.678  0.00  0.00    +0.000 NA
ATOM     21  C   UNL     1       9.516  14.310  19.491  0.00  0.00    +0.000 C 
ENDBRANCH  14  21
ENDBRANCH  13  17
ENDBRANCH  12  13
ENDBRANCH   1  12
BRANCH   5  22
ATOM     22  C   UNL     1       4.372   6.782  17.728  0.00  0.00    +0.000 C 
BRANCH  22  23
ATOM     23  C   UNL     1       3.258   6.629  18.747  0.00  0.00    +0.000 C 
BRANCH  23  24
ATOM     24  C   UNL     1       2.255   7.751  18.869  0.00  0.00    +0.000 A 
ATOM     25  C   UNL     1       1.739   7.997  20.152  0.00  0.00    +0.000 A 
ATOM     26  C   UNL     1       0.944   9.113  20.405  0.00  0.00    +0.000 A 
ATOM     27  C   UNL     1       0.649   9.998  19.375  0.00  0.00    +0.000 A 
ATOM     28  C   UNL     1       1.132   9.755  18.089  0.00  0.00    +0.000 A 
ATOM     29  C   UNL     1       1.936   8.638  17.834  0.00  0.00    +0.000 A 
ENDBRANCH  23  24
ENDBRANCH  22  23
ENDBRANCH   5  22
TORSDOF 8
ENDMDL
