MODEL 1
REMARK VINA RESULT:      -8.4      0.000      0.000
REMARK  Name = 
REMARK  10 active torsions:
REMARK  status: ('A' for Active; 'I' for Inactive)
REMARK    1  A    between atoms: C_1  and  C_2
REMARK    2  A    between atoms: C_2  and  C_3
REMARK    3  A    between atoms: C_4  and  C_5
REMARK    4  A    between atoms: C_5  and  C_6
REMARK    5  A    between atoms: C_6  and  C_7
REMARK    6  A    between atoms: C_7  and  C_8
REMARK    7  A    between atoms: C_7  and  C_9
REMARK    8  A    between atoms: C_9  and  C_10
REMARK    9  A    between atoms: C_10  and  N_11
REMARK   10  A    between atoms: N_11  and  C_12
REMARK                            x       y       z     vdW  Elec       q    Type
REMARK                         _______ _______ _______ _____ _____    ______ ____
ROOT
ATOM      1  N   UNL     1       5.520   3.507  18.748  0.00  0.00    +0.000 NA
ATOM      2  H   UNL     1       5.560   3.381  19.758  0.00  0.00    +0.000 HD
ENDROOT
BRANCH   1   3
ATOM      3  C   UNL     1       4.118   3.481  18.275  0.00  0.00    +0.000 C 
ATOM      4  C   UNL     1       3.328   2.359  19.000  0.00  0.00    +0.000 C 
ATOM      5  C   UNL     1       3.121   2.697  20.493  0.00  0.00    +0.000 C 
ATOM      6  C   UNL     1       2.355   4.022  20.638  0.00  0.00    +0.000 C 
ATOM      7  C   UNL     1       0.980   3.880  19.964  0.00  0.00    +0.000 C 
ATOM      8  C   UNL     1       1.154   3.543  18.474  0.00  0.00    +0.000 C 
ATOM      9  C   UNL     1       1.940   2.229  18.336  0.00  0.00    +0.000 C 
ATOM     10  C   UNL     1       1.944   4.670  17.795  0.00  0.00    +0.000 C 
ATOM     11  C   UNL     1       3.331   4.816  18.451  0.00  0.00    +0.000 C 
ATOM     12  C   UNL     1       3.141   5.148  19.945  0.00  0.00    +0.000 C 
ENDBRANCH   1   3
BRANCH   1  13
ATOM     13  C   UNL     1       6.183   4.760  18.393  0.00  0.00    +0.000 C 
BRANCH  13  14
ATOM     14  C   UNL     1       7.237   4.592  17.293  0.00  0.00    +0.000 C 
BRANCH  14  15
ATOM     15  C   UNL     1       6.729   5.137  15.933  0.00  0.00    +0.000 C 
ATOM     16  C   UNL     1       5.625   6.171  16.169  0.00  0.00    +0.000 C 
BRANCH  15  17
ATOM     17  C   UNL     1       6.249   4.001  14.999  0.00  0.00    +0.000 C 
BRANCH  17  18
ATOM     18  C   UNL     1       6.230   4.391  13.518  0.00  0.00    +0.000 C 
BRANCH  18  22
ATOM     19  C   UNL     1       6.112   1.412  10.993  0.00  0.00    +0.000 C 
ATOM     20  C   UNL     1       5.681   2.633  11.759  0.00  0.00    +0.000 C 
ATOM     21  C   UNL     1       4.294   3.153  11.500  0.00  0.00    +0.000 C 
ATOM     22  C   UNL     1       6.524   3.205  12.641  0.00  0.00    +0.000 C 
ENDBRANCH  18  22
ENDBRANCH  17  18
ENDBRANCH  15  17
ENDBRANCH  14  15
ENDBRANCH  13  14
ENDBRANCH   1  13
TORSDOF 7
ENDMDL
MODEL 2
REMARK VINA RESULT:      -8.2      0.818      1.135
REMARK  Name = 
REMARK  10 active torsions:
REMARK  status: ('A' for Active; 'I' for Inactive)
REMARK    1  A    between atoms: C_1  and  C_2
REMARK    2  A    between atoms: C_2  and  C_3
REMARK    3  A    between atoms: C_4  and  C_5
REMARK    4  A    between atoms: C_5  and  C_6
REMARK    5  A    between atoms: C_6  and  C_7
REMARK    6  A    between atoms: C_7  and  C_8
REMARK    7  A    between atoms: C_7  and  C_9
REMARK    8  A    between atoms: C_9  and  C_10
REMARK    9  A    between atoms: C_10  and  N_11
REMARK   10  A    between atoms: N_11  and  C_12
REMARK                            x       y       z     vdW  Elec       q    Type
REMARK                         _______ _______ _______ _____ _____    ______ ____
ROOT
ATOM      1  N   UNL     1       5.199   4.628  19.351  0.00  0.00    +0.000 NA
ATOM      2  H   UNL     1       4.959   5.458  19.891  0.00  0.00    +0.000 HD
ENDROOT
BRANCH   1   3
ATOM      3  C   UNL     1       4.013   4.112  18.634  0.00  0.00    +0.000 C 
ATOM      4  C   UNL     1       3.602   2.728  19.203  0.00  0.00    +0.000 C 
ATOM      5  C   UNL     1       3.038   2.858  20.634  0.00  0.00    +0.000 C 
ATOM      6  C   UNL     1       1.811   3.786  20.641  0.00  0.00    +0.000 C 
ATOM      7  C   UNL     1       0.726   3.187  19.731  0.00  0.00    +0.000 C 
ATOM      8  C   UNL     1       1.261   3.045  18.297  0.00  0.00    +0.000 C 
ATOM      9  C   UNL     1       2.499   2.134  18.300  0.00  0.00    +0.000 C 
ATOM     10  C   UNL     1       1.662   4.430  17.772  0.00  0.00    +0.000 C 
ATOM     11  C   UNL     1       2.759   5.039  18.667  0.00  0.00    +0.000 C 
ATOM     12  C   UNL     1       2.212   5.170  20.103  0.00  0.00    +0.000 C 
ENDBRANCH   1   3
BRANCH   1  13
ATOM     13  C   UNL     1       6.286   4.952  18.429  0.00  0.00    +0.000 C 
BRANCH  13  14
ATOM     14  C   UNL     1       6.018   4.484  16.995  0.00  0.00    +0.000 C 
BRANCH  14  15
ATOM     15  C   UNL     1       6.301   5.611  15.968  0.00  0.00    +0.000 C 
ATOM     16  C   UNL     1       5.041   6.460  15.772  0.00  0.00    +0.000 C 
BRANCH  15  17
ATOM     17  C   UNL     1       6.822   5.051  14.624  0.00  0.00    +0.000 C 
BRANCH  17  18
ATOM     18  C   UNL     1       6.217   3.695  14.249  0.00  0.00    +0.000 C 
BRANCH  18  22
ATOM     19  C   UNL     1       3.999   3.461  11.042  0.00  0.00    +0.000 C 
ATOM     20  C   UNL     1       5.087   3.150  12.032  0.00  0.00    +0.000 C 
ATOM     21  C   UNL     1       6.058   2.062  11.667  0.00  0.00    +0.000 C 
ATOM     22  C   UNL     1       5.166   3.845  13.184  0.00  0.00    +0.000 C 
ENDBRANCH  18  22
ENDBRANCH  17  18
ENDBRANCH  15  17
ENDBRANCH  14  15
ENDBRANCH  13  14
ENDBRANCH   1  13
TORSDOF 7
ENDMDL
MODEL 3
REMARK VINA RESULT:      -8.1      1.129      2.329
REMARK  Name = 
REMARK  10 active torsions:
REMARK  status: ('A' for Active; 'I' for Inactive)
REMARK    1  A    between atoms: C_1  and  C_2
REMARK    2  A    between atoms: C_2  and  C_3
REMARK    3  A    between atoms: C_4  and  C_5
REMARK    4  A    between atoms: C_5  and  C_6
REMARK    5  A    between atoms: C_6  and  C_7
REMARK    6  A    between atoms: C_7  and  C_8
REMARK    7  A    between atoms: C_7  and  C_9
REMARK    8  A    between atoms: C_9  and  C_10
REMARK    9  A    between atoms: C_10  and  N_11
REMARK   10  A    between atoms: N_11  and  C_12
REMARK                            x       y       z     vdW  Elec       q    Type
REMARK                         _______ _______ _______ _____ _____    ______ ____
ROOT
ATOM      1  N   UNL     1       5.662   3.855  19.279  0.00  0.00    +0.000 NA
ATOM      2  H   UNL     1       6.245   3.240  19.844  0.00  0.00    +0.000 HD
ENDROOT
BRANCH   1   3
ATOM      3  C   UNL     1       4.263   3.832  19.760  0.00  0.00    +0.000 C 
ATOM      4  C   UNL     1       3.470   5.025  19.161  0.00  0.00    +0.000 C 
ATOM      5  C   UNL     1       3.255   4.845  17.642  0.00  0.00    +0.000 C 
ATOM      6  C   UNL     1       2.487   3.543  17.363  0.00  0.00    +0.000 C 
ATOM      7  C   UNL     1       1.115   3.613  18.054  0.00  0.00    +0.000 C 
ATOM      8  C   UNL     1       1.298   3.792  19.571  0.00  0.00    +0.000 C 
ATOM      9  C   UNL     1       2.085   5.084  19.842  0.00  0.00    +0.000 C 
ATOM     10  C   UNL     1       2.090   2.600  20.124  0.00  0.00    +0.000 C 
ATOM     11  C   UNL     1       3.473   2.523  19.449  0.00  0.00    +0.000 C 
ATOM     12  C   UNL     1       3.275   2.350  17.929  0.00  0.00    +0.000 C 
ENDBRANCH   1   3
BRANCH   1  13
ATOM     13  C   UNL     1       6.218   5.207  19.309  0.00  0.00    +0.000 C 
BRANCH  13  14
ATOM     14  C   UNL     1       7.499   5.349  18.481  0.00  0.00    +0.000 C 
BRANCH  14  15
ATOM     15  C   UNL     1       7.187   5.781  17.025  0.00  0.00    +0.000 C 
ATOM     16  C   UNL     1       6.147   6.904  17.029  0.00  0.00    +0.000 C 
BRANCH  15  17
ATOM     17  C   UNL     1       6.729   4.587  16.154  0.00  0.00    +0.000 C 
BRANCH  17  18
ATOM     18  C   UNL     1       5.784   4.985  15.016  0.00  0.00    +0.000 C 
BRANCH  18  22
ATOM     19  C   UNL     1       6.485   2.923  11.773  0.00  0.00    +0.000 C 
ATOM     20  C   UNL     1       6.618   3.989  12.825  0.00  0.00    +0.000 C 
ATOM     21  C   UNL     1       7.660   5.050  12.601  0.00  0.00    +0.000 C 
ATOM     22  C   UNL     1       5.814   3.970  13.907  0.00  0.00    +0.000 C 
ENDBRANCH  18  22
ENDBRANCH  17  18
ENDBRANCH  15  17
ENDBRANCH  14  15
ENDBRANCH  13  14
ENDBRANCH   1  13
TORSDOF 7
ENDMDL
MODEL 4
REMARK VINA RESULT:      -8.0      1.013      2.305
REMARK  Name = 
REMARK  10 active torsions:
REMARK  status: ('A' for Active; 'I' for Inactive)
REMARK    1  A    between atoms: C_1  and  C_2
REMARK    2  A    between atoms: C_2  and  C_3
REMARK    3  A    between atoms: C_4  and  C_5
REMARK    4  A    between atoms: C_5  and  C_6
REMARK    5  A    between atoms: C_6  and  C_7
REMARK    6  A    between atoms: C_7  and  C_8
REMARK    7  A    between atoms: C_7  and  C_9
REMARK    8  A    between atoms: C_9  and  C_10
REMARK    9  A    between atoms: C_10  and  N_11
REMARK   10  A    between atoms: N_11  and  C_12
REMARK                            x       y       z     vdW  Elec       q    Type
REMARK                         _______ _______ _______ _____ _____    ______ ____
ROOT
ATOM      1  N   UNL     1       5.101   4.055  19.303  0.00  0.00    +0.000 NA
ATOM      2  H   UNL     1       5.794   3.494  19.796  0.00  0.00    +0.000 HD
ENDROOT
BRANCH   1   3
ATOM      3  C   UNL     1       3.802   4.015  20.009  0.00  0.00    +0.000 C 
ATOM      4  C   UNL     1       2.711   4.728  19.165  0.00  0.00    +0.000 C 
ATOM      5  C   UNL     1       2.373   3.920  17.893  0.00  0.00    +0.000 C 
ATOM      6  C   UNL     1       1.875   2.515  18.271  0.00  0.00    +0.000 C 
ATOM      7  C   UNL     1       0.605   2.648  19.127  0.00  0.00    +0.000 C 
ATOM      8  C   UNL     1       0.912   3.449  20.403  0.00  0.00    +0.000 C 
ATOM      9  C   UNL     1       1.429   4.845  20.019  0.00  0.00    +0.000 C 
ATOM     10  C   UNL     1       1.997   2.718  21.205  0.00  0.00    +0.000 C 
ATOM     11  C   UNL     1       3.281   2.587  20.364  0.00  0.00    +0.000 C 
ATOM     12  C   UNL     1       2.958   1.788  19.085  0.00  0.00    +0.000 C 
ENDBRANCH   1   3
BRANCH   1  13
ATOM     13  C   UNL     1       5.597   5.424  19.169  0.00  0.00    +0.000 C 
BRANCH  13  14
ATOM     14  C   UNL     1       5.553   5.942  17.728  0.00  0.00    +0.000 C 
BRANCH  14  15
ATOM     15  C   UNL     1       6.034   4.863  16.723  0.00  0.00    +0.000 C 
ATOM     16  C   UNL     1       7.507   4.536  16.981  0.00  0.00    +0.000 C 
BRANCH  15  17
ATOM     17  C   UNL     1       5.797   5.293  15.256  0.00  0.00    +0.000 C 
BRANCH  17  18
ATOM     18  C   UNL     1       6.305   4.278  14.229  0.00  0.00    +0.000 C 
BRANCH  18  22
ATOM     19  C   UNL     1       4.215   3.041  11.170  0.00  0.00    +0.000 C 
ATOM     20  C   UNL     1       5.397   3.285  12.067  0.00  0.00    +0.000 C 
ATOM     21  C   UNL     1       6.738   2.812  11.580  0.00  0.00    +0.000 C 
ATOM     22  C   UNL     1       5.226   3.913  13.247  0.00  0.00    +0.000 C 
ENDBRANCH  18  22
ENDBRANCH  17  18
ENDBRANCH  15  17
ENDBRANCH  14  15
ENDBRANCH  13  14
ENDBRANCH   1  13
TORSDOF 7
ENDMDL
MODEL 5
REMARK VINA RESULT:      -8.0      1.007      2.207
REMARK  Name = 
REMARK  10 active torsions:
REMARK  status: ('A' for Active; 'I' for Inactive)
REMARK    1  A    between atoms: C_1  and  C_2
REMARK    2  A    between atoms: C_2  and  C_3
REMARK    3  A    between atoms: C_4  and  C_5
REMARK    4  A    between atoms: C_5  and  C_6
REMARK    5  A    between atoms: C_6  and  C_7
REMARK    6  A    between atoms: C_7  and  C_8
REMARK    7  A    between atoms: C_7  and  C_9
REMARK    8  A    between atoms: C_9  and  C_10
REMARK    9  A    between atoms: C_10  and  N_11
REMARK   10  A    between atoms: N_11  and  C_12
REMARK                            x       y       z     vdW  Elec       q    Type
REMARK                         _______ _______ _______ _____ _____    ______ ____
ROOT
ATOM      1  N   UNL     1       4.698   5.027  19.016  0.00  0.00    +0.000 NA
ATOM      2  H   UNL     1       5.417   5.381  19.645  0.00  0.00    +0.000 HD
ENDROOT
BRANCH   1   3
ATOM      3  C   UNL     1       3.544   4.507  19.783  0.00  0.00    +0.000 C 
ATOM      4  C   UNL     1       2.216   4.870  19.066  0.00  0.00    +0.000 C 
ATOM      5  C   UNL     1       2.062   4.083  17.746  0.00  0.00    +0.000 C 
ATOM      6  C   UNL     1       2.085   2.571  18.022  0.00  0.00    +0.000 C 
ATOM      7  C   UNL     1       0.915   2.214  18.953  0.00  0.00    +0.000 C 
ATOM      8  C   UNL     1       1.042   2.985  20.278  0.00  0.00    +0.000 C 
ATOM      9  C   UNL     1       1.040   4.495  19.993  0.00  0.00    +0.000 C 
ATOM     10  C   UNL     1       2.368   2.605  20.952  0.00  0.00    +0.000 C 
ATOM     11  C   UNL     1       3.552   2.968  20.036  0.00  0.00    +0.000 C 
ATOM     12  C   UNL     1       3.408   2.195  18.710  0.00  0.00    +0.000 C 
ENDBRANCH   1   3
BRANCH   1  13
ATOM     13  C   UNL     1       4.297   6.090  18.096  0.00  0.00    +0.000 C 
BRANCH  13  14
ATOM     14  C   UNL     1       4.864   5.911  16.685  0.00  0.00    +0.000 C 
BRANCH  14  15
ATOM     15  C   UNL     1       5.673   4.594  16.562  0.00  0.00    +0.000 C 
ATOM     16  C   UNL     1       7.172   4.905  16.553  0.00  0.00    +0.000 C 
BRANCH  15  17
ATOM     17  C   UNL     1       5.257   3.775  15.317  0.00  0.00    +0.000 C 
BRANCH  17  18
ATOM     18  C   UNL     1       5.637   4.439  13.991  0.00  0.00    +0.000 C 
BRANCH  18  22
ATOM     19  C   UNL     1       6.479   1.882  11.160  0.00  0.00    +0.000 C 
ATOM     20  C   UNL     1       5.716   2.898  11.965  0.00  0.00    +0.000 C 
ATOM     21  C   UNL     1       4.326   3.238  11.502  0.00  0.00    +0.000 C 
ATOM     22  C   UNL     1       6.281   3.453  13.055  0.00  0.00    +0.000 C 
ENDBRANCH  18  22
ENDBRANCH  17  18
ENDBRANCH  15  17
ENDBRANCH  14  15
ENDBRANCH  13  14
ENDBRANCH   1  13
TORSDOF 7
ENDMDL
MODEL 6
REMARK VINA RESULT:      -7.9      2.360      6.577
REMARK  Name = 
REMARK  10 active torsions:
REMARK  status: ('A' for Active; 'I' for Inactive)
REMARK    1  A    between atoms: C_1  and  C_2
REMARK    2  A    between atoms: C_2  and  C_3
REMARK    3  A    between atoms: C_4  and  C_5
REMARK    4  A    between atoms: C_5  and  C_6
REMARK    5  A    between atoms: C_6  and  C_7
REMARK    6  A    between atoms: C_7  and  C_8
REMARK    7  A    between atoms: C_7  and  C_9
REMARK    8  A    between atoms: C_9  and  C_10
REMARK    9  A    between atoms: C_10  and  N_11
REMARK   10  A    between atoms: N_11  and  C_12
REMARK                            x       y       z     vdW  Elec       q    Type
REMARK                         _______ _______ _______ _____ _____    ______ ____
ROOT
ATOM      1  N   UNL     1       5.271   2.947  19.178  0.00  0.00    +0.000 NA
ATOM      2  H   UNL     1       5.946   2.392  18.654  0.00  0.00    +0.000 HD
ENDROOT
BRANCH   1   3
ATOM      3  C   UNL     1       5.126   4.292  18.579  0.00  0.00    +0.000 C 
ATOM      4  C   UNL     1       6.469   5.065  18.665  0.00  0.00    +0.000 C 
ATOM      5  C   UNL     1       7.530   4.447  17.729  0.00  0.00    +0.000 C 
ATOM      6  C   UNL     1       7.033   4.468  16.274  0.00  0.00    +0.000 C 
ATOM      7  C   UNL     1       6.784   5.925  15.850  0.00  0.00    +0.000 C 
ATOM      8  C   UNL     1       5.731   6.568  16.767  0.00  0.00    +0.000 C 
ATOM      9  C   UNL     1       6.224   6.525  18.222  0.00  0.00    +0.000 C 
ATOM     10  C   UNL     1       4.422   5.773  16.660  0.00  0.00    +0.000 C 
ATOM     11  C   UNL     1       4.652   4.312  17.093  0.00  0.00    +0.000 C 
ATOM     12  C   UNL     1       5.715   3.682  16.170  0.00  0.00    +0.000 C 
ENDBRANCH   1   3
BRANCH   1  13
ATOM     13  C   UNL     1       3.994   2.237  19.221  0.00  0.00    +0.000 C 
BRANCH  13  14
ATOM     14  C   UNL     1       3.116   2.650  20.407  0.00  0.00    +0.000 C 
BRANCH  14  15
ATOM     15  C   UNL     1       1.643   2.867  19.973  0.00  0.00    +0.000 C 
ATOM     16  C   UNL     1       1.521   2.704  18.456  0.00  0.00    +0.000 C 
BRANCH  15  17
ATOM     17  C   UNL     1       1.100   4.238  20.441  0.00  0.00    +0.000 C 
BRANCH  17  18
ATOM     18  C   UNL     1       2.198   5.261  20.748  0.00  0.00    +0.000 C 
BRANCH  18  22
ATOM     19  C   UNL     1       2.263   8.320  18.319  0.00  0.00    +0.000 C 
ATOM     20  C   UNL     1       2.053   7.515  19.572  0.00  0.00    +0.000 C 
ATOM     21  C   UNL     1       1.452   8.227  20.753  0.00  0.00    +0.000 C 
ATOM     22  C   UNL     1       2.391   6.211  19.598  0.00  0.00    +0.000 C 
ENDBRANCH  18  22
ENDBRANCH  17  18
ENDBRANCH  15  17
ENDBRANCH  14  15
ENDBRANCH  13  14
ENDBRANCH   1  13
TORSDOF 7
ENDMDL
MODEL 7
REMARK VINA RESULT:      -7.8      0.758      1.066
REMARK  Name = 
REMARK  10 active torsions:
REMARK  status: ('A' for Active; 'I' for Inactive)
REMARK    1  A    between atoms: C_1  and  C_2
REMARK    2  A    between atoms: C_2  and  C_3
REMARK    3  A    between atoms: C_4  and  C_5
REMARK    4  A    between atoms: C_5  and  C_6
REMARK    5  A    between atoms: C_6  and  C_7
REMARK    6  A    between atoms: C_7  and  C_8
REMARK    7  A    between atoms: C_7  and  C_9
REMARK    8  A    between atoms: C_9  and  C_10
REMARK    9  A    between atoms: C_10  and  N_11
REMARK   10  A    between atoms: N_11  and  C_12
REMARK                            x       y       z     vdW  Elec       q    Type
REMARK                         _______ _______ _______ _____ _____    ______ ____
ROOT
ATOM      1  N   UNL     1       5.379   3.444  19.145  0.00  0.00    +0.000 NA
ATOM      2  H   UNL     1       5.405   3.441  20.163  0.00  0.00    +0.000 HD
ENDROOT
BRANCH   1   3
ATOM      3  C   UNL     1       3.987   3.314  18.659  0.00  0.00    +0.000 C 
ATOM      4  C   UNL     1       3.220   2.261  19.502  0.00  0.00    +0.000 C 
ATOM      5  C   UNL     1       2.976   2.768  20.940  0.00  0.00    +0.000 C 
ATOM      6  C   UNL     1       2.166   4.074  20.914  0.00  0.00    +0.000 C 
ATOM      7  C   UNL     1       0.808   3.808  20.243  0.00  0.00    +0.000 C 
ATOM      8  C   UNL     1       1.020   3.300  18.808  0.00  0.00    +0.000 C 
ATOM      9  C   UNL     1       1.849   2.006  18.839  0.00  0.00    +0.000 C 
ATOM     10  C   UNL     1       1.786   4.364  18.009  0.00  0.00    +0.000 C 
ATOM     11  C   UNL     1       3.155   4.634  18.662  0.00  0.00    +0.000 C 
ATOM     12  C   UNL     1       2.928   5.135  20.102  0.00  0.00    +0.000 C 
ENDBRANCH   1   3
BRANCH   1  13
ATOM     13  C   UNL     1       6.009   4.667  18.650  0.00  0.00    +0.000 C 
BRANCH  13  14
ATOM     14  C   UNL     1       6.964   4.420  17.478  0.00  0.00    +0.000 C 
BRANCH  14  15
ATOM     15  C   UNL     1       7.066   5.663  16.558  0.00  0.00    +0.000 C 
ATOM     16  C   UNL     1       5.919   6.630  16.865  0.00  0.00    +0.000 C 
BRANCH  15  17
ATOM     17  C   UNL     1       7.093   5.274  15.061  0.00  0.00    +0.000 C 
BRANCH  17  18
ATOM     18  C   UNL     1       5.702   5.061  14.457  0.00  0.00    +0.000 C 
BRANCH  18  22
ATOM     19  C   UNL     1       6.117   2.311  11.713  0.00  0.00    +0.000 C 
ATOM     20  C   UNL     1       6.310   3.603  12.459  0.00  0.00    +0.000 C 
ATOM     21  C   UNL     1       7.234   4.619  11.847  0.00  0.00    +0.000 C 
ATOM     22  C   UNL     1       5.659   3.812  13.620  0.00  0.00    +0.000 C 
ENDBRANCH  18  22
ENDBRANCH  17  18
ENDBRANCH  15  17
ENDBRANCH  14  15
ENDBRANCH  13  14
ENDBRANCH   1  13
TORSDOF 7
ENDMDL
MODEL 8
REMARK VINA RESULT:      -7.7      3.202      5.800
REMARK  Name = 
REMARK  10 active torsions:
REMARK  status: ('A' for Active; 'I' for Inactive)
REMARK    1  A    between atoms: C_1  and  C_2
REMARK    2  A    between atoms: C_2  and  C_3
REMARK    3  A    between atoms: C_4  and  C_5
REMARK    4  A    between atoms: C_5  and  C_6
REMARK    5  A    between atoms: C_6  and  C_7
REMARK    6  A    between atoms: C_7  and  C_8
REMARK    7  A    between atoms: C_7  and  C_9
REMARK    8  A    between atoms: C_9  and  C_10
REMARK    9  A    between atoms: C_10  and  N_11
REMARK   10  A    between atoms: N_11  and  C_12
REMARK                            x       y       z     vdW  Elec       q    Type
REMARK                         _______ _______ _______ _____ _____    ______ ____
ROOT
ATOM      1  N   UNL     1       5.068   3.507  18.129  0.00  0.00    +0.000 NA
ATOM      2  H   UNL     1       5.917   3.162  18.573  0.00  0.00    +0.000 HD
ENDROOT
BRANCH   1   3
ATOM      3  C   UNL     1       4.067   3.893  19.147  0.00  0.00    +0.000 C 
ATOM      4  C   UNL     1       2.861   4.600  18.474  0.00  0.00    +0.000 C 
ATOM      5  C   UNL     1       2.037   3.608  17.623  0.00  0.00    +0.000 C 
ATOM      6  C   UNL     1       1.517   2.458  18.500  0.00  0.00    +0.000 C 
ATOM      7  C   UNL     1       0.614   3.037  19.601  0.00  0.00    +0.000 C 
ATOM      8  C   UNL     1       1.408   4.030  20.466  0.00  0.00    +0.000 C 
ATOM      9  C   UNL     1       1.943   5.166  19.580  0.00  0.00    +0.000 C 
ATOM     10  C   UNL     1       2.594   3.297  21.108  0.00  0.00    +0.000 C 
ATOM     11  C   UNL     1       3.516   2.720  20.016  0.00  0.00    +0.000 C 
ATOM     12  C   UNL     1       2.705   1.733  19.153  0.00  0.00    +0.000 C 
ENDBRANCH   1   3
BRANCH   1  13
ATOM     13  C   UNL     1       5.404   4.629  17.254  0.00  0.00    +0.000 C 
BRANCH  13  14
ATOM     14  C   UNL     1       5.791   5.897  18.022  0.00  0.00    +0.000 C 
BRANCH  14  15
ATOM     15  C   UNL     1       7.311   6.183  17.915  0.00  0.00    +0.000 C 
ATOM     16  C   UNL     1       7.989   5.888  19.255  0.00  0.00    +0.000 C 
BRANCH  15  17
ATOM     17  C   UNL     1       7.595   7.628  17.442  0.00  0.00    +0.000 C 
BRANCH  17  18
ATOM     18  C   UNL     1       8.420   8.448  18.438  0.00  0.00    +0.000 C 
BRANCH  18  22
ATOM     19  C   UNL     1       9.227  12.248  18.024  0.00  0.00    +0.000 C 
ATOM     20  C   UNL     1       9.138  10.882  18.648  0.00  0.00    +0.000 C 
ATOM     21  C   UNL     1       9.629  10.740  20.062  0.00  0.00    +0.000 C 
ATOM     22  C   UNL     1       8.625   9.854  17.944  0.00  0.00    +0.000 C 
ENDBRANCH  18  22
ENDBRANCH  17  18
ENDBRANCH  15  17
ENDBRANCH  14  15
ENDBRANCH  13  14
ENDBRANCH   1  13
TORSDOF 7
ENDMDL
MODEL 9
REMARK VINA RESULT:      -7.7      1.027      2.146
REMARK  Name = 
REMARK  10 active torsions:
REMARK  status: ('A' for Active; 'I' for Inactive)
REMARK    1  A    between atoms: C_1  and  C_2
REMARK    2  A    between atoms: C_2  and  C_3
REMARK    3  A    between atoms: C_4  and  C_5
REMARK    4  A    between atoms: C_5  and  C_6
REMARK    5  A    between atoms: C_6  and  C_7
REMARK    6  A    between atoms: C_7  and  C_8
REMARK    7  A    between atoms: C_7  and  C_9
REMARK    8  A    between atoms: C_9  and  C_10
REMARK    9  A    between atoms: C_10  and  N_11
REMARK   10  A    between atoms: N_11  and  C_12
REMARK                            x       y       z     vdW  Elec       q    Type
REMARK                         _______ _______ _______ _____ _____    ______ ____
ROOT
ATOM      1  N   UNL     1       4.637   5.447  19.054  0.00  0.00    +0.000 NA
ATOM      2  H   UNL     1       4.966   5.593  20.007  0.00  0.00    +0.000 HD
ENDROOT
BRANCH   1   3
ATOM      3  C   UNL     1       3.225   5.006  19.052  0.00  0.00    +0.000 C 
ATOM      4  C   UNL     1       2.900   4.255  17.733  0.00  0.00    +0.000 C 
ATOM      5  C   UNL     1       3.626   2.893  17.673  0.00  0.00    +0.000 C 
ATOM      6  C   UNL     1       3.211   2.015  18.865  0.00  0.00    +0.000 C 
ATOM      7  C   UNL     1       1.694   1.772  18.804  0.00  0.00    +0.000 C 
ATOM      8  C   UNL     1       0.943   3.113  18.861  0.00  0.00    +0.000 C 
ATOM      9  C   UNL     1       1.378   3.994  17.680  0.00  0.00    +0.000 C 
ATOM     10  C   UNL     1       1.295   3.828  20.173  0.00  0.00    +0.000 C 
ATOM     11  C   UNL     1       2.812   4.089  20.245  0.00  0.00    +0.000 C 
ATOM     12  C   UNL     1       3.552   2.738  20.179  0.00  0.00    +0.000 C 
ENDBRANCH   1   3
BRANCH   1  13
ATOM     13  C   UNL     1       4.816   6.680  18.289  0.00  0.00    +0.000 C 
BRANCH  13  14
ATOM     14  C   UNL     1       6.034   6.640  17.360  0.00  0.00    +0.000 C 
BRANCH  14  15
ATOM     15  C   UNL     1       6.265   5.218  16.788  0.00  0.00    +0.000 C 
ATOM     16  C   UNL     1       7.580   4.649  17.329  0.00  0.00    +0.000 C 
BRANCH  15  17
ATOM     17  C   UNL     1       6.237   5.205  15.242  0.00  0.00    +0.000 C 
BRANCH  17  18
ATOM     18  C   UNL     1       6.282   3.799  14.638  0.00  0.00    +0.000 C 
BRANCH  18  22
ATOM     19  C   UNL     1       4.350   3.264  11.285  0.00  0.00    +0.000 C 
ATOM     20  C   UNL     1       5.491   3.332  12.263  0.00  0.00    +0.000 C 
ATOM     21  C   UNL     1       6.870   3.057  11.730  0.00  0.00    +0.000 C 
ATOM     22  C   UNL     1       5.253   3.640  13.553  0.00  0.00    +0.000 C 
ENDBRANCH  18  22
ENDBRANCH  17  18
ENDBRANCH  15  17
ENDBRANCH  14  15
ENDBRANCH  13  14
ENDBRANCH   1  13
TORSDOF 7
ENDMDL
