MODEL 1
REMARK VINA RESULT:      -7.7      0.000      0.000
REMARK  Name = 
REMARK  7 active torsions:
REMARK  status: ('A' for Active; 'I' for Inactive)
REMARK    1  A    between atoms: C_1  and  C_2
REMARK    2  A    between atoms: C_2  and  C_3
REMARK    3  A    between atoms: C_2  and  N_4
REMARK    4  A    between atoms: C_8  and  C_10
REMARK    5  A    between atoms: C_10  and  C_11
REMARK    6  A    between atoms: C_10  and  C_18
REMARK    7  A    between atoms: C_11  and  C_12
REMARK                            x       y       z     vdW  Elec       q    Type
REMARK                         _______ _______ _______ _____ _____    ______ ____
ROOT
ATOM      1  C   UNL     1       2.964   6.631  18.579  0.00  0.00    +0.000 C 
ENDROOT
BRANCH   1   6
ATOM      2  N   UNL     1       0.898  10.592  21.492  0.00  0.00    +0.000 NA
ATOM      3  C   UNL     1       1.473   9.253  21.783  0.00  0.00    +0.000 C 
ATOM      4  C   UNL     1       1.366   8.174  20.666  0.00  0.00    +0.000 C 
ATOM      5  N   UNL     1       1.685   8.691  19.329  0.00  0.00    +0.000 N 
ATOM      6  C   UNL     1       2.344   8.018  18.297  0.00  0.00    +0.000 C 
ATOM      7  O   UNL     1       2.496   8.551  17.192  0.00  0.00    +0.000 OA
ATOM      8  C   UNL     1       1.071   9.989  19.040  0.00  0.00    +0.000 C 
ATOM      9  C   UNL     1       1.395  10.999  20.154  0.00  0.00    +0.000 C 
BRANCH   2  11
ATOM     10  C   UNL     1      -1.003  10.516  23.120  0.00  0.00    +0.000 C 
ATOM     11  C   UNL     1      -0.574  10.678  21.651  0.00  0.00    +0.000 C 
ATOM     12  C   UNL     1      -1.144  12.036  21.190  0.00  0.00    +0.000 C 
ENDBRANCH   2  11
ENDBRANCH   1   6
BRANCH   1  13
ATOM     13  C   UNL     1       4.222   6.430  17.729  0.00  0.00    +0.000 A 
ATOM     14  C   UNL     1       5.341   7.251  17.914  0.00  0.00    +0.000 A 
ATOM     15  C   UNL     1       6.513   7.028  17.183  0.00  0.00    +0.000 A 
ATOM     16  C   UNL     1       6.579   5.976  16.269  0.00  0.00    +0.000 A 
ATOM     17  C   UNL     1       5.476   5.151  16.078  0.00  0.00    +0.000 A 
ATOM     18  C   UNL     1       4.302   5.379  16.798  0.00  0.00    +0.000 A 
ENDBRANCH   1  13
BRANCH   1  19
ATOM     19  C   UNL     1       2.001   5.450  18.275  0.00  0.00    +0.000 C 
BRANCH  19  20
ATOM     20  C   UNL     1       1.877   4.426  19.377  0.00  0.00    +0.000 A 
ATOM     21  C   UNL     1       1.245   3.201  19.117  0.00  0.00    +0.000 A 
ATOM     22  C   UNL     1       1.068   2.261  20.130  0.00  0.00    +0.000 A 
ATOM     23  C   UNL     1       1.533   2.530  21.414  0.00  0.00    +0.000 A 
ATOM     24  C   UNL     1       2.198   3.727  21.677  0.00  0.00    +0.000 A 
ATOM     25  C   UNL     1       2.373   4.671  20.662  0.00  0.00    +0.000 A 
ENDBRANCH  19  20
ENDBRANCH   1  19
TORSDOF 5
ENDMDL
MODEL 2
REMARK VINA RESULT:      -7.7      2.659      7.319
REMARK  Name = 
REMARK  7 active torsions:
REMARK  status: ('A' for Active; 'I' for Inactive)
REMARK    1  A    between atoms: C_1  and  C_2
REMARK    2  A    between atoms: C_2  and  C_3
REMARK    3  A    between atoms: C_2  and  N_4
REMARK    4  A    between atoms: C_8  and  C_10
REMARK    5  A    between atoms: C_10  and  C_11
REMARK    6  A    between atoms: C_10  and  C_18
REMARK    7  A    between atoms: C_11  and  C_12
REMARK                            x       y       z     vdW  Elec       q    Type
REMARK                         _______ _______ _______ _____ _____    ______ ____
ROOT
ATOM      1  C   UNL     1       3.692   5.753  19.399  0.00  0.00    +0.000 C 
ENDROOT
BRANCH   1   6
ATOM      2  N   UNL     1       6.735   5.664  15.020  0.00  0.00    +0.000 NA
ATOM      3  C   UNL     1       5.380   6.173  15.357  0.00  0.00    +0.000 C 
ATOM      4  C   UNL     1       4.617   5.458  16.510  0.00  0.00    +0.000 C 
ATOM      5  N   UNL     1       5.463   5.174  17.676  0.00  0.00    +0.000 N 
ATOM      6  C   UNL     1       5.090   5.213  19.022  0.00  0.00    +0.000 C 
ATOM      7  O   UNL     1       5.889   4.890  19.908  0.00  0.00    +0.000 OA
ATOM      8  C   UNL     1       6.777   4.627  17.328  0.00  0.00    +0.000 C 
ATOM      9  C   UNL     1       7.480   5.525  16.296  0.00  0.00    +0.000 C 
BRANCH   2  11
ATOM     10  C   UNL     1       5.318   4.008  13.787  0.00  0.00    +0.000 C 
ATOM     11  C   UNL     1       6.742   4.448  14.172  0.00  0.00    +0.000 C 
ATOM     12  C   UNL     1       7.496   4.654  12.841  0.00  0.00    +0.000 C 
ENDBRANCH   2  11
ENDBRANCH   1   6
BRANCH   1  13
ATOM     13  C   UNL     1       2.707   4.595  19.578  0.00  0.00    +0.000 A 
ATOM     14  C   UNL     1       2.343   4.166  20.860  0.00  0.00    +0.000 A 
ATOM     15  C   UNL     1       1.395   3.150  21.025  0.00  0.00    +0.000 A 
ATOM     16  C   UNL     1       0.795   2.563  19.909  0.00  0.00    +0.000 A 
ATOM     17  C   UNL     1       1.145   2.983  18.630  0.00  0.00    +0.000 A 
ATOM     18  C   UNL     1       2.099   3.988  18.464  0.00  0.00    +0.000 A 
ENDBRANCH   1  13
BRANCH   1  19
ATOM     19  C   UNL     1       3.095   6.717  18.336  0.00  0.00    +0.000 C 
BRANCH  19  20
ATOM     20  C   UNL     1       2.209   7.808  18.887  0.00  0.00    +0.000 A 
ATOM     21  C   UNL     1       1.779   8.844  18.045  0.00  0.00    +0.000 A 
ATOM     22  C   UNL     1       1.007   9.891  18.542  0.00  0.00    +0.000 A 
ATOM     23  C   UNL     1       0.645   9.910  19.886  0.00  0.00    +0.000 A 
ATOM     24  C   UNL     1       1.032   8.866  20.725  0.00  0.00    +0.000 A 
ATOM     25  C   UNL     1       1.808   7.816  20.228  0.00  0.00    +0.000 A 
ENDBRANCH  19  20
ENDBRANCH   1  19
TORSDOF 5
ENDMDL
MODEL 3
REMARK VINA RESULT:      -7.7      2.635      7.351
REMARK  Name = 
REMARK  7 active torsions:
REMARK  status: ('A' for Active; 'I' for Inactive)
REMARK    1  A    between atoms: C_1  and  C_2
REMARK    2  A    between atoms: C_2  and  C_3
REMARK    3  A    between atoms: C_2  and  N_4
REMARK    4  A    between atoms: C_8  and  C_10
REMARK    5  A    between atoms: C_10  and  C_11
REMARK    6  A    between atoms: C_10  and  C_18
REMARK    7  A    between atoms: C_11  and  C_12
REMARK                            x       y       z     vdW  Elec       q    Type
REMARK                         _______ _______ _______ _____ _____    ______ ____
ROOT
ATOM      1  C   UNL     1       3.583   5.763  19.396  0.00  0.00    +0.000 C 
ENDROOT
BRANCH   1   6
ATOM      2  N   UNL     1       6.746   5.726  15.102  0.00  0.00    +0.000 NA
ATOM      3  C   UNL     1       5.388   6.243  15.412  0.00  0.00    +0.000 C 
ATOM      4  C   UNL     1       4.585   5.514  16.529  0.00  0.00    +0.000 C 
ATOM      5  N   UNL     1       5.396   5.197  17.712  0.00  0.00    +0.000 N 
ATOM      6  C   UNL     1       4.986   5.214  19.047  0.00  0.00    +0.000 C 
ATOM      7  O   UNL     1       5.756   4.865  19.948  0.00  0.00    +0.000 OA
ATOM      8  C   UNL     1       6.713   4.643  17.390  0.00  0.00    +0.000 C 
ATOM      9  C   UNL     1       7.453   5.554  16.395  0.00  0.00    +0.000 C 
BRANCH   2  11
ATOM     10  C   UNL     1       5.344   4.078  13.842  0.00  0.00    +0.000 C 
ATOM     11  C   UNL     1       6.764   4.527  14.230  0.00  0.00    +0.000 C 
ATOM     12  C   UNL     1       7.510   4.767  12.901  0.00  0.00    +0.000 C 
ENDBRANCH   2  11
ENDBRANCH   1   6
BRANCH   1  13
ATOM     13  C   UNL     1       2.590   4.609  19.564  0.00  0.00    +0.000 A 
ATOM     14  C   UNL     1       2.048   3.971  18.442  0.00  0.00    +0.000 A 
ATOM     15  C   UNL     1       1.190   2.877  18.593  0.00  0.00    +0.000 A 
ATOM     16  C   UNL     1       0.874   2.405  19.868  0.00  0.00    +0.000 A 
ATOM     17  C   UNL     1       1.408   3.027  20.992  0.00  0.00    +0.000 A 
ATOM     18  C   UNL     1       2.256   4.127  20.843  0.00  0.00    +0.000 A 
ENDBRANCH   1  13
BRANCH   1  19
ATOM     19  C   UNL     1       3.009   6.721  18.317  0.00  0.00    +0.000 C 
BRANCH  19  20
ATOM     20  C   UNL     1       2.186   7.868  18.852  0.00  0.00    +0.000 A 
ATOM     21  C   UNL     1       1.811   7.881  20.204  0.00  0.00    +0.000 A 
ATOM     22  C   UNL     1       1.006   8.898  20.711  0.00  0.00    +0.000 A 
ATOM     23  C   UNL     1       0.574   9.923  19.873  0.00  0.00    +0.000 A 
ATOM     24  C   UNL     1       0.972   9.944  18.537  0.00  0.00    +0.000 A 
ATOM     25  C   UNL     1       1.778   8.922  18.027  0.00  0.00    +0.000 A 
ENDBRANCH  19  20
ENDBRANCH   1  19
TORSDOF 5
ENDMDL
MODEL 4
REMARK VINA RESULT:      -7.6      0.081      1.367
REMARK  Name = 
REMARK  7 active torsions:
REMARK  status: ('A' for Active; 'I' for Inactive)
REMARK    1  A    between atoms: C_1  and  C_2
REMARK    2  A    between atoms: C_2  and  C_3
REMARK    3  A    between atoms: C_2  and  N_4
REMARK    4  A    between atoms: C_8  and  C_10
REMARK    5  A    between atoms: C_10  and  C_11
REMARK    6  A    between atoms: C_10  and  C_18
REMARK    7  A    between atoms: C_11  and  C_12
REMARK                            x       y       z     vdW  Elec       q    Type
REMARK                         _______ _______ _______ _____ _____    ______ ____
ROOT
ATOM      1  C   UNL     1       2.955   6.587  18.571  0.00  0.00    +0.000 C 
ENDROOT
BRANCH   1   6
ATOM      2  N   UNL     1       0.915  10.576  21.465  0.00  0.00    +0.000 NA
ATOM      3  C   UNL     1       1.461   9.226  21.760  0.00  0.00    +0.000 C 
ATOM      4  C   UNL     1       1.352   8.152  20.638  0.00  0.00    +0.000 C 
ATOM      5  N   UNL     1       1.702   8.668  19.307  0.00  0.00    +0.000 N 
ATOM      6  C   UNL     1       2.365   7.986  18.284  0.00  0.00    +0.000 C 
ATOM      7  O   UNL     1       2.543   8.520  17.183  0.00  0.00    +0.000 OA
ATOM      8  C   UNL     1       1.116   9.978  19.013  0.00  0.00    +0.000 C 
ATOM      9  C   UNL     1       1.440  10.978  20.136  0.00  0.00    +0.000 C 
BRANCH   2  11
ATOM     10  C   UNL     1      -1.010  10.560  23.066  0.00  0.00    +0.000 C 
ATOM     11  C   UNL     1      -0.557  10.688  21.600  0.00  0.00    +0.000 C 
ATOM     12  C   UNL     1      -1.099  12.047  21.107  0.00  0.00    +0.000 C 
ENDBRANCH   2  11
ENDBRANCH   1   6
BRANCH   1  13
ATOM     13  C   UNL     1       4.238   6.377  17.761  0.00  0.00    +0.000 A 
ATOM     14  C   UNL     1       4.292   5.397  16.762  0.00  0.00    +0.000 A 
ATOM     15  C   UNL     1       5.442   5.246  15.979  0.00  0.00    +0.000 A 
ATOM     16  C   UNL     1       6.543   6.081  16.182  0.00  0.00    +0.000 A 
ATOM     17  C   UNL     1       6.500   7.060  17.169  0.00  0.00    +0.000 A 
ATOM     18  C   UNL     1       5.358   7.204  17.959  0.00  0.00    +0.000 A 
ENDBRANCH   1  13
BRANCH   1  19
ATOM     19  C   UNL     1       1.985   5.424  18.221  0.00  0.00    +0.000 C 
BRANCH  19  20
ATOM     20  C   UNL     1       1.808   4.391  19.308  0.00  0.00    +0.000 A 
ATOM     21  C   UNL     1       2.240   4.674  20.612  0.00  0.00    +0.000 A 
ATOM     22  C   UNL     1       2.138   3.718  21.620  0.00  0.00    +0.000 A 
ATOM     23  C   UNL     1       1.592   2.469  21.338  0.00  0.00    +0.000 A 
ATOM     24  C   UNL     1       1.121   2.188  20.056  0.00  0.00    +0.000 A 
ATOM     25  C   UNL     1       1.225   3.146  19.044  0.00  0.00    +0.000 A 
ENDBRANCH  19  20
ENDBRANCH   1  19
TORSDOF 5
ENDMDL
MODEL 5
REMARK VINA RESULT:      -7.5      1.828      4.641
REMARK  Name = 
REMARK  7 active torsions:
REMARK  status: ('A' for Active; 'I' for Inactive)
REMARK    1  A    between atoms: C_1  and  C_2
REMARK    2  A    between atoms: C_2  and  C_3
REMARK    3  A    between atoms: C_2  and  N_4
REMARK    4  A    between atoms: C_8  and  C_10
REMARK    5  A    between atoms: C_10  and  C_11
REMARK    6  A    between atoms: C_10  and  C_18
REMARK    7  A    between atoms: C_11  and  C_12
REMARK                            x       y       z     vdW  Elec       q    Type
REMARK                         _______ _______ _______ _____ _____    ______ ____
ROOT
ATOM      1  C   UNL     1       2.936   5.967  18.742  0.00  0.00    +0.000 C 
ENDROOT
BRANCH   1   6
ATOM      2  N   UNL     1       0.601  10.762  18.791  0.00  0.00    +0.000 NA
ATOM      3  C   UNL     1       1.353   9.962  17.790  0.00  0.00    +0.000 C 
ATOM      4  C   UNL     1       2.394   8.938  18.333  0.00  0.00    +0.000 C 
ATOM      5  N   UNL     1       1.901   8.164  19.480  0.00  0.00    +0.000 N 
ATOM      6  C   UNL     1       2.169   6.825  19.774  0.00  0.00    +0.000 C 
ATOM      7  O   UNL     1       1.738   6.308  20.810  0.00  0.00    +0.000 OA
ATOM      8  C   UNL     1       1.204   8.976  20.480  0.00  0.00    +0.000 C 
ATOM      9  C   UNL     1       0.098   9.816  19.819  0.00  0.00    +0.000 C 
BRANCH   2  11
ATOM     10  C   UNL     1       2.213  12.605  18.266  0.00  0.00    +0.000 C 
ATOM     11  C   UNL     1       1.346  11.921  19.339  0.00  0.00    +0.000 C 
ATOM     12  C   UNL     1       0.415  13.020  19.894  0.00  0.00    +0.000 C 
ENDBRANCH   2  11
ENDBRANCH   1   6
BRANCH   1  13
ATOM     13  C   UNL     1       2.563   4.490  18.898  0.00  0.00    +0.000 A 
ATOM     14  C   UNL     1       3.314   3.654  19.733  0.00  0.00    +0.000 A 
ATOM     15  C   UNL     1       2.937   2.321  19.925  0.00  0.00    +0.000 A 
ATOM     16  C   UNL     1       1.799   1.815  19.294  0.00  0.00    +0.000 A 
ATOM     17  C   UNL     1       1.042   2.636  18.465  0.00  0.00    +0.000 A 
ATOM     18  C   UNL     1       1.423   3.964  18.262  0.00  0.00    +0.000 A 
ENDBRANCH   1  13
BRANCH   1  19
ATOM     19  C   UNL     1       4.480   6.076  18.875  0.00  0.00    +0.000 C 
BRANCH  19  20
ATOM     20  C   UNL     1       5.260   5.637  17.659  0.00  0.00    +0.000 A 
ATOM     21  C   UNL     1       6.429   4.880  17.821  0.00  0.00    +0.000 A 
ATOM     22  C   UNL     1       7.196   4.509  16.719  0.00  0.00    +0.000 A 
ATOM     23  C   UNL     1       6.797   4.882  15.439  0.00  0.00    +0.000 A 
ATOM     24  C   UNL     1       5.615   5.600  15.260  0.00  0.00    +0.000 A 
ATOM     25  C   UNL     1       4.846   5.974  16.365  0.00  0.00    +0.000 A 
ENDBRANCH  19  20
ENDBRANCH   1  19
TORSDOF 5
ENDMDL
MODEL 6
REMARK VINA RESULT:      -7.5      1.847      4.641
REMARK  Name = 
REMARK  7 active torsions:
REMARK  status: ('A' for Active; 'I' for Inactive)
REMARK    1  A    between atoms: C_1  and  C_2
REMARK    2  A    between atoms: C_2  and  C_3
REMARK    3  A    between atoms: C_2  and  N_4
REMARK    4  A    between atoms: C_8  and  C_10
REMARK    5  A    between atoms: C_10  and  C_11
REMARK    6  A    between atoms: C_10  and  C_18
REMARK    7  A    between atoms: C_11  and  C_12
REMARK                            x       y       z     vdW  Elec       q    Type
REMARK                         _______ _______ _______ _____ _____    ______ ____
ROOT
ATOM      1  C   UNL     1       2.930   5.931  18.879  0.00  0.00    +0.000 C 
ENDROOT
BRANCH   1   6
ATOM      2  N   UNL     1       0.595  10.724  18.753  0.00  0.00    +0.000 NA
ATOM      3  C   UNL     1       1.361   9.894  17.787  0.00  0.00    +0.000 C 
ATOM      4  C   UNL     1       2.394   8.888  18.374  0.00  0.00    +0.000 C 
ATOM      5  N   UNL     1       1.886   8.148  19.537  0.00  0.00    +0.000 N 
ATOM      6  C   UNL     1       2.149   6.819  19.874  0.00  0.00    +0.000 C 
ATOM      7  O   UNL     1       1.705   6.333  20.920  0.00  0.00    +0.000 OA
ATOM      8  C   UNL     1       1.175   8.989  20.503  0.00  0.00    +0.000 C 
ATOM      9  C   UNL     1       0.079   9.809  19.801  0.00  0.00    +0.000 C 
BRANCH   2  11
ATOM     10  C   UNL     1       2.326  12.459  18.241  0.00  0.00    +0.000 C 
ATOM     11  C   UNL     1       1.333  11.899  19.275  0.00  0.00    +0.000 C 
ATOM     12  C   UNL     1       0.400  13.072  19.644  0.00  0.00    +0.000 C 
ENDBRANCH   2  11
ENDBRANCH   1   6
BRANCH   1  13
ATOM     13  C   UNL     1       2.520   4.464  19.043  0.00  0.00    +0.000 A 
ATOM     14  C   UNL     1       1.394   3.965  18.378  0.00  0.00    +0.000 A 
ATOM     15  C   UNL     1       1.054   2.612  18.476  0.00  0.00    +0.000 A 
ATOM     16  C   UNL     1       1.844   1.743  19.231  0.00  0.00    +0.000 A 
ATOM     17  C   UNL     1       2.968   2.225  19.894  0.00  0.00    +0.000 A 
ATOM     18  C   UNL     1       3.302   3.578  19.806  0.00  0.00    +0.000 A 
ENDBRANCH   1  13
BRANCH   1  19
ATOM     19  C   UNL     1       4.472   6.008  19.061  0.00  0.00    +0.000 C 
BRANCH  19  20
ATOM     20  C   UNL     1       5.279   5.644  17.838  0.00  0.00    +0.000 A 
ATOM     21  C   UNL     1       4.826   6.029  16.568  0.00  0.00    +0.000 A 
ATOM     22  C   UNL     1       5.523   5.659  15.420  0.00  0.00    +0.000 A 
ATOM     23  C   UNL     1       6.689   4.906  15.529  0.00  0.00    +0.000 A 
ATOM     24  C   UNL     1       7.172   4.550  16.788  0.00  0.00    +0.000 A 
ATOM     25  C   UNL     1       6.472   4.920  17.940  0.00  0.00    +0.000 A 
ENDBRANCH  19  20
ENDBRANCH   1  19
TORSDOF 5
ENDMDL
MODEL 7
REMARK VINA RESULT:      -7.5      1.873      4.526
REMARK  Name = 
REMARK  7 active torsions:
REMARK  status: ('A' for Active; 'I' for Inactive)
REMARK    1  A    between atoms: C_1  and  C_2
REMARK    2  A    between atoms: C_2  and  C_3
REMARK    3  A    between atoms: C_2  and  N_4
REMARK    4  A    between atoms: C_8  and  C_10
REMARK    5  A    between atoms: C_10  and  C_11
REMARK    6  A    between atoms: C_10  and  C_18
REMARK    7  A    between atoms: C_11  and  C_12
REMARK                            x       y       z     vdW  Elec       q    Type
REMARK                         _______ _______ _______ _____ _____    ______ ____
ROOT
ATOM      1  C   UNL     1       3.133   5.997  18.395  0.00  0.00    +0.000 C 
ENDROOT
BRANCH   1   6
ATOM      2  N   UNL     1       0.292  10.425  19.275  0.00  0.00    +0.000 NA
ATOM      3  C   UNL     1       1.014   9.844  18.113  0.00  0.00    +0.000 C 
ATOM      4  C   UNL     1       2.217   8.904  18.419  0.00  0.00    +0.000 C 
ATOM      5  N   UNL     1       1.945   7.949  19.501  0.00  0.00    +0.000 N 
ATOM      6  C   UNL     1       2.393   6.629  19.596  0.00  0.00    +0.000 C 
ATOM      7  O   UNL     1       2.141   5.948  20.596  0.00  0.00    +0.000 OA
ATOM      8  C   UNL     1       1.277   8.548  20.659  0.00  0.00    +0.000 C 
ATOM      9  C   UNL     1       0.017   9.313  20.219  0.00  0.00    +0.000 C 
BRANCH   2  11
ATOM     10  C   UNL     1       1.109  12.761  18.892  0.00  0.00    +0.000 C 
ATOM     11  C   UNL     1       0.958  11.598  19.890  0.00  0.00    +0.000 C 
ATOM     12  C   UNL     1       0.172  12.169  21.089  0.00  0.00    +0.000 C 
ENDBRANCH   2  11
ENDBRANCH   1   6
BRANCH   1  13
ATOM     13  C   UNL     1       3.111   4.470  18.503  0.00  0.00    +0.000 A 
ATOM     14  C   UNL     1       2.372   3.706  17.592  0.00  0.00    +0.000 A 
ATOM     15  C   UNL     1       2.402   2.308  17.650  0.00  0.00    +0.000 A 
ATOM     16  C   UNL     1       3.179   1.663  18.614  0.00  0.00    +0.000 A 
ATOM     17  C   UNL     1       3.921   2.411  19.523  0.00  0.00    +0.000 A 
ATOM     18  C   UNL     1       3.883   3.805  19.473  0.00  0.00    +0.000 A 
ENDBRANCH   1  13
BRANCH   1  19
ATOM     19  C   UNL     1       4.619   6.437  18.284  0.00  0.00    +0.000 C 
BRANCH  19  20
ATOM     20  C   UNL     1       5.405   5.765  17.183  0.00  0.00    +0.000 A 
ATOM     21  C   UNL     1       6.567   5.048  17.500  0.00  0.00    +0.000 A 
ATOM     22  C   UNL     1       7.340   4.465  16.499  0.00  0.00    +0.000 A 
ATOM     23  C   UNL     1       6.953   4.583  15.167  0.00  0.00    +0.000 A 
ATOM     24  C   UNL     1       5.778   5.260  14.841  0.00  0.00    +0.000 A 
ATOM     25  C   UNL     1       5.003   5.847  15.845  0.00  0.00    +0.000 A 
ENDBRANCH  19  20
ENDBRANCH   1  19
TORSDOF 5
ENDMDL
MODEL 8
REMARK VINA RESULT:      -7.3      1.079      1.595
REMARK  Name = 
REMARK  7 active torsions:
REMARK  status: ('A' for Active; 'I' for Inactive)
REMARK    1  A    between atoms: C_1  and  C_2
REMARK    2  A    between atoms: C_2  and  C_3
REMARK    3  A    between atoms: C_2  and  N_4
REMARK    4  A    between atoms: C_8  and  C_10
REMARK    5  A    between atoms: C_10  and  C_11
REMARK    6  A    between atoms: C_10  and  C_18
REMARK    7  A    between atoms: C_11  and  C_12
REMARK                            x       y       z     vdW  Elec       q    Type
REMARK                         _______ _______ _______ _____ _____    ______ ____
ROOT
ATOM      1  C   UNL     1       2.525   6.642  18.704  0.00  0.00    +0.000 C 
ENDROOT
BRANCH   1   6
ATOM      2  N   UNL     1       0.832  10.728  21.684  0.00  0.00    +0.000 NA
ATOM      3  C   UNL     1       1.191   9.309  21.940  0.00  0.00    +0.000 C 
ATOM      4  C   UNL     1       1.014   8.306  20.762  0.00  0.00    +0.000 C 
ATOM      5  N   UNL     1       1.497   8.830  19.478  0.00  0.00    +0.000 N 
ATOM      6  C   UNL     1       2.128   8.115  18.457  0.00  0.00    +0.000 C 
ATOM      7  O   UNL     1       2.432   8.668  17.394  0.00  0.00    +0.000 OA
ATOM      8  C   UNL     1       1.094  10.214  19.219  0.00  0.00    +0.000 C 
ATOM      9  C   UNL     1       1.476  11.118  20.405  0.00  0.00    +0.000 C 
BRANCH   2  11
ATOM     10  C   UNL     1      -1.213  10.666  23.128  0.00  0.00    +0.000 C 
ATOM     11  C   UNL     1      -0.620  11.018  21.751  0.00  0.00    +0.000 C 
ATOM     12  C   UNL     1      -0.942  12.510  21.521  0.00  0.00    +0.000 C 
ENDBRANCH   2  11
ENDBRANCH   1   6
BRANCH   1  13
ATOM     13  C   UNL     1       3.991   6.417  18.323  0.00  0.00    +0.000 A 
ATOM     14  C   UNL     1       4.494   6.914  17.114  0.00  0.00    +0.000 A 
ATOM     15  C   UNL     1       5.847   6.764  16.794  0.00  0.00    +0.000 A 
ATOM     16  C   UNL     1       6.712   6.127  17.684  0.00  0.00    +0.000 A 
ATOM     17  C   UNL     1       6.227   5.632  18.890  0.00  0.00    +0.000 A 
ATOM     18  C   UNL     1       4.874   5.770  19.207  0.00  0.00    +0.000 A 
ENDBRANCH   1  13
BRANCH   1  19
ATOM     19  C   UNL     1       1.671   5.628  17.894  0.00  0.00    +0.000 C 
BRANCH  19  20
ATOM     20  C   UNL     1       1.914   4.176  18.228  0.00  0.00    +0.000 A 
ATOM     21  C   UNL     1       1.461   3.660  19.451  0.00  0.00    +0.000 A 
ATOM     22  C   UNL     1       1.720   2.339  19.808  0.00  0.00    +0.000 A 
ATOM     23  C   UNL     1       2.428   1.513  18.940  0.00  0.00    +0.000 A 
ATOM     24  C   UNL     1       2.850   2.000  17.703  0.00  0.00    +0.000 A 
ATOM     25  C   UNL     1       2.592   3.327  17.346  0.00  0.00    +0.000 A 
ENDBRANCH  19  20
ENDBRANCH   1  19
TORSDOF 5
ENDMDL
MODEL 9
REMARK VINA RESULT:      -7.3      0.832      1.203
REMARK  Name = 
REMARK  7 active torsions:
REMARK  status: ('A' for Active; 'I' for Inactive)
REMARK    1  A    between atoms: C_1  and  C_2
REMARK    2  A    between atoms: C_2  and  C_3
REMARK    3  A    between atoms: C_2  and  N_4
REMARK    4  A    between atoms: C_8  and  C_10
REMARK    5  A    between atoms: C_10  and  C_11
REMARK    6  A    between atoms: C_10  and  C_18
REMARK    7  A    between atoms: C_11  and  C_12
REMARK                            x       y       z     vdW  Elec       q    Type
REMARK                         _______ _______ _______ _____ _____    ______ ____
ROOT
ATOM      1  C   UNL     1       2.691   6.717  18.646  0.00  0.00    +0.000 C 
ENDROOT
BRANCH   1   6
ATOM      2  N   UNL     1       0.810  10.708  21.644  0.00  0.00    +0.000 NA
ATOM      3  C   UNL     1       1.250   9.311  21.896  0.00  0.00    +0.000 C 
ATOM      4  C   UNL     1       1.115   8.298  20.721  0.00  0.00    +0.000 C 
ATOM      5  N   UNL     1       1.553   8.846  19.431  0.00  0.00    +0.000 N 
ATOM      6  C   UNL     1       2.210   8.166  18.403  0.00  0.00    +0.000 C 
ATOM      7  O   UNL     1       2.470   8.734  17.336  0.00  0.00    +0.000 OA
ATOM      8  C   UNL     1       1.072  10.206  19.176  0.00  0.00    +0.000 C 
ATOM      9  C   UNL     1       1.417  11.130  20.356  0.00  0.00    +0.000 C 
BRANCH   2  11
ATOM     10  C   UNL     1      -1.180  10.728  23.163  0.00  0.00    +0.000 C 
ATOM     11  C   UNL     1      -0.655  10.917  21.728  0.00  0.00    +0.000 C 
ATOM     12  C   UNL     1      -1.079  12.340  21.306  0.00  0.00    +0.000 C 
ENDBRANCH   2  11
ENDBRANCH   1   6
BRANCH   1  13
ATOM     13  C   UNL     1       4.095   6.521  18.069  0.00  0.00    +0.000 A 
ATOM     14  C   UNL     1       5.122   5.998  18.864  0.00  0.00    +0.000 A 
ATOM     15  C   UNL     1       6.389   5.759  18.321  0.00  0.00    +0.000 A 
ATOM     16  C   UNL     1       6.637   6.030  16.974  0.00  0.00    +0.000 A 
ATOM     17  C   UNL     1       5.625   6.546  16.171  0.00  0.00    +0.000 A 
ATOM     18  C   UNL     1       4.363   6.796  16.715  0.00  0.00    +0.000 A 
ENDBRANCH   1  13
BRANCH   1  19
ATOM     19  C   UNL     1       1.767   5.644  18.005  0.00  0.00    +0.000 C 
BRANCH  19  20
ATOM     20  C   UNL     1       1.754   4.309  18.710  0.00  0.00    +0.000 A 
ATOM     21  C   UNL     1       1.152   4.196  19.971  0.00  0.00    +0.000 A 
ATOM     22  C   UNL     1       1.173   2.990  20.667  0.00  0.00    +0.000 A 
ATOM     23  C   UNL     1       1.789   1.876  20.103  0.00  0.00    +0.000 A 
ATOM     24  C   UNL     1       2.357   1.963  18.832  0.00  0.00    +0.000 A 
ATOM     25  C   UNL     1       2.337   3.174  18.135  0.00  0.00    +0.000 A 
ENDBRANCH  19  20
ENDBRANCH   1  19
TORSDOF 5
ENDMDL
