MODEL 1
REMARK VINA RESULT:      -8.4      0.000      0.000
REMARK  Name = 
REMARK  5 active torsions:
REMARK  status: ('A' for Active; 'I' for Inactive)
REMARK    1  A    between atoms: C_1  and  C_2
REMARK    2  A    between atoms: C_6  and  C_7
REMARK    3  A    between atoms: C_7  and  N_8
REMARK    4  A    between atoms: C_17  and  C_19
REMARK    5  A    between atoms: C_19  and  C_20
REMARK                            x       y       z     vdW  Elec       q    Type
REMARK                         _______ _______ _______ _____ _____    ______ ____
ROOT
ATOM      1  N   UNL     1       3.955   2.745  18.678  0.00  0.00    +0.000 NA
ATOM      2  C   UNL     1       3.850   3.577  19.920  0.00  0.00    +0.000 C 
ATOM      3  C   UNL     1       2.481   4.281  20.266  0.00  0.00    +0.000 C 
ATOM      4  C   UNL     1       1.410   3.438  20.965  0.00  0.00    +0.000 C 
ATOM      5  C   UNL     1       0.806   2.367  20.070  0.00  0.00    +0.000 C 
ATOM      6  C   UNL     1       1.393   2.415  18.653  0.00  0.00    +0.000 C 
ATOM      7  C   UNL     1       2.828   1.835  18.617  0.00  0.00    +0.000 C 
ATOM      8  C   UNL     1       1.268   3.868  18.138  0.00  0.00    +0.000 C 
ATOM      9  N   UNL     1       1.899   4.854  19.050  0.00  0.00    +0.000 N 
ATOM     10  C   UNL     1       2.279   6.115  18.587  0.00  0.00    +0.000 C 
ATOM     11  O   UNL     1       2.201   6.425  17.398  0.00  0.00    +0.000 OA
ENDROOT
BRANCH   1  12
ATOM     12  C   UNL     1       4.298   3.558  17.490  0.00  0.00    +0.000 C 
BRANCH  12  18
ATOM     13  C   UNL     1       6.243   4.387  14.527  0.00  0.00    +0.000 C 
ATOM     14  C   UNL     1       6.470   4.353  15.990  0.00  0.00    +0.000 A 
ATOM     15  N   UNL     1       7.772   4.636  16.377  0.00  0.00    +0.000 NA
ATOM     16  C   UNL     1       7.793   4.548  17.684  0.00  0.00    +0.000 A 
ATOM     17  N   UNL     1       6.553   4.260  18.160  0.00  0.00    +0.000 N 
ATOM     18  C   UNL     1       5.671   4.065  17.094  0.00  0.00    +0.000 A 
ATOM     19  H   UNL     1       6.320   4.145  19.139  0.00  0.00    +0.000 HD
ENDBRANCH  12  18
ENDBRANCH   1  12
BRANCH  10  20
ATOM     20  C   UNL     1       2.785   7.134  19.622  0.00  0.00    +0.000 C 
BRANCH  20  21
ATOM     21  C   UNL     1       1.724   8.134  20.024  0.00  0.00    +0.000 A 
ATOM     22  C   UNL     1       1.321   9.168  19.170  0.00  0.00    +0.000 A 
ATOM     23  C   UNL     1       0.304  10.017  19.591  0.00  0.00    +0.000 A 
ATOM     24  N   UNL     1      -0.323   9.910  20.782  0.00  0.00    +0.000 NA
ATOM     25  C   UNL     1       0.066   8.899  21.582  0.00  0.00    +0.000 A 
ATOM     26  C   UNL     1       1.061   7.997  21.248  0.00  0.00    +0.000 A 
ENDBRANCH  20  21
ENDBRANCH  10  20
TORSDOF 4
ENDMDL
MODEL 2
REMARK VINA RESULT:      -8.3      0.727      1.264
REMARK  Name = 
REMARK  5 active torsions:
REMARK  status: ('A' for Active; 'I' for Inactive)
REMARK    1  A    between atoms: C_1  and  C_2
REMARK    2  A    between atoms: C_6  and  C_7
REMARK    3  A    between atoms: C_7  and  N_8
REMARK    4  A    between atoms: C_17  and  C_19
REMARK    5  A    between atoms: C_19  and  C_20
REMARK                            x       y       z     vdW  Elec       q    Type
REMARK                         _______ _______ _______ _____ _____    ______ ____
ROOT
ATOM      1  N   UNL     1       4.255   2.920  18.322  0.00  0.00    +0.000 NA
ATOM      2  C   UNL     1       4.231   3.718  19.591  0.00  0.00    +0.000 C 
ATOM      3  C   UNL     1       2.858   4.283  20.124  0.00  0.00    +0.000 C 
ATOM      4  C   UNL     1       1.965   3.331  20.926  0.00  0.00    +0.000 C 
ATOM      5  C   UNL     1       1.356   2.221  20.082  0.00  0.00    +0.000 C 
ATOM      6  C   UNL     1       1.753   2.348  18.605  0.00  0.00    +0.000 C 
ATOM      7  C   UNL     1       3.219   1.908  18.376  0.00  0.00    +0.000 C 
ATOM      8  C   UNL     1       1.430   3.791  18.151  0.00  0.00    +0.000 C 
ATOM      9  N   UNL     1       2.076   4.818  19.005  0.00  0.00    +0.000 N 
ATOM     10  C   UNL     1       2.277   6.116  18.535  0.00  0.00    +0.000 C 
ATOM     11  O   UNL     1       2.022   6.437  17.373  0.00  0.00    +0.000 OA
ENDROOT
BRANCH   1  12
ATOM     12  C   UNL     1       4.370   3.781  17.125  0.00  0.00    +0.000 C 
BRANCH  12  18
ATOM     13  C   UNL     1       7.447   5.516  18.003  0.00  0.00    +0.000 C 
ATOM     14  C   UNL     1       6.817   5.000  16.766  0.00  0.00    +0.000 A 
ATOM     15  N   UNL     1       7.510   5.292  15.601  0.00  0.00    +0.000 NA
ATOM     16  C   UNL     1       6.811   4.779  14.619  0.00  0.00    +0.000 A 
ATOM     17  N   UNL     1       5.717   4.134  15.103  0.00  0.00    +0.000 N 
ATOM     18  C   UNL     1       5.645   4.299  16.489  0.00  0.00    +0.000 A 
ATOM     19  H   UNL     1       5.027   3.657  14.535  0.00  0.00    +0.000 HD
ENDBRANCH  12  18
ENDBRANCH   1  12
BRANCH  10  20
ATOM     20  C   UNL     1       2.814   7.162  19.528  0.00  0.00    +0.000 C 
BRANCH  20  21
ATOM     21  C   UNL     1       1.750   8.139  19.977  0.00  0.00    +0.000 A 
ATOM     22  C   UNL     1       1.335   9.203  19.167  0.00  0.00    +0.000 A 
ATOM     23  C   UNL     1       0.317  10.029  19.630  0.00  0.00    +0.000 A 
ATOM     24  N   UNL     1      -0.300   9.872  20.820  0.00  0.00    +0.000 NA
ATOM     25  C   UNL     1       0.101   8.833  21.577  0.00  0.00    +0.000 A 
ATOM     26  C   UNL     1       1.098   7.950  21.199  0.00  0.00    +0.000 A 
ENDBRANCH  20  21
ENDBRANCH  10  20
TORSDOF 4
ENDMDL
MODEL 3
REMARK VINA RESULT:      -8.1      0.947      1.350
REMARK  Name = 
REMARK  5 active torsions:
REMARK  status: ('A' for Active; 'I' for Inactive)
REMARK    1  A    between atoms: C_1  and  C_2
REMARK    2  A    between atoms: C_6  and  C_7
REMARK    3  A    between atoms: C_7  and  N_8
REMARK    4  A    between atoms: C_17  and  C_19
REMARK    5  A    between atoms: C_19  and  C_20
REMARK                            x       y       z     vdW  Elec       q    Type
REMARK                         _______ _______ _______ _____ _____    ______ ____
ROOT
ATOM      1  N   UNL     1       4.049   2.851  18.795  0.00  0.00    +0.000 NA
ATOM      2  C   UNL     1       3.743   3.616  20.047  0.00  0.00    +0.000 C 
ATOM      3  C   UNL     1       2.328   4.293  20.214  0.00  0.00    +0.000 C 
ATOM      4  C   UNL     1       1.174   3.408  20.696  0.00  0.00    +0.000 C 
ATOM      5  C   UNL     1       0.730   2.381  19.665  0.00  0.00    +0.000 C 
ATOM      6  C   UNL     1       1.526   2.507  18.359  0.00  0.00    +0.000 C 
ATOM      7  C   UNL     1       2.957   1.938  18.515  0.00  0.00    +0.000 C 
ATOM      8  C   UNL     1       1.461   3.985  17.907  0.00  0.00    +0.000 C 
ATOM      9  N   UNL     1       1.931   4.926  18.954  0.00  0.00    +0.000 N 
ATOM     10  C   UNL     1       2.360   6.211  18.620  0.00  0.00    +0.000 C 
ATOM     11  O   UNL     1       2.461   6.583  17.450  0.00  0.00    +0.000 OA
ENDROOT
BRANCH   1  12
ATOM     12  C   UNL     1       4.559   3.727  17.717  0.00  0.00    +0.000 C 
BRANCH  12  18
ATOM     13  C   UNL     1       5.522   7.009  16.472  0.00  0.00    +0.000 C 
ATOM     14  C   UNL     1       6.126   5.961  17.328  0.00  0.00    +0.000 A 
ATOM     15  N   UNL     1       7.428   6.223  17.726  0.00  0.00    +0.000 NA
ATOM     16  C   UNL     1       7.803   5.199  18.453  0.00  0.00    +0.000 A 
ATOM     17  N   UNL     1       6.784   4.307  18.574  0.00  0.00    +0.000 N 
ATOM     18  C   UNL     1       5.693   4.729  17.812  0.00  0.00    +0.000 A 
ATOM     19  H   UNL     1       6.835   3.438  19.092  0.00  0.00    +0.000 HD
ENDBRANCH  12  18
ENDBRANCH   1  12
BRANCH  10  20
ATOM     20  C   UNL     1       2.688   7.177  19.771  0.00  0.00    +0.000 C 
BRANCH  20  21
ATOM     21  C   UNL     1       1.576   8.169  20.034  0.00  0.00    +0.000 A 
ATOM     22  C   UNL     1       0.812   8.130  21.207  0.00  0.00    +0.000 A 
ATOM     23  C   UNL     1      -0.158   9.106  21.398  0.00  0.00    +0.000 A 
ATOM     24  N   UNL     1      -0.415  10.097  20.518  0.00  0.00    +0.000 NA
ATOM     25  C   UNL     1       0.341  10.128  19.405  0.00  0.00    +0.000 A 
ATOM     26  C   UNL     1       1.337   9.208  19.129  0.00  0.00    +0.000 A 
ENDBRANCH  20  21
ENDBRANCH  10  20
TORSDOF 4
ENDMDL
MODEL 4
REMARK VINA RESULT:      -8.0      1.233      1.839
REMARK  Name = 
REMARK  5 active torsions:
REMARK  status: ('A' for Active; 'I' for Inactive)
REMARK    1  A    between atoms: C_1  and  C_2
REMARK    2  A    between atoms: C_6  and  C_7
REMARK    3  A    between atoms: C_7  and  N_8
REMARK    4  A    between atoms: C_17  and  C_19
REMARK    5  A    between atoms: C_19  and  C_20
REMARK                            x       y       z     vdW  Elec       q    Type
REMARK                         _______ _______ _______ _____ _____    ______ ____
ROOT
ATOM      1  N   UNL     1       4.333   3.770  19.178  0.00  0.00    +0.000 NA
ATOM      2  C   UNL     1       3.509   4.017  20.406  0.00  0.00    +0.000 C 
ATOM      3  C   UNL     1       2.018   4.509  20.251  0.00  0.00    +0.000 C 
ATOM      4  C   UNL     1       0.948   3.448  19.974  0.00  0.00    +0.000 C 
ATOM      5  C   UNL     1       1.051   2.837  18.585  0.00  0.00    +0.000 C 
ATOM      6  C   UNL     1       2.189   3.466  17.771  0.00  0.00    +0.000 C 
ATOM      7  C   UNL     1       3.571   2.959  18.248  0.00  0.00    +0.000 C 
ATOM      8  C   UNL     1       2.009   5.002  17.817  0.00  0.00    +0.000 C 
ATOM      9  N   UNL     1       1.941   5.529  19.202  0.00  0.00    +0.000 N 
ATOM     10  C   UNL     1       2.218   6.870  19.471  0.00  0.00    +0.000 C 
ATOM     11  O   UNL     1       2.622   7.642  18.600  0.00  0.00    +0.000 OA
ENDROOT
BRANCH   1  12
ATOM     12  C   UNL     1       4.997   5.001  18.696  0.00  0.00    +0.000 C 
BRANCH  12  18
ATOM     13  C   UNL     1       7.555   7.278  17.463  0.00  0.00    +0.000 C 
ATOM     14  C   UNL     1       6.998   5.965  17.064  0.00  0.00    +0.000 A 
ATOM     15  N   UNL     1       7.504   5.464  15.874  0.00  0.00    +0.000 NA
ATOM     16  C   UNL     1       6.898   4.319  15.671  0.00  0.00    +0.000 A 
ATOM     17  N   UNL     1       6.054   4.042  16.699  0.00  0.00    +0.000 N 
ATOM     18  C   UNL     1       6.039   5.109  17.600  0.00  0.00    +0.000 A 
ATOM     19  H   UNL     1       5.477   3.212  16.767  0.00  0.00    +0.000 HD
ENDBRANCH  12  18
ENDBRANCH   1  12
BRANCH  10  20
ATOM     20  C   UNL     1       1.979   7.376  20.904  0.00  0.00    +0.000 C 
BRANCH  20  21
ATOM     21  C   UNL     1       1.038   8.559  20.957  0.00  0.00    +0.000 A 
ATOM     22  C   UNL     1       0.383   8.932  22.137  0.00  0.00    +0.000 A 
ATOM     23  C   UNL     1      -0.427  10.061  22.117  0.00  0.00    +0.000 A 
ATOM     24  N   UNL     1      -0.627  10.826  21.023  0.00  0.00    +0.000 NA
ATOM     25  C   UNL     1       0.024  10.462  19.902  0.00  0.00    +0.000 A 
ATOM     26  C   UNL     1       0.860   9.361  19.825  0.00  0.00    +0.000 A 
ENDBRANCH  20  21
ENDBRANCH  10  20
TORSDOF 4
ENDMDL
MODEL 5
REMARK VINA RESULT:      -8.0      1.206      1.424
REMARK  Name = 
REMARK  5 active torsions:
REMARK  status: ('A' for Active; 'I' for Inactive)
REMARK    1  A    between atoms: C_1  and  C_2
REMARK    2  A    between atoms: C_6  and  C_7
REMARK    3  A    between atoms: C_7  and  N_8
REMARK    4  A    between atoms: C_17  and  C_19
REMARK    5  A    between atoms: C_19  and  C_20
REMARK                            x       y       z     vdW  Elec       q    Type
REMARK                         _______ _______ _______ _____ _____    ______ ____
ROOT
ATOM      1  N   UNL     1       4.221   3.642  19.620  0.00  0.00    +0.000 NA
ATOM      2  C   UNL     1       3.221   3.905  20.704  0.00  0.00    +0.000 C 
ATOM      3  C   UNL     1       1.788   4.444  20.322  0.00  0.00    +0.000 C 
ATOM      4  C   UNL     1       0.746   3.418  19.866  0.00  0.00    +0.000 C 
ATOM      5  C   UNL     1       1.049   2.814  18.503  0.00  0.00    +0.000 C 
ATOM      6  C   UNL     1       2.320   3.415  17.887  0.00  0.00    +0.000 C 
ATOM      7  C   UNL     1       3.594   2.863  18.571  0.00  0.00    +0.000 C 
ATOM      8  C   UNL     1       2.180   4.955  17.923  0.00  0.00    +0.000 C 
ATOM      9  N   UNL     1       1.908   5.473  19.286  0.00  0.00    +0.000 N 
ATOM     10  C   UNL     1       2.177   6.803  19.612  0.00  0.00    +0.000 C 
ATOM     11  O   UNL     1       2.736   7.569  18.825  0.00  0.00    +0.000 OA
ENDROOT
BRANCH   1  12
ATOM     12  C   UNL     1       4.989   4.856  19.264  0.00  0.00    +0.000 C 
BRANCH  12  18
ATOM     13  C   UNL     1       5.069   6.527  16.031  0.00  0.00    +0.000 C 
ATOM     14  C   UNL     1       5.959   5.628  16.802  0.00  0.00    +0.000 A 
ATOM     15  N   UNL     1       7.105   5.236  16.127  0.00  0.00    +0.000 NA
ATOM     16  C   UNL     1       7.758   4.444  16.942  0.00  0.00    +0.000 A 
ATOM     17  N   UNL     1       7.103   4.341  18.128  0.00  0.00    +0.000 N 
ATOM     18  C   UNL     1       5.898   5.045  18.066  0.00  0.00    +0.000 A 
ATOM     19  H   UNL     1       7.415   3.786  18.916  0.00  0.00    +0.000 HD
ENDBRANCH  12  18
ENDBRANCH   1  12
BRANCH  10  20
ATOM     20  C   UNL     1       1.729   7.305  20.996  0.00  0.00    +0.000 C 
BRANCH  20  21
ATOM     21  C   UNL     1       0.973   8.614  20.925  0.00  0.00    +0.000 A 
ATOM     22  C   UNL     1       0.884   9.353  19.739  0.00  0.00    +0.000 A 
ATOM     23  C   UNL     1       0.130  10.521  19.741  0.00  0.00    +0.000 A 
ATOM     24  N   UNL     1      -0.525  10.994  20.823  0.00  0.00    +0.000 NA
ATOM     25  C   UNL     1      -0.441  10.261  21.949  0.00  0.00    +0.000 A 
ATOM     26  C   UNL     1       0.275   9.081  22.043  0.00  0.00    +0.000 A 
ENDBRANCH  20  21
ENDBRANCH  10  20
TORSDOF 4
ENDMDL
MODEL 6
REMARK VINA RESULT:      -7.8      1.029      1.516
REMARK  Name = 
REMARK  5 active torsions:
REMARK  status: ('A' for Active; 'I' for Inactive)
REMARK    1  A    between atoms: C_1  and  C_2
REMARK    2  A    between atoms: C_6  and  C_7
REMARK    3  A    between atoms: C_7  and  N_8
REMARK    4  A    between atoms: C_17  and  C_19
REMARK    5  A    between atoms: C_19  and  C_20
REMARK                            x       y       z     vdW  Elec       q    Type
REMARK                         _______ _______ _______ _____ _____    ______ ____
ROOT
ATOM      1  N   UNL     1       4.040   3.290  19.755  0.00  0.00    +0.000 NA
ATOM      2  C   UNL     1       3.043   3.613  20.827  0.00  0.00    +0.000 C 
ATOM      3  C   UNL     1       1.636   4.201  20.425  0.00  0.00    +0.000 C 
ATOM      4  C   UNL     1       0.556   3.208  19.981  0.00  0.00    +0.000 C 
ATOM      5  C   UNL     1       0.844   2.566  18.632  0.00  0.00    +0.000 C 
ATOM      6  C   UNL     1       2.141   3.104  18.014  0.00  0.00    +0.000 C 
ATOM      7  C   UNL     1       3.388   2.516  18.717  0.00  0.00    +0.000 C 
ATOM      8  C   UNL     1       2.062   4.649  18.019  0.00  0.00    +0.000 C 
ATOM      9  N   UNL     1       1.802   5.204  19.370  0.00  0.00    +0.000 N 
ATOM     10  C   UNL     1       2.122   6.529  19.672  0.00  0.00    +0.000 C 
ATOM     11  O   UNL     1       2.716   7.256  18.875  0.00  0.00    +0.000 OA
ENDROOT
BRANCH   1  12
ATOM     12  C   UNL     1       4.856   4.465  19.381  0.00  0.00    +0.000 C 
BRANCH  12  18
ATOM     13  C   UNL     1       5.050   4.414  15.746  0.00  0.00    +0.000 C 
ATOM     14  C   UNL     1       6.005   4.495  16.875  0.00  0.00    +0.000 A 
ATOM     15  N   UNL     1       7.341   4.477  16.501  0.00  0.00    +0.000 NA
ATOM     16  C   UNL     1       8.034   4.541  17.611  0.00  0.00    +0.000 A 
ATOM     17  N   UNL     1       7.203   4.639  18.683  0.00  0.00    +0.000 N 
ATOM     18  C   UNL     1       5.874   4.553  18.261  0.00  0.00    +0.000 A 
ATOM     19  H   UNL     1       7.507   4.703  19.647  0.00  0.00    +0.000 HD
ENDBRANCH  12  18
ENDBRANCH   1  12
BRANCH  10  20
ATOM     20  C   UNL     1       1.685   7.075  21.043  0.00  0.00    +0.000 C 
BRANCH  20  21
ATOM     21  C   UNL     1       1.066   8.452  20.952  0.00  0.00    +0.000 A 
ATOM     22  C   UNL     1       0.636   9.146  22.089  0.00  0.00    +0.000 A 
ATOM     23  C   UNL     1       0.123  10.427  21.929  0.00  0.00    +0.000 A 
ATOM     24  N   UNL     1       0.010  11.051  20.737  0.00  0.00    +0.000 NA
ATOM     25  C   UNL     1       0.445  10.375  19.656  0.00  0.00    +0.000 A 
ATOM     26  C   UNL     1       0.980   9.100  19.716  0.00  0.00    +0.000 A 
ENDBRANCH  20  21
ENDBRANCH  10  20
TORSDOF 4
ENDMDL
MODEL 7
REMARK VINA RESULT:      -7.7      1.078      1.672
REMARK  Name = 
REMARK  5 active torsions:
REMARK  status: ('A' for Active; 'I' for Inactive)
REMARK    1  A    between atoms: C_1  and  C_2
REMARK    2  A    between atoms: C_6  and  C_7
REMARK    3  A    between atoms: C_7  and  N_8
REMARK    4  A    between atoms: C_17  and  C_19
REMARK    5  A    between atoms: C_19  and  C_20
REMARK                            x       y       z     vdW  Elec       q    Type
REMARK                         _______ _______ _______ _____ _____    ______ ____
ROOT
ATOM      1  N   UNL     1       4.173   3.034  18.327  0.00  0.00    +0.000 NA
ATOM      2  C   UNL     1       4.019   3.715  19.653  0.00  0.00    +0.000 C 
ATOM      3  C   UNL     1       2.605   4.270  20.079  0.00  0.00    +0.000 C 
ATOM      4  C   UNL     1       1.609   3.275  20.685  0.00  0.00    +0.000 C 
ATOM      5  C   UNL     1       1.079   2.264  19.680  0.00  0.00    +0.000 C 
ATOM      6  C   UNL     1       1.644   2.511  18.275  0.00  0.00    +0.000 C 
ATOM      7  C   UNL     1       3.118   2.051  18.171  0.00  0.00    +0.000 C 
ATOM      8  C   UNL     1       1.402   3.998  17.923  0.00  0.00    +0.000 C 
ATOM      9  N   UNL     1       1.965   4.925  18.935  0.00  0.00    +0.000 N 
ATOM     10  C   UNL     1       2.243   6.253  18.611  0.00  0.00    +0.000 C 
ATOM     11  O   UNL     1       2.128   6.684  17.463  0.00  0.00    +0.000 OA
ENDROOT
BRANCH   1  12
ATOM     12  C   UNL     1       4.439   3.995  17.234  0.00  0.00    +0.000 C 
BRANCH  12  18
ATOM     13  C   UNL     1       7.933   4.554  18.089  0.00  0.00    +0.000 C 
ATOM     14  C   UNL     1       6.809   5.363  17.564  0.00  0.00    +0.000 A 
ATOM     15  N   UNL     1       7.095   6.711  17.408  0.00  0.00    +0.000 NA
ATOM     16  C   UNL     1       5.999   7.269  16.955  0.00  0.00    +0.000 A 
ATOM     17  N   UNL     1       5.032   6.332  16.774  0.00  0.00    +0.000 N 
ATOM     18  C   UNL     1       5.490   5.087  17.212  0.00  0.00    +0.000 A 
ATOM     19  H   UNL     1       4.098   6.523  16.430  0.00  0.00    +0.000 HD
ENDBRANCH  12  18
ENDBRANCH   1  12
BRANCH  10  20
ATOM     20  C   UNL     1       2.682   7.190  19.750  0.00  0.00    +0.000 C 
BRANCH  20  21
ATOM     21  C   UNL     1       1.591   8.151  20.168  0.00  0.00    +0.000 A 
ATOM     22  C   UNL     1       0.917   8.018  21.388  0.00  0.00    +0.000 A 
ATOM     23  C   UNL     1      -0.039   8.970  21.724  0.00  0.00    +0.000 A 
ATOM     24  N   UNL     1      -0.364  10.022  20.942  0.00  0.00    +0.000 NA
ATOM     25  C   UNL     1       0.307  10.142  19.780  0.00  0.00    +0.000 A 
ATOM     26  C   UNL     1       1.282   9.252  19.364  0.00  0.00    +0.000 A 
ENDBRANCH  20  21
ENDBRANCH  10  20
TORSDOF 4
ENDMDL
MODEL 8
REMARK VINA RESULT:      -7.5      1.420      1.631
REMARK  Name = 
REMARK  5 active torsions:
REMARK  status: ('A' for Active; 'I' for Inactive)
REMARK    1  A    between atoms: C_1  and  C_2
REMARK    2  A    between atoms: C_6  and  C_7
REMARK    3  A    between atoms: C_7  and  N_8
REMARK    4  A    between atoms: C_17  and  C_19
REMARK    5  A    between atoms: C_19  and  C_20
REMARK                            x       y       z     vdW  Elec       q    Type
REMARK                         _______ _______ _______ _____ _____    ______ ____
ROOT
ATOM      1  N   UNL     1       4.267   3.622  19.248  0.00  0.00    +0.000 NA
ATOM      2  C   UNL     1       3.445   3.874  20.476  0.00  0.00    +0.000 C 
ATOM      3  C   UNL     1       1.951   4.356  20.322  0.00  0.00    +0.000 C 
ATOM      4  C   UNL     1       0.887   3.285  20.058  0.00  0.00    +0.000 C 
ATOM      5  C   UNL     1       0.989   2.662  18.674  0.00  0.00    +0.000 C 
ATOM      6  C   UNL     1       2.121   3.292  17.850  0.00  0.00    +0.000 C 
ATOM      7  C   UNL     1       3.508   2.799  18.328  0.00  0.00    +0.000 C 
ATOM      8  C   UNL     1       1.931   4.827  17.883  0.00  0.00    +0.000 C 
ATOM      9  N   UNL     1       1.863   5.366  19.264  0.00  0.00    +0.000 N 
ATOM     10  C   UNL     1       2.132   6.711  19.520  0.00  0.00    +0.000 C 
ATOM     11  O   UNL     1       2.528   7.477  18.641  0.00  0.00    +0.000 OA
ENDROOT
BRANCH   1  12
ATOM     12  C   UNL     1       4.921   4.853  18.753  0.00  0.00    +0.000 C 
BRANCH  12  18
ATOM     13  C   UNL     1       6.051   3.534  15.554  0.00  0.00    +0.000 C 
ATOM     14  C   UNL     1       5.563   4.832  16.072  0.00  0.00    +0.000 A 
ATOM     15  N   UNL     1       5.592   5.868  15.149  0.00  0.00    +0.000 NA
ATOM     16  C   UNL     1       5.145   6.929  15.774  0.00  0.00    +0.000 A 
ATOM     17  N   UNL     1       4.791   6.614  17.048  0.00  0.00    +0.000 N 
ATOM     18  C   UNL     1       5.099   5.277  17.308  0.00  0.00    +0.000 A 
ATOM     19  H   UNL     1       4.417   7.270  17.724  0.00  0.00    +0.000 HD
ENDBRANCH  12  18
ENDBRANCH   1  12
BRANCH  10  20
ATOM     20  C   UNL     1       1.895   7.228  20.950  0.00  0.00    +0.000 C 
BRANCH  20  21
ATOM     21  C   UNL     1       1.089   8.507  20.981  0.00  0.00    +0.000 A 
ATOM     22  C   UNL     1       0.934   9.312  19.846  0.00  0.00    +0.000 A 
ATOM     23  C   UNL     1       0.137  10.446  19.941  0.00  0.00    +0.000 A 
ATOM     24  N   UNL     1      -0.501  10.828  21.069  0.00  0.00    +0.000 NA
ATOM     25  C   UNL     1      -0.353  10.033  22.145  0.00  0.00    +0.000 A 
ATOM     26  C   UNL     1       0.410   8.878  22.146  0.00  0.00    +0.000 A 
ENDBRANCH  20  21
ENDBRANCH  10  20
TORSDOF 4
ENDMDL
MODEL 9
REMARK VINA RESULT:      -7.5      1.676      6.254
REMARK  Name = 
REMARK  5 active torsions:
REMARK  status: ('A' for Active; 'I' for Inactive)
REMARK    1  A    between atoms: C_1  and  C_2
REMARK    2  A    between atoms: C_6  and  C_7
REMARK    3  A    between atoms: C_7  and  N_8
REMARK    4  A    between atoms: C_17  and  C_19
REMARK    5  A    between atoms: C_19  and  C_20
REMARK                            x       y       z     vdW  Elec       q    Type
REMARK                         _______ _______ _______ _____ _____    ______ ____
ROOT
ATOM      1  N   UNL     1       1.486   4.439  19.816  0.00  0.00    +0.000 NA
ATOM      2  C   UNL     1       1.587   4.447  18.321  0.00  0.00    +0.000 C 
ATOM      3  C   UNL     1       2.846   3.797  17.627  0.00  0.00    +0.000 C 
ATOM      4  C   UNL     1       2.839   2.277  17.431  0.00  0.00    +0.000 C 
ATOM      5  C   UNL     1       2.966   1.501  18.733  0.00  0.00    +0.000 C 
ATOM      6  C   UNL     1       3.114   2.437  19.940  0.00  0.00    +0.000 C 
ATOM      7  C   UNL     1       1.765   3.102  20.306  0.00  0.00    +0.000 C 
ATOM      8  C   UNL     1       4.263   3.426  19.633  0.00  0.00    +0.000 C 
ATOM      9  N   UNL     1       4.060   4.163  18.361  0.00  0.00    +0.000 N 
ATOM     10  C   UNL     1       4.716   5.371  18.122  0.00  0.00    +0.000 C 
ATOM     11  O   UNL     1       5.405   5.921  18.982  0.00  0.00    +0.000 OA
ENDROOT
BRANCH   1  12
ATOM     12  C   UNL     1       2.176   5.596  20.428  0.00  0.00    +0.000 C 
BRANCH  12  18
ATOM     13  C   UNL     1       2.101   8.291  17.983  0.00  0.00    +0.000 C 
ATOM     14  C   UNL     1       1.786   8.132  19.421  0.00  0.00    +0.000 A 
ATOM     15  N   UNL     1       1.433   9.308  20.066  0.00  0.00    +0.000 NA
ATOM     16  C   UNL     1       1.206   8.987  21.316  0.00  0.00    +0.000 A 
ATOM     17  N   UNL     1       1.358   7.649  21.496  0.00  0.00    +0.000 N 
ATOM     18  C   UNL     1       1.793   7.058  20.307  0.00  0.00    +0.000 A 
ATOM     19  H   UNL     1       1.232   7.165  22.378  0.00  0.00    +0.000 HD
ENDBRANCH  12  18
ENDBRANCH   1  12
BRANCH  10  20
ATOM     20  C   UNL     1       4.573   5.998  16.724  0.00  0.00    +0.000 C 
BRANCH  20  21
ATOM     21  C   UNL     1       5.436   5.313  15.687  0.00  0.00    +0.000 A 
ATOM     22  C   UNL     1       4.883   4.543  14.657  0.00  0.00    +0.000 A 
ATOM     23  C   UNL     1       5.738   3.987  13.713  0.00  0.00    +0.000 A 
ATOM     24  N   UNL     1       7.080   4.141  13.727  0.00  0.00    +0.000 NA
ATOM     25  C   UNL     1       7.591   4.899  14.716  0.00  0.00    +0.000 A 
ATOM     26  C   UNL     1       6.822   5.502  15.695  0.00  0.00    +0.000 A 
ENDBRANCH  20  21
ENDBRANCH  10  20
TORSDOF 4
ENDMDL
