MODEL 1
REMARK VINA RESULT:      -6.7      0.000      0.000
REMARK  Name = 
REMARK  20 active torsions:
REMARK  status: ('A' for Active; 'I' for Inactive)
REMARK    1  A    between atoms: C_1  and  C_2
REMARK    2  A    between atoms: C_2  and  C_3
REMARK    3  A    between atoms: C_3  and  C_4
REMARK    4  A    between atoms: C_4  and  C_5
REMARK    5  A    between atoms: C_5  and  C_6
REMARK    6  A    between atoms: C_6  and  C_7
REMARK    7  A    between atoms: C_7  and  C_8
REMARK    8  A    between atoms: C_8  and  C_9
REMARK    9  A    between atoms: C_9  and  C_10
REMARK   10  A    between atoms: C_10  and  C_11
REMARK   11  A    between atoms: C_11  and  C_12
REMARK   12  A    between atoms: C_12  and  C_13
REMARK   13  A    between atoms: C_15  and  N_16
REMARK   14  A    between atoms: N_19  and  C_20
REMARK   15  A    between atoms: C_21  and  C_22
REMARK   16  A    between atoms: C_22  and  C_23
REMARK   17  A    between atoms: C_22  and  C_24
REMARK   18  A    between atoms: C_28  and  C_29
REMARK   19  A    between atoms: C_29  and  C_30
REMARK   20  A    between atoms: C_29  and  C_31
REMARK                            x       y       z     vdW  Elec       q    Type
REMARK                         _______ _______ _______ _____ _____    ______ ____
ROOT
ATOM      1  N   UNL     1       0.619  10.870  19.607  0.00  0.00    +0.000 N 
ATOM      2  C   UNL     1      -0.603  11.162  19.012  0.00  0.00    +0.000 C 
ATOM      3  O   UNL     1      -1.186  10.465  18.203  0.00  0.00    +0.000 OA
ATOM      4  N   UNL     1      -1.182  12.343  19.474  0.00  0.00    +0.000 N 
ATOM      5  H   UNL     1       0.976  11.450  20.352  0.00  0.00    +0.000 HD
ATOM      6  H   UNL     1      -2.197  12.255  19.554  0.00  0.00    +0.000 HD
ENDROOT
BRANCH   4   7
ATOM      7  C   UNL     1      -0.550  13.135  20.460  0.00  0.00    +0.000 A 
ATOM      8  C   UNL     1      -0.973  12.985  21.822  0.00  0.00    +0.000 A 
ATOM      9  C   UNL     1      -0.446  13.866  22.769  0.00  0.00    +0.000 A 
ATOM     10  C   UNL     1       0.453  14.868  22.430  0.00  0.00    +0.000 A 
ATOM     11  C   UNL     1       0.859  14.999  21.105  0.00  0.00    +0.000 A 
ATOM     12  C   UNL     1       0.402  14.148  20.097  0.00  0.00    +0.000 A 
BRANCH   8  13
ATOM     13  C   UNL     1      -1.875  11.852  22.354  0.00  0.00    +0.000 C 
ATOM     14  C   UNL     1      -1.032  10.710  22.926  0.00  0.00    +0.000 C 
ATOM     15  C   UNL     1      -2.943  12.218  23.413  0.00  0.00    +0.000 C 
ENDBRANCH   8  13
BRANCH  12  16
ATOM     16  C   UNL     1       0.891  14.441  18.675  0.00  0.00    +0.000 C 
ATOM     17  C   UNL     1       1.221  15.933  18.503  0.00  0.00    +0.000 C 
ATOM     18  C   UNL     1       2.111  13.631  18.192  0.00  0.00    +0.000 C 
ENDBRANCH  12  16
ENDBRANCH   4   7
BRANCH   1  21
ATOM     19  C   UNL     1       2.188   7.725  19.195  0.00  0.00    +0.000 A 
ATOM     20  C   UNL     1       1.403   8.544  20.027  0.00  0.00    +0.000 A 
ATOM     21  C   UNL     1       1.254   9.710  19.310  0.00  0.00    +0.000 A 
ATOM     22  O   UNL     1       1.956   9.593  18.147  0.00  0.00    +0.000 OA
ATOM     23  N   UNL     1       2.558   8.361  18.072  0.00  0.00    +0.000 NA
BRANCH  19  24
ATOM     24  C   UNL     1       2.629   6.335  19.469  0.00  0.00    +0.000 C 
BRANCH  24  25
ATOM     25  C   UNL     1       1.681   5.632  20.435  0.00  0.00    +0.000 C 
BRANCH  25  26
ATOM     26  C   UNL     1       2.392   4.556  21.247  0.00  0.00    +0.000 C 
BRANCH  26  27
ATOM     27  C   UNL     1       1.527   3.304  21.333  0.00  0.00    +0.000 C 
BRANCH  27  28
ATOM     28  C   UNL     1       0.923   2.964  19.977  0.00  0.00    +0.000 C 
BRANCH  28  29
ATOM     29  C   UNL     1       1.794   1.952  19.241  0.00  0.00    +0.000 C 
BRANCH  29  30
ATOM     30  C   UNL     1       2.162   2.467  17.854  0.00  0.00    +0.000 C 
BRANCH  30  31
ATOM     31  C   UNL     1       3.619   2.913  17.815  0.00  0.00    +0.000 C 
BRANCH  31  32
ATOM     32  C   UNL     1       3.821   4.011  16.776  0.00  0.00    +0.000 C 
BRANCH  32  33
ATOM     33  C   UNL     1       5.304   4.325  16.606  0.00  0.00    +0.000 C 
BRANCH  33  35
ATOM     34  C   UNL     1       7.101   4.800  14.920  0.00  0.00    +0.000 C 
ATOM     35  C   UNL     1       5.734   4.179  15.150  0.00  0.00    +0.000 C 
ENDBRANCH  33  35
ENDBRANCH  32  33
ENDBRANCH  31  32
ENDBRANCH  30  31
ENDBRANCH  29  30
ENDBRANCH  28  29
ENDBRANCH  27  28
ENDBRANCH  26  27
ENDBRANCH  25  26
ENDBRANCH  24  25
ENDBRANCH  19  24
ENDBRANCH   1  21
TORSDOF 15
ENDMDL
MODEL 2
REMARK VINA RESULT:      -6.6      2.269      4.578
REMARK  Name = 
REMARK  20 active torsions:
REMARK  status: ('A' for Active; 'I' for Inactive)
REMARK    1  A    between atoms: C_1  and  C_2
REMARK    2  A    between atoms: C_2  and  C_3
REMARK    3  A    between atoms: C_3  and  C_4
REMARK    4  A    between atoms: C_4  and  C_5
REMARK    5  A    between atoms: C_5  and  C_6
REMARK    6  A    between atoms: C_6  and  C_7
REMARK    7  A    between atoms: C_7  and  C_8
REMARK    8  A    between atoms: C_8  and  C_9
REMARK    9  A    between atoms: C_9  and  C_10
REMARK   10  A    between atoms: C_10  and  C_11
REMARK   11  A    between atoms: C_11  and  C_12
REMARK   12  A    between atoms: C_12  and  C_13
REMARK   13  A    between atoms: C_15  and  N_16
REMARK   14  A    between atoms: N_19  and  C_20
REMARK   15  A    between atoms: C_21  and  C_22
REMARK   16  A    between atoms: C_22  and  C_23
REMARK   17  A    between atoms: C_22  and  C_24
REMARK   18  A    between atoms: C_28  and  C_29
REMARK   19  A    between atoms: C_29  and  C_30
REMARK   20  A    between atoms: C_29  and  C_31
REMARK                            x       y       z     vdW  Elec       q    Type
REMARK                         _______ _______ _______ _____ _____    ______ ____
ROOT
ATOM      1  N   UNL     1      -0.470  10.624  19.431  0.00  0.00    +0.000 N 
ATOM      2  C   UNL     1      -0.073  11.846  18.903  0.00  0.00    +0.000 C 
ATOM      3  O   UNL     1       1.060  12.148  18.578  0.00  0.00    +0.000 OA
ATOM      4  N   UNL     1      -1.126  12.737  18.701  0.00  0.00    +0.000 N 
ATOM      5  H   UNL     1      -1.450  10.419  19.567  0.00  0.00    +0.000 HD
ATOM      6  H   UNL     1      -0.997  13.280  17.844  0.00  0.00    +0.000 HD
ENDROOT
BRANCH   4   7
ATOM      7  C   UNL     1      -2.459  12.383  19.013  0.00  0.00    +0.000 A 
ATOM      8  C   UNL     1      -3.238  11.724  18.006  0.00  0.00    +0.000 A 
ATOM      9  C   UNL     1      -4.591  11.503  18.269  0.00  0.00    +0.000 A 
ATOM     10  C   UNL     1      -5.191  11.904  19.455  0.00  0.00    +0.000 A 
ATOM     11  C   UNL     1      -4.422  12.539  20.426  0.00  0.00    +0.000 A 
ATOM     12  C   UNL     1      -3.057  12.779  20.257  0.00  0.00    +0.000 A 
BRANCH   8  13
ATOM     13  C   UNL     1      -2.679  11.128  16.696  0.00  0.00    +0.000 C 
ATOM     14  C   UNL     1      -2.233   9.680  16.906  0.00  0.00    +0.000 C 
ATOM     15  C   UNL     1      -3.589  11.158  15.444  0.00  0.00    +0.000 C 
ENDBRANCH   8  13
BRANCH  12  16
ATOM     16  C   UNL     1      -2.346  13.534  21.385  0.00  0.00    +0.000 C 
ATOM     17  C   UNL     1      -3.292  14.549  22.050  0.00  0.00    +0.000 C 
ATOM     18  C   UNL     1      -1.728  12.668  22.502  0.00  0.00    +0.000 C 
ENDBRANCH  12  16
ENDBRANCH   4   7
BRANCH   1  21
ATOM     19  C   UNL     1       1.906   8.002  19.492  0.00  0.00    +0.000 A 
ATOM     20  C   UNL     1       1.146   8.878  18.695  0.00  0.00    +0.000 A 
ATOM     21  C   UNL     1       0.441   9.635  19.604  0.00  0.00    +0.000 A 
ATOM     22  O   UNL     1       0.737   9.190  20.857  0.00  0.00    +0.000 OA
ATOM     23  N   UNL     1       1.642   8.157  20.799  0.00  0.00    +0.000 NA
BRANCH  19  24
ATOM     24  C   UNL     1       2.873   6.979  19.022  0.00  0.00    +0.000 C 
BRANCH  24  25
ATOM     25  C   UNL     1       3.570   7.420  17.739  0.00  0.00    +0.000 C 
BRANCH  25  26
ATOM     26  C   UNL     1       4.460   6.322  17.170  0.00  0.00    +0.000 C 
BRANCH  26  27
ATOM     27  C   UNL     1       5.292   5.692  18.281  0.00  0.00    +0.000 C 
BRANCH  27  28
ATOM     28  C   UNL     1       5.006   4.201  18.399  0.00  0.00    +0.000 C 
BRANCH  28  29
ATOM     29  C   UNL     1       4.393   3.669  17.108  0.00  0.00    +0.000 C 
BRANCH  29  30
ATOM     30  C   UNL     1       3.206   2.763  17.411  0.00  0.00    +0.000 C 
BRANCH  30  31
ATOM     31  C   UNL     1       1.963   3.590  17.721  0.00  0.00    +0.000 C 
BRANCH  31  32
ATOM     32  C   UNL     1       0.983   2.794  18.577  0.00  0.00    +0.000 C 
BRANCH  32  33
ATOM     33  C   UNL     1       1.641   2.356  19.883  0.00  0.00    +0.000 C 
BRANCH  33  35
ATOM     34  C   UNL     1       2.363   4.281  21.323  0.00  0.00    +0.000 C 
ATOM     35  C   UNL     1       1.255   3.284  21.031  0.00  0.00    +0.000 C 
ENDBRANCH  33  35
ENDBRANCH  32  33
ENDBRANCH  31  32
ENDBRANCH  30  31
ENDBRANCH  29  30
ENDBRANCH  28  29
ENDBRANCH  27  28
ENDBRANCH  26  27
ENDBRANCH  25  26
ENDBRANCH  24  25
ENDBRANCH  19  24
ENDBRANCH   1  21
TORSDOF 15
ENDMDL
MODEL 3
REMARK VINA RESULT:      -6.6      1.181      3.107
REMARK  Name = 
REMARK  20 active torsions:
REMARK  status: ('A' for Active; 'I' for Inactive)
REMARK    1  A    between atoms: C_1  and  C_2
REMARK    2  A    between atoms: C_2  and  C_3
REMARK    3  A    between atoms: C_3  and  C_4
REMARK    4  A    between atoms: C_4  and  C_5
REMARK    5  A    between atoms: C_5  and  C_6
REMARK    6  A    between atoms: C_6  and  C_7
REMARK    7  A    between atoms: C_7  and  C_8
REMARK    8  A    between atoms: C_8  and  C_9
REMARK    9  A    between atoms: C_9  and  C_10
REMARK   10  A    between atoms: C_10  and  C_11
REMARK   11  A    between atoms: C_11  and  C_12
REMARK   12  A    between atoms: C_12  and  C_13
REMARK   13  A    between atoms: C_15  and  N_16
REMARK   14  A    between atoms: N_19  and  C_20
REMARK   15  A    between atoms: C_21  and  C_22
REMARK   16  A    between atoms: C_22  and  C_23
REMARK   17  A    between atoms: C_22  and  C_24
REMARK   18  A    between atoms: C_28  and  C_29
REMARK   19  A    between atoms: C_29  and  C_30
REMARK   20  A    between atoms: C_29  and  C_31
REMARK                            x       y       z     vdW  Elec       q    Type
REMARK                         _______ _______ _______ _____ _____    ______ ____
ROOT
ATOM      1  N   UNL     1       0.135  11.352  19.842  0.00  0.00    +0.000 N 
ATOM      2  C   UNL     1      -1.110  11.601  19.279  0.00  0.00    +0.000 C 
ATOM      3  O   UNL     1      -1.671  10.905  18.453  0.00  0.00    +0.000 OA
ATOM      4  N   UNL     1      -1.741  12.733  19.793  0.00  0.00    +0.000 N 
ATOM      5  H   UNL     1       0.475  11.922  20.604  0.00  0.00    +0.000 HD
ATOM      6  H   UNL     1      -2.750  12.589  19.886  0.00  0.00    +0.000 HD
ENDROOT
BRANCH   4   7
ATOM      7  C   UNL     1      -1.135  13.520  20.798  0.00  0.00    +0.000 A 
ATOM      8  C   UNL     1      -1.489  13.265  22.164  0.00  0.00    +0.000 A 
ATOM      9  C   UNL     1      -0.995  14.134  23.139  0.00  0.00    +0.000 A 
ATOM     10  C   UNL     1      -0.192  15.222  22.824  0.00  0.00    +0.000 A 
ATOM     11  C   UNL     1       0.149  15.455  21.494  0.00  0.00    +0.000 A 
ATOM     12  C   UNL     1      -0.280  14.623  20.458  0.00  0.00    +0.000 A 
BRANCH   8  13
ATOM     13  C   UNL     1      -2.278  12.037  22.665  0.00  0.00    +0.000 C 
ATOM     14  C   UNL     1      -1.325  10.941  23.150  0.00  0.00    +0.000 C 
ATOM     15  C   UNL     1      -3.333  12.261  23.774  0.00  0.00    +0.000 C 
ENDBRANCH   8  13
BRANCH  12  16
ATOM     16  C   UNL     1       0.126  15.029  19.038  0.00  0.00    +0.000 C 
ATOM     17  C   UNL     1       0.224  16.559  18.909  0.00  0.00    +0.000 C 
ATOM     18  C   UNL     1       1.443  14.429  18.507  0.00  0.00    +0.000 C 
ENDBRANCH  12  16
ENDBRANCH   4   7
BRANCH   1  21
ATOM     19  C   UNL     1       1.916   8.577  18.559  0.00  0.00    +0.000 A 
ATOM     20  C   UNL     1       1.337   9.829  18.282  0.00  0.00    +0.000 A 
ATOM     21  C   UNL     1       0.824  10.238  19.492  0.00  0.00    +0.000 A 
ATOM     22  O   UNL     1       1.049   9.256  20.410  0.00  0.00    +0.000 OA
ATOM     23  N   UNL     1       1.718   8.204  19.834  0.00  0.00    +0.000 NA
BRANCH  19  24
ATOM     24  C   UNL     1       2.639   7.697  17.607  0.00  0.00    +0.000 C 
BRANCH  24  25
ATOM     25  C   UNL     1       3.850   7.044  18.266  0.00  0.00    +0.000 C 
BRANCH  25  26
ATOM     26  C   UNL     1       4.940   6.715  17.252  0.00  0.00    +0.000 C 
BRANCH  26  27
ATOM     27  C   UNL     1       5.821   5.586  17.775  0.00  0.00    +0.000 C 
BRANCH  27  28
ATOM     28  C   UNL     1       5.838   4.413  16.804  0.00  0.00    +0.000 C 
BRANCH  28  29
ATOM     29  C   UNL     1       4.423   3.908  16.548  0.00  0.00    +0.000 C 
BRANCH  29  30
ATOM     30  C   UNL     1       3.911   3.114  17.744  0.00  0.00    +0.000 C 
BRANCH  30  31
ATOM     31  C   UNL     1       2.421   2.824  17.599  0.00  0.00    +0.000 C 
BRANCH  31  32
ATOM     32  C   UNL     1       1.596   4.075  17.883  0.00  0.00    +0.000 C 
BRANCH  32  33
ATOM     33  C   UNL     1       1.547   4.357  19.382  0.00  0.00    +0.000 C 
BRANCH  33  35
ATOM     34  C   UNL     1       1.687   2.900  21.421  0.00  0.00    +0.000 C 
ATOM     35  C   UNL     1       0.922   3.190  20.141  0.00  0.00    +0.000 C 
ENDBRANCH  33  35
ENDBRANCH  32  33
ENDBRANCH  31  32
ENDBRANCH  30  31
ENDBRANCH  29  30
ENDBRANCH  28  29
ENDBRANCH  27  28
ENDBRANCH  26  27
ENDBRANCH  25  26
ENDBRANCH  24  25
ENDBRANCH  19  24
ENDBRANCH   1  21
TORSDOF 15
ENDMDL
MODEL 4
REMARK VINA RESULT:      -6.4      1.316      3.062
REMARK  Name = 
REMARK  20 active torsions:
REMARK  status: ('A' for Active; 'I' for Inactive)
REMARK    1  A    between atoms: C_1  and  C_2
REMARK    2  A    between atoms: C_2  and  C_3
REMARK    3  A    between atoms: C_3  and  C_4
REMARK    4  A    between atoms: C_4  and  C_5
REMARK    5  A    between atoms: C_5  and  C_6
REMARK    6  A    between atoms: C_6  and  C_7
REMARK    7  A    between atoms: C_7  and  C_8
REMARK    8  A    between atoms: C_8  and  C_9
REMARK    9  A    between atoms: C_9  and  C_10
REMARK   10  A    between atoms: C_10  and  C_11
REMARK   11  A    between atoms: C_11  and  C_12
REMARK   12  A    between atoms: C_12  and  C_13
REMARK   13  A    between atoms: C_15  and  N_16
REMARK   14  A    between atoms: N_19  and  C_20
REMARK   15  A    between atoms: C_21  and  C_22
REMARK   16  A    between atoms: C_22  and  C_23
REMARK   17  A    between atoms: C_22  and  C_24
REMARK   18  A    between atoms: C_28  and  C_29
REMARK   19  A    between atoms: C_29  and  C_30
REMARK   20  A    between atoms: C_29  and  C_31
REMARK                            x       y       z     vdW  Elec       q    Type
REMARK                         _______ _______ _______ _____ _____    ______ ____
ROOT
ATOM      1  N   UNL     1      -0.182  11.923  19.858  0.00  0.00    +0.000 N 
ATOM      2  C   UNL     1      -1.398  12.219  19.254  0.00  0.00    +0.000 C 
ATOM      3  O   UNL     1      -1.940  11.562  18.384  0.00  0.00    +0.000 OA
ATOM      4  N   UNL     1      -2.024  13.348  19.779  0.00  0.00    +0.000 N 
ATOM      5  H   UNL     1       0.139  12.461  20.651  0.00  0.00    +0.000 HD
ATOM      6  H   UNL     1      -3.038  13.224  19.827  0.00  0.00    +0.000 HD
ENDROOT
BRANCH   4   7
ATOM      7  C   UNL     1      -1.442  14.089  20.833  0.00  0.00    +0.000 A 
ATOM      8  C   UNL     1      -1.773  13.726  22.180  0.00  0.00    +0.000 A 
ATOM      9  C   UNL     1      -1.307  14.546  23.209  0.00  0.00    +0.000 A 
ATOM     10  C   UNL     1      -0.552  15.685  22.966  0.00  0.00    +0.000 A 
ATOM     11  C   UNL     1      -0.233  16.022  21.653  0.00  0.00    +0.000 A 
ATOM     12  C   UNL     1      -0.636  15.247  20.564  0.00  0.00    +0.000 A 
BRANCH   8  13
ATOM     13  C   UNL     1      -2.507  12.435  22.599  0.00  0.00    +0.000 C 
ATOM     14  C   UNL     1      -1.507  11.355  23.021  0.00  0.00    +0.000 C 
ATOM     15  C   UNL     1      -3.575  12.542  23.714  0.00  0.00    +0.000 C 
ENDBRANCH   8  13
BRANCH  12  16
ATOM     16  C   UNL     1      -0.259  15.766  19.174  0.00  0.00    +0.000 C 
ATOM     17  C   UNL     1      -1.013  17.067  18.848  0.00  0.00    +0.000 C 
ATOM     18  C   UNL     1       1.242  16.018  18.923  0.00  0.00    +0.000 C 
ENDBRANCH  12  16
ENDBRANCH   4   7
BRANCH   1  21
ATOM     19  C   UNL     1       1.544   8.886  19.293  0.00  0.00    +0.000 A 
ATOM     20  C   UNL     1       0.792   9.656  20.199  0.00  0.00    +0.000 A 
ATOM     21  C   UNL     1       0.496  10.806  19.500  0.00  0.00    +0.000 A 
ATOM     22  O   UNL     1       1.086  10.728  18.273  0.00  0.00    +0.000 OA
ATOM     23  N   UNL     1       1.758   9.537  18.138  0.00  0.00    +0.000 NA
BRANCH  19  24
ATOM     24  C   UNL     1       2.101   7.530  19.522  0.00  0.00    +0.000 C 
BRANCH  24  25
ATOM     25  C   UNL     1       2.561   6.891  18.215  0.00  0.00    +0.000 C 
BRANCH  25  26
ATOM     26  C   UNL     1       3.870   6.129  18.387  0.00  0.00    +0.000 C 
BRANCH  26  27
ATOM     27  C   UNL     1       4.652   6.127  17.078  0.00  0.00    +0.000 C 
BRANCH  27  28
ATOM     28  C   UNL     1       4.809   4.711  16.538  0.00  0.00    +0.000 C 
BRANCH  28  29
ATOM     29  C   UNL     1       4.557   3.687  17.639  0.00  0.00    +0.000 C 
BRANCH  29  30
ATOM     30  C   UNL     1       3.682   2.550  17.124  0.00  0.00    +0.000 C 
BRANCH  30  31
ATOM     31  C   UNL     1       2.681   2.118  18.190  0.00  0.00    +0.000 C 
BRANCH  31  32
ATOM     32  C   UNL     1       1.518   3.102  18.271  0.00  0.00    +0.000 C 
BRANCH  32  33
ATOM     33  C   UNL     1       0.782   2.958  19.600  0.00  0.00    +0.000 C 
BRANCH  33  35
ATOM     34  C   UNL     1       2.199   3.986  21.398  0.00  0.00    +0.000 C 
ATOM     35  C   UNL     1       1.001   4.181  20.485  0.00  0.00    +0.000 C 
ENDBRANCH  33  35
ENDBRANCH  32  33
ENDBRANCH  31  32
ENDBRANCH  30  31
ENDBRANCH  29  30
ENDBRANCH  28  29
ENDBRANCH  27  28
ENDBRANCH  26  27
ENDBRANCH  25  26
ENDBRANCH  24  25
ENDBRANCH  19  24
ENDBRANCH   1  21
TORSDOF 15
ENDMDL
MODEL 5
REMARK VINA RESULT:      -6.4      2.308      3.653
REMARK  Name = 
REMARK  20 active torsions:
REMARK  status: ('A' for Active; 'I' for Inactive)
REMARK    1  A    between atoms: C_1  and  C_2
REMARK    2  A    between atoms: C_2  and  C_3
REMARK    3  A    between atoms: C_3  and  C_4
REMARK    4  A    between atoms: C_4  and  C_5
REMARK    5  A    between atoms: C_5  and  C_6
REMARK    6  A    between atoms: C_6  and  C_7
REMARK    7  A    between atoms: C_7  and  C_8
REMARK    8  A    between atoms: C_8  and  C_9
REMARK    9  A    between atoms: C_9  and  C_10
REMARK   10  A    between atoms: C_10  and  C_11
REMARK   11  A    between atoms: C_11  and  C_12
REMARK   12  A    between atoms: C_12  and  C_13
REMARK   13  A    between atoms: C_15  and  N_16
REMARK   14  A    between atoms: N_19  and  C_20
REMARK   15  A    between atoms: C_21  and  C_22
REMARK   16  A    between atoms: C_22  and  C_23
REMARK   17  A    between atoms: C_22  and  C_24
REMARK   18  A    between atoms: C_28  and  C_29
REMARK   19  A    between atoms: C_29  and  C_30
REMARK   20  A    between atoms: C_29  and  C_31
REMARK                            x       y       z     vdW  Elec       q    Type
REMARK                         _______ _______ _______ _____ _____    ______ ____
ROOT
ATOM      1  N   UNL     1      -0.849  10.979  20.098  0.00  0.00    +0.000 N 
ATOM      2  C   UNL     1      -0.572  12.144  19.393  0.00  0.00    +0.000 C 
ATOM      3  O   UNL     1       0.473  12.400  18.822  0.00  0.00    +0.000 OA
ATOM      4  N   UNL     1      -1.649  13.026  19.324  0.00  0.00    +0.000 N 
ATOM      5  H   UNL     1      -1.781  10.801  20.445  0.00  0.00    +0.000 HD
ATOM      6  H   UNL     1      -1.696  13.488  18.412  0.00  0.00    +0.000 HD
ENDROOT
BRANCH   4   7
ATOM      7  C   UNL     1      -2.890  12.720  19.926  0.00  0.00    +0.000 A 
ATOM      8  C   UNL     1      -3.905  12.114  19.114  0.00  0.00    +0.000 A 
ATOM      9  C   UNL     1      -5.172  11.942  19.676  0.00  0.00    +0.000 A 
ATOM     10  C   UNL     1      -5.470  12.341  20.971  0.00  0.00    +0.000 A 
ATOM     11  C   UNL     1      -4.473  12.923  21.750  0.00  0.00    +0.000 A 
ATOM     12  C   UNL     1      -3.172  13.112  21.279  0.00  0.00    +0.000 A 
BRANCH   8  13
ATOM     13  C   UNL     1      -3.685  11.525  17.705  0.00  0.00    +0.000 C 
ATOM     14  C   UNL     1      -3.358  10.033  17.785  0.00  0.00    +0.000 C 
ATOM     15  C   UNL     1      -4.818  11.699  16.666  0.00  0.00    +0.000 C 
ENDBRANCH   8  13
BRANCH  12  16
ATOM     16  C   UNL     1      -2.193  13.812  22.225  0.00  0.00    +0.000 C 
ATOM     17  C   UNL     1      -2.934  14.765  23.179  0.00  0.00    +0.000 C 
ATOM     18  C   UNL     1      -1.298  12.894  23.082  0.00  0.00    +0.000 C 
ENDBRANCH  12  16
ENDBRANCH   4   7
BRANCH   1  21
ATOM     19  C   UNL     1       1.506   8.343  19.923  0.00  0.00    +0.000 A 
ATOM     20  C   UNL     1       0.598   9.154  19.217  0.00  0.00    +0.000 A 
ATOM     21  C   UNL     1       0.083   9.998  20.175  0.00  0.00    +0.000 A 
ATOM     22  O   UNL     1       0.626   9.663  21.380  0.00  0.00    +0.000 OA
ATOM     23  N   UNL     1       1.506   8.618  21.237  0.00  0.00    +0.000 NA
BRANCH  19  24
ATOM     24  C   UNL     1       2.365   7.270  19.365  0.00  0.00    +0.000 C 
BRANCH  24  25
ATOM     25  C   UNL     1       2.606   6.164  20.388  0.00  0.00    +0.000 C 
BRANCH  25  26
ATOM     26  C   UNL     1       1.420   5.211  20.484  0.00  0.00    +0.000 C 
BRANCH  26  27
ATOM     27  C   UNL     1       1.900   3.809  20.844  0.00  0.00    +0.000 C 
BRANCH  27  28
ATOM     28  C   UNL     1       1.072   2.749  20.131  0.00  0.00    +0.000 C 
BRANCH  28  29
ATOM     29  C   UNL     1       1.371   2.751  18.636  0.00  0.00    +0.000 C 
BRANCH  29  30
ATOM     30  C   UNL     1       2.868   2.893  18.387  0.00  0.00    +0.000 C 
BRANCH  30  31
ATOM     31  C   UNL     1       3.128   3.693  17.115  0.00  0.00    +0.000 C 
BRANCH  31  32
ATOM     32  C   UNL     1       4.219   4.734  17.344  0.00  0.00    +0.000 C 
BRANCH  32  33
ATOM     33  C   UNL     1       5.262   4.213  18.329  0.00  0.00    +0.000 C 
BRANCH  33  35
ATOM     34  C   UNL     1       7.386   5.475  18.767  0.00  0.00    +0.000 C 
ATOM     35  C   UNL     1       5.909   5.358  19.101  0.00  0.00    +0.000 C 
ENDBRANCH  33  35
ENDBRANCH  32  33
ENDBRANCH  31  32
ENDBRANCH  30  31
ENDBRANCH  29  30
ENDBRANCH  28  29
ENDBRANCH  27  28
ENDBRANCH  26  27
ENDBRANCH  25  26
ENDBRANCH  24  25
ENDBRANCH  19  24
ENDBRANCH   1  21
TORSDOF 15
ENDMDL
MODEL 6
REMARK VINA RESULT:      -6.4      2.668      5.051
REMARK  Name = 
REMARK  20 active torsions:
REMARK  status: ('A' for Active; 'I' for Inactive)
REMARK    1  A    between atoms: C_1  and  C_2
REMARK    2  A    between atoms: C_2  and  C_3
REMARK    3  A    between atoms: C_3  and  C_4
REMARK    4  A    between atoms: C_4  and  C_5
REMARK    5  A    between atoms: C_5  and  C_6
REMARK    6  A    between atoms: C_6  and  C_7
REMARK    7  A    between atoms: C_7  and  C_8
REMARK    8  A    between atoms: C_8  and  C_9
REMARK    9  A    between atoms: C_9  and  C_10
REMARK   10  A    between atoms: C_10  and  C_11
REMARK   11  A    between atoms: C_11  and  C_12
REMARK   12  A    between atoms: C_12  and  C_13
REMARK   13  A    between atoms: C_15  and  N_16
REMARK   14  A    between atoms: N_19  and  C_20
REMARK   15  A    between atoms: C_21  and  C_22
REMARK   16  A    between atoms: C_22  and  C_23
REMARK   17  A    between atoms: C_22  and  C_24
REMARK   18  A    between atoms: C_28  and  C_29
REMARK   19  A    between atoms: C_29  and  C_30
REMARK   20  A    between atoms: C_29  and  C_31
REMARK                            x       y       z     vdW  Elec       q    Type
REMARK                         _______ _______ _______ _____ _____    ______ ____
ROOT
ATOM      1  N   UNL     1      -1.780  11.610  20.822  0.00  0.00    +0.000 N 
ATOM      2  C   UNL     1      -1.629  12.859  20.233  0.00  0.00    +0.000 C 
ATOM      3  O   UNL     1      -0.570  13.396  19.964  0.00  0.00    +0.000 OA
ATOM      4  N   UNL     1      -2.836  13.467  19.892  0.00  0.00    +0.000 N 
ATOM      5  H   UNL     1      -2.696  11.192  20.906  0.00  0.00    +0.000 HD
ATOM      6  H   UNL     1      -2.761  13.975  19.007  0.00  0.00    +0.000 HD
ENDROOT
BRANCH   4   7
ATOM      7  C   UNL     1      -4.075  12.832  20.138  0.00  0.00    +0.000 A 
ATOM      8  C   UNL     1      -4.652  12.045  19.088  0.00  0.00    +0.000 A 
ATOM      9  C   UNL     1      -5.937  11.537  19.287  0.00  0.00    +0.000 A 
ATOM     10  C   UNL     1      -6.658  11.776  20.448  0.00  0.00    +0.000 A 
ATOM     11  C   UNL     1      -6.083  12.537  21.462  0.00  0.00    +0.000 A 
ATOM     12  C   UNL     1      -4.794  13.065  21.359  0.00  0.00    +0.000 A 
BRANCH   8  13
ATOM     13  C   UNL     1      -3.925  11.611  17.798  0.00  0.00    +0.000 C 
ATOM     14  C   UNL     1      -3.427  10.169  17.915  0.00  0.00    +0.000 C 
ATOM     15  C   UNL     1      -4.696  11.731  16.461  0.00  0.00    +0.000 C 
ENDBRANCH   8  13
BRANCH  12  16
ATOM     16  C   UNL     1      -4.309  13.927  22.528  0.00  0.00    +0.000 C 
ATOM     17  C   UNL     1      -5.441  14.824  23.059  0.00  0.00    +0.000 C 
ATOM     18  C   UNL     1      -3.707  13.171  23.730  0.00  0.00    +0.000 C 
ENDBRANCH  12  16
ENDBRANCH   4   7
BRANCH   1  21
ATOM     19  C   UNL     1       0.897   9.382  21.448  0.00  0.00    +0.000 A 
ATOM     20  C   UNL     1      -0.340   9.578  20.808  0.00  0.00    +0.000 A 
ATOM     21  C   UNL     1      -0.686  10.871  21.131  0.00  0.00    +0.000 A 
ATOM     22  O   UNL     1       0.273  11.381  21.954  0.00  0.00    +0.000 OA
ATOM     23  N   UNL     1       1.262  10.452  22.173  0.00  0.00    +0.000 NA
BRANCH  19  24
ATOM     24  C   UNL     1       1.739   8.160  21.410  0.00  0.00    +0.000 C 
BRANCH  24  25
ATOM     25  C   UNL     1       1.945   7.673  19.979  0.00  0.00    +0.000 C 
BRANCH  25  26
ATOM     26  C   UNL     1       2.295   6.191  19.930  0.00  0.00    +0.000 C 
BRANCH  26  27
ATOM     27  C   UNL     1       3.612   5.986  19.190  0.00  0.00    +0.000 C 
BRANCH  27  28
ATOM     28  C   UNL     1       3.398   5.994  17.682  0.00  0.00    +0.000 C 
BRANCH  28  29
ATOM     29  C   UNL     1       4.341   5.008  17.002  0.00  0.00    +0.000 C 
BRANCH  29  30
ATOM     30  C   UNL     1       4.049   3.583  17.456  0.00  0.00    +0.000 C 
BRANCH  30  31
ATOM     31  C   UNL     1       2.567   3.262  17.300  0.00  0.00    +0.000 C 
BRANCH  31  32
ATOM     32  C   UNL     1       2.171   2.088  18.190  0.00  0.00    +0.000 C 
BRANCH  32  33
ATOM     33  C   UNL     1       0.807   2.333  18.828  0.00  0.00    +0.000 C 
BRANCH  33  35
ATOM     34  C   UNL     1       2.003   2.595  21.019  0.00  0.00    +0.000 C 
ATOM     35  C   UNL     1       0.936   3.165  20.100  0.00  0.00    +0.000 C 
ENDBRANCH  33  35
ENDBRANCH  32  33
ENDBRANCH  31  32
ENDBRANCH  30  31
ENDBRANCH  29  30
ENDBRANCH  28  29
ENDBRANCH  27  28
ENDBRANCH  26  27
ENDBRANCH  25  26
ENDBRANCH  24  25
ENDBRANCH  19  24
ENDBRANCH   1  21
TORSDOF 15
ENDMDL
MODEL 7
REMARK VINA RESULT:      -6.3      2.150      3.891
REMARK  Name = 
REMARK  20 active torsions:
REMARK  status: ('A' for Active; 'I' for Inactive)
REMARK    1  A    between atoms: C_1  and  C_2
REMARK    2  A    between atoms: C_2  and  C_3
REMARK    3  A    between atoms: C_3  and  C_4
REMARK    4  A    between atoms: C_4  and  C_5
REMARK    5  A    between atoms: C_5  and  C_6
REMARK    6  A    between atoms: C_6  and  C_7
REMARK    7  A    between atoms: C_7  and  C_8
REMARK    8  A    between atoms: C_8  and  C_9
REMARK    9  A    between atoms: C_9  and  C_10
REMARK   10  A    between atoms: C_10  and  C_11
REMARK   11  A    between atoms: C_11  and  C_12
REMARK   12  A    between atoms: C_12  and  C_13
REMARK   13  A    between atoms: C_15  and  N_16
REMARK   14  A    between atoms: N_19  and  C_20
REMARK   15  A    between atoms: C_21  and  C_22
REMARK   16  A    between atoms: C_22  and  C_23
REMARK   17  A    between atoms: C_22  and  C_24
REMARK   18  A    between atoms: C_28  and  C_29
REMARK   19  A    between atoms: C_29  and  C_30
REMARK   20  A    between atoms: C_29  and  C_31
REMARK                            x       y       z     vdW  Elec       q    Type
REMARK                         _______ _______ _______ _____ _____    ______ ____
ROOT
ATOM      1  N   UNL     1      -0.114  10.458  19.622  0.00  0.00    +0.000 N 
ATOM      2  C   UNL     1       0.388  11.577  18.970  0.00  0.00    +0.000 C 
ATOM      3  O   UNL     1       1.536  11.728  18.593  0.00  0.00    +0.000 OA
ATOM      4  N   UNL     1      -0.575  12.549  18.702  0.00  0.00    +0.000 N 
ATOM      5  H   UNL     1      -1.105  10.371  19.798  0.00  0.00    +0.000 HD
ATOM      6  H   UNL     1      -0.417  12.992  17.794  0.00  0.00    +0.000 HD
ENDROOT
BRANCH   4   7
ATOM      7  C   UNL     1      -1.927  12.367  19.075  0.00  0.00    +0.000 A 
ATOM      8  C   UNL     1      -2.824  11.804  18.110  0.00  0.00    +0.000 A 
ATOM      9  C   UNL     1      -4.182  11.756  18.433  0.00  0.00    +0.000 A 
ATOM     10  C   UNL     1      -4.675  12.237  19.639  0.00  0.00    +0.000 A 
ATOM     11  C   UNL     1      -3.790  12.776  20.569  0.00  0.00    +0.000 A 
ATOM     12  C   UNL     1      -2.415  12.842  20.340  0.00  0.00    +0.000 A 
BRANCH   8  13
ATOM     13  C   UNL     1      -2.403  11.136  16.784  0.00  0.00    +0.000 C 
ATOM     14  C   UNL     1      -2.038   9.667  17.009  0.00  0.00    +0.000 C 
ATOM     15  C   UNL     1      -3.397  11.192  15.600  0.00  0.00    +0.000 C 
ENDBRANCH   8  13
BRANCH  12  16
ATOM     16  C   UNL     1      -1.567  13.508  21.428  0.00  0.00    +0.000 C 
ATOM     17  C   UNL     1      -2.320  14.687  22.067  0.00  0.00    +0.000 C 
ATOM     18  C   UNL     1      -1.077  12.592  22.567  0.00  0.00    +0.000 C 
ENDBRANCH  12  16
ENDBRANCH   4   7
BRANCH   1  21
ATOM     19  C   UNL     1       1.997   7.631  19.888  0.00  0.00    +0.000 A 
ATOM     20  C   UNL     1       1.326   8.516  19.025  0.00  0.00    +0.000 A 
ATOM     21  C   UNL     1       0.697   9.401  19.872  0.00  0.00    +0.000 A 
ATOM     22  O   UNL     1       0.948   9.021  21.157  0.00  0.00    +0.000 OA
ATOM     23  N   UNL     1       1.748   7.905  21.179  0.00  0.00    +0.000 NA
BRANCH  19  24
ATOM     24  C   UNL     1       2.861   6.488  19.501  0.00  0.00    +0.000 C 
BRANCH  24  25
ATOM     25  C   UNL     1       2.485   5.950  18.124  0.00  0.00    +0.000 C 
BRANCH  25  26
ATOM     26  C   UNL     1       1.782   4.601  18.214  0.00  0.00    +0.000 C 
BRANCH  26  27
ATOM     27  C   UNL     1       2.808   3.481  18.343  0.00  0.00    +0.000 C 
BRANCH  27  28
ATOM     28  C   UNL     1       3.948   3.668  17.351  0.00  0.00    +0.000 C 
BRANCH  28  29
ATOM     29  C   UNL     1       5.265   3.894  18.084  0.00  0.00    +0.000 C 
BRANCH  29  30
ATOM     30  C   UNL     1       6.295   4.528  17.156  0.00  0.00    +0.000 C 
BRANCH  30  31
ATOM     31  C   UNL     1       5.767   5.839  16.583  0.00  0.00    +0.000 C 
BRANCH  31  32
ATOM     32  C   UNL     1       5.673   5.766  15.062  0.00  0.00    +0.000 C 
BRANCH  32  33
ATOM     33  C   UNL     1       6.466   4.575  14.531  0.00  0.00    +0.000 C 
BRANCH  33  35
ATOM     34  C   UNL     1       6.408   3.500  12.264  0.00  0.00    +0.000 C 
ATOM     35  C   UNL     1       5.636   3.757  13.546  0.00  0.00    +0.000 C 
ENDBRANCH  33  35
ENDBRANCH  32  33
ENDBRANCH  31  32
ENDBRANCH  30  31
ENDBRANCH  29  30
ENDBRANCH  28  29
ENDBRANCH  27  28
ENDBRANCH  26  27
ENDBRANCH  25  26
ENDBRANCH  24  25
ENDBRANCH  19  24
ENDBRANCH   1  21
TORSDOF 15
ENDMDL
MODEL 8
REMARK VINA RESULT:      -6.2      2.777      5.221
REMARK  Name = 
REMARK  20 active torsions:
REMARK  status: ('A' for Active; 'I' for Inactive)
REMARK    1  A    between atoms: C_1  and  C_2
REMARK    2  A    between atoms: C_2  and  C_3
REMARK    3  A    between atoms: C_3  and  C_4
REMARK    4  A    between atoms: C_4  and  C_5
REMARK    5  A    between atoms: C_5  and  C_6
REMARK    6  A    between atoms: C_6  and  C_7
REMARK    7  A    between atoms: C_7  and  C_8
REMARK    8  A    between atoms: C_8  and  C_9
REMARK    9  A    between atoms: C_9  and  C_10
REMARK   10  A    between atoms: C_10  and  C_11
REMARK   11  A    between atoms: C_11  and  C_12
REMARK   12  A    between atoms: C_12  and  C_13
REMARK   13  A    between atoms: C_15  and  N_16
REMARK   14  A    between atoms: N_19  and  C_20
REMARK   15  A    between atoms: C_21  and  C_22
REMARK   16  A    between atoms: C_22  and  C_23
REMARK   17  A    between atoms: C_22  and  C_24
REMARK   18  A    between atoms: C_28  and  C_29
REMARK   19  A    between atoms: C_29  and  C_30
REMARK   20  A    between atoms: C_29  and  C_31
REMARK                            x       y       z     vdW  Elec       q    Type
REMARK                         _______ _______ _______ _____ _____    ______ ____
ROOT
ATOM      1  N   UNL     1      -2.365  12.027  20.227  0.00  0.00    +0.000 N 
ATOM      2  C   UNL     1      -2.404  13.411  20.108  0.00  0.00    +0.000 C 
ATOM      3  O   UNL     1      -1.479  14.123  19.762  0.00  0.00    +0.000 OA
ATOM      4  N   UNL     1      -3.660  13.959  20.365  0.00  0.00    +0.000 N 
ATOM      5  H   UNL     1      -3.211  11.505  20.410  0.00  0.00    +0.000 HD
ATOM      6  H   UNL     1      -3.860  14.744  19.740  0.00  0.00    +0.000 HD
ENDROOT
BRANCH   4   7
ATOM      7  C   UNL     1      -4.763  13.144  20.706  0.00  0.00    +0.000 A 
ATOM      8  C   UNL     1      -5.580  12.632  19.645  0.00  0.00    +0.000 A 
ATOM      9  C   UNL     1      -6.745  11.945  19.994  0.00  0.00    +0.000 A 
ATOM     10  C   UNL     1      -7.128  11.756  21.314  0.00  0.00    +0.000 A 
ATOM     11  C   UNL     1      -6.321  12.253  22.335  0.00  0.00    +0.000 A 
ATOM     12  C   UNL     1      -5.128  12.931  22.079  0.00  0.00    +0.000 A 
BRANCH   8  13
ATOM     13  C   UNL     1      -5.221  12.674  18.145  0.00  0.00    +0.000 C 
ATOM     14  C   UNL     1      -4.704  11.314  17.673  0.00  0.00    +0.000 C 
ATOM     15  C   UNL     1      -6.320  13.124  17.153  0.00  0.00    +0.000 C 
ENDBRANCH   8  13
BRANCH  12  16
ATOM     16  C   UNL     1      -4.369  13.469  23.295  0.00  0.00    +0.000 C 
ATOM     17  C   UNL     1      -4.990  14.785  23.795  0.00  0.00    +0.000 C 
ATOM     18  C   UNL     1      -4.253  12.518  24.504  0.00  0.00    +0.000 C 
ENDBRANCH  12  16
ENDBRANCH   4   7
BRANCH   1  21
ATOM     19  C   UNL     1       0.539  10.370  19.069  0.00  0.00    +0.000 A 
ATOM     20  C   UNL     1      -0.549  11.198  18.738  0.00  0.00    +0.000 A 
ATOM     21  C   UNL     1      -1.227  11.355  19.926  0.00  0.00    +0.000 A 
ATOM     22  O   UNL     1      -0.595  10.618  20.883  0.00  0.00    +0.000 OA
ATOM     23  N   UNL     1       0.503   9.984  20.354  0.00  0.00    +0.000 NA
BRANCH  19  24
ATOM     24  C   UNL     1       1.615   9.903  18.159  0.00  0.00    +0.000 C 
BRANCH  24  25
ATOM     25  C   UNL     1       1.511   8.403  17.901  0.00  0.00    +0.000 C 
BRANCH  25  26
ATOM     26  C   UNL     1       2.884   7.747  17.811  0.00  0.00    +0.000 C 
BRANCH  26  27
ATOM     27  C   UNL     1       2.894   6.439  18.595  0.00  0.00    +0.000 C 
BRANCH  27  28
ATOM     28  C   UNL     1       2.562   6.680  20.062  0.00  0.00    +0.000 C 
BRANCH  28  29
ATOM     29  C   UNL     1       1.469   5.725  20.528  0.00  0.00    +0.000 C 
BRANCH  29  30
ATOM     30  C   UNL     1       2.078   4.466  21.135  0.00  0.00    +0.000 C 
BRANCH  30  31
ATOM     31  C   UNL     1       1.233   3.243  20.797  0.00  0.00    +0.000 C 
BRANCH  31  32
ATOM     32  C   UNL     1       0.886   3.219  19.312  0.00  0.00    +0.000 C 
BRANCH  32  33
ATOM     33  C   UNL     1       1.706   2.158  18.585  0.00  0.00    +0.000 C 
BRANCH  33  35
ATOM     34  C   UNL     1       3.805   3.004  17.499  0.00  0.00    +0.000 C 
ATOM     35  C   UNL     1       3.202   2.406  18.758  0.00  0.00    +0.000 C 
ENDBRANCH  33  35
ENDBRANCH  32  33
ENDBRANCH  31  32
ENDBRANCH  30  31
ENDBRANCH  29  30
ENDBRANCH  28  29
ENDBRANCH  27  28
ENDBRANCH  26  27
ENDBRANCH  25  26
ENDBRANCH  24  25
ENDBRANCH  19  24
ENDBRANCH   1  21
TORSDOF 15
ENDMDL
MODEL 9
REMARK VINA RESULT:      -6.2      2.390      4.604
REMARK  Name = 
REMARK  20 active torsions:
REMARK  status: ('A' for Active; 'I' for Inactive)
REMARK    1  A    between atoms: C_1  and  C_2
REMARK    2  A    between atoms: C_2  and  C_3
REMARK    3  A    between atoms: C_3  and  C_4
REMARK    4  A    between atoms: C_4  and  C_5
REMARK    5  A    between atoms: C_5  and  C_6
REMARK    6  A    between atoms: C_6  and  C_7
REMARK    7  A    between atoms: C_7  and  C_8
REMARK    8  A    between atoms: C_8  and  C_9
REMARK    9  A    between atoms: C_9  and  C_10
REMARK   10  A    between atoms: C_10  and  C_11
REMARK   11  A    between atoms: C_11  and  C_12
REMARK   12  A    between atoms: C_12  and  C_13
REMARK   13  A    between atoms: C_15  and  N_16
REMARK   14  A    between atoms: N_19  and  C_20
REMARK   15  A    between atoms: C_21  and  C_22
REMARK   16  A    between atoms: C_22  and  C_23
REMARK   17  A    between atoms: C_22  and  C_24
REMARK   18  A    between atoms: C_28  and  C_29
REMARK   19  A    between atoms: C_29  and  C_30
REMARK   20  A    between atoms: C_29  and  C_31
REMARK                            x       y       z     vdW  Elec       q    Type
REMARK                         _______ _______ _______ _____ _____    ______ ____
ROOT
ATOM      1  N   UNL     1      -1.392  11.558  19.741  0.00  0.00    +0.000 N 
ATOM      2  C   UNL     1      -1.297  12.869  19.292  0.00  0.00    +0.000 C 
ATOM      3  O   UNL     1      -0.393  13.328  18.619  0.00  0.00    +0.000 OA
ATOM      4  N   UNL     1      -2.397  13.657  19.628  0.00  0.00    +0.000 N 
ATOM      5  H   UNL     1      -2.233  11.234  20.199  0.00  0.00    +0.000 HD
ATOM      6  H   UNL     1      -2.635  14.306  18.874  0.00  0.00    +0.000 HD
ENDROOT
BRANCH   4   7
ATOM      7  C   UNL     1      -3.487  13.127  20.355  0.00  0.00    +0.000 A 
ATOM      8  C   UNL     1      -4.538  12.481  19.624  0.00  0.00    +0.000 A 
ATOM      9  C   UNL     1      -5.674  12.084  20.332  0.00  0.00    +0.000 A 
ATOM     10  C   UNL     1      -5.813  12.302  21.695  0.00  0.00    +0.000 A 
ATOM     11  C   UNL     1      -4.782  12.926  22.393  0.00  0.00    +0.000 A 
ATOM     12  C   UNL     1      -3.601  13.334  21.772  0.00  0.00    +0.000 A 
BRANCH   8  13
ATOM     13  C   UNL     1      -4.471  12.078  18.136  0.00  0.00    +0.000 C 
ATOM     14  C   UNL     1      -4.216  10.576  17.991  0.00  0.00    +0.000 C 
ATOM     15  C   UNL     1      -5.679  12.434  17.237  0.00  0.00    +0.000 C 
ENDBRANCH   8  13
BRANCH  12  16
ATOM     16  C   UNL     1      -2.574  14.055  22.651  0.00  0.00    +0.000 C 
ATOM     17  C   UNL     1      -2.644  15.577  22.443  0.00  0.00    +0.000 C 
ATOM     18  C   UNL     1      -2.664  13.784  24.167  0.00  0.00    +0.000 C 
ENDBRANCH  12  16
ENDBRANCH   4   7
BRANCH   1  21
ATOM     19  C   UNL     1       0.980   9.230  18.527  0.00  0.00    +0.000 A 
ATOM     20  C   UNL     1      -0.062  10.118  18.205  0.00  0.00    +0.000 A 
ATOM     21  C   UNL     1      -0.430  10.660  19.416  0.00  0.00    +0.000 A 
ATOM     22  O   UNL     1       0.324  10.082  20.394  0.00  0.00    +0.000 OA
ATOM     23  N   UNL     1       1.199   9.173  19.850  0.00  0.00    +0.000 NA
BRANCH  19  24
ATOM     24  C   UNL     1       1.764   8.393  17.584  0.00  0.00    +0.000 C 
BRANCH  24  25
ATOM     25  C   UNL     1       2.759   7.506  18.326  0.00  0.00    +0.000 C 
BRANCH  25  26
ATOM     26  C   UNL     1       4.108   7.453  17.619  0.00  0.00    +0.000 C 
BRANCH  26  27
ATOM     27  C   UNL     1       4.750   6.084  17.813  0.00  0.00    +0.000 C 
BRANCH  27  28
ATOM     28  C   UNL     1       3.702   4.980  17.781  0.00  0.00    +0.000 C 
BRANCH  28  29
ATOM     29  C   UNL     1       4.367   3.610  17.713  0.00  0.00    +0.000 C 
BRANCH  29  30
ATOM     30  C   UNL     1       3.525   2.567  18.438  0.00  0.00    +0.000 C 
BRANCH  30  31
ATOM     31  C   UNL     1       2.227   2.306  17.682  0.00  0.00    +0.000 C 
BRANCH  31  32
ATOM     32  C   UNL     1       1.031   2.355  18.628  0.00  0.00    +0.000 C 
BRANCH  32  33
ATOM     33  C   UNL     1       1.475   2.729  20.039  0.00  0.00    +0.000 C 
BRANCH  33  35
ATOM     34  C   UNL     1       2.041   5.001  20.942  0.00  0.00    +0.000 C 
ATOM     35  C   UNL     1       0.929   4.095  20.443  0.00  0.00    +0.000 C 
ENDBRANCH  33  35
ENDBRANCH  32  33
ENDBRANCH  31  32
ENDBRANCH  30  31
ENDBRANCH  29  30
ENDBRANCH  28  29
ENDBRANCH  27  28
ENDBRANCH  26  27
ENDBRANCH  25  26
ENDBRANCH  24  25
ENDBRANCH  19  24
ENDBRANCH   1  21
TORSDOF 15
ENDMDL
