MODEL 1
REMARK VINA RESULT:      -7.2      0.000      0.000
REMARK  Name = 
REMARK  4 active torsions:
REMARK  status: ('A' for Active; 'I' for Inactive)
REMARK    1  A    between atoms: C_1  and  C_2
REMARK    2  A    between atoms: C_9  and  C_10
REMARK    3  A    between atoms: C_10  and  O_12
REMARK    4  A    between atoms: C_19  and  C_20
REMARK                            x       y       z     vdW  Elec       q    Type
REMARK                         _______ _______ _______ _____ _____    ______ ____
ROOT
ATOM      1  C   UNL     1       0.948  11.764  18.611  0.00  0.00    +0.000 C 
ATOM      2  C   UNL     1       1.228  10.345  19.032  0.00  0.00    +0.000 A 
ATOM      3  C   UNL     1       1.997   9.511  18.198  0.00  0.00    +0.000 A 
ATOM      4  C   UNL     1       2.284   8.190  18.554  0.00  0.00    +0.000 A 
ATOM      5  N   UNL     1       3.057   7.397  17.693  0.00  0.00    +0.000 NA
ATOM      6  C   UNL     1       3.305   6.173  18.044  0.00  0.00    +0.000 A 
ATOM      7  C   UNL     1       4.120   5.309  17.145  0.00  0.00    +0.000 A 
ATOM      8  C   UNL     1       4.394   4.046  17.495  0.00  0.00    +0.000 A 
ATOM      9  C   UNL     1       3.906   3.484  18.742  0.00  0.00    +0.000 A 
ATOM     10  C   UNL     1       3.152   4.260  19.537  0.00  0.00    +0.000 A 
ATOM     11  N   UNL     1       2.856   5.588  19.225  0.00  0.00    +0.000 N 
ATOM     12  C   UNL     1       2.092   6.321  20.134  0.00  0.00    +0.000 A 
ATOM     13  O   UNL     1       1.681   5.879  21.206  0.00  0.00    +0.000 OA
ATOM     14  C   UNL     1       1.787   7.710  19.760  0.00  0.00    +0.000 A 
ATOM     15  C   UNL     1       1.020   8.518  20.605  0.00  0.00    +0.000 A 
ATOM     16  C   UNL     1       0.734   9.840  20.251  0.00  0.00    +0.000 A 
ATOM     17  C   UNL     1      -0.097  10.682  21.181  0.00  0.00    +0.000 C 
ENDROOT
BRANCH   9  18
ATOM     18  C   UNL     1       4.201   2.057  19.061  0.00  0.00    +0.000 C 
ATOM     19  O   UNL     1       3.670   1.135  18.461  0.00  0.00    +0.000 OA
BRANCH  18  20
ATOM     20  O   UNL     1       5.113   1.838  20.032  0.00  0.00    +0.000 OA
ATOM     21  H   UNL     1       5.949   1.411  19.777  0.00  0.00    +0.000 HD
ENDBRANCH  18  20
ENDBRANCH   9  18
TORSDOF 2
ENDMDL
MODEL 2
REMARK VINA RESULT:      -7.2      2.403      3.463
REMARK  Name = 
REMARK  4 active torsions:
REMARK  status: ('A' for Active; 'I' for Inactive)
REMARK    1  A    between atoms: C_1  and  C_2
REMARK    2  A    between atoms: C_9  and  C_10
REMARK    3  A    between atoms: C_10  and  O_12
REMARK    4  A    between atoms: C_19  and  C_20
REMARK                            x       y       z     vdW  Elec       q    Type
REMARK                         _______ _______ _______ _____ _____    ______ ____
ROOT
ATOM      1  C   UNL     1      -0.981  10.412  23.049  0.00  0.00    +0.000 C 
ATOM      2  C   UNL     1      -0.202  10.026  21.819  0.00  0.00    +0.000 A 
ATOM      3  C   UNL     1       0.510   8.810  21.801  0.00  0.00    +0.000 A 
ATOM      4  C   UNL     1       1.241   8.412  20.678  0.00  0.00    +0.000 A 
ATOM      5  N   UNL     1       1.932   7.192  20.704  0.00  0.00    +0.000 NA
ATOM      6  C   UNL     1       2.607   6.846  19.651  0.00  0.00    +0.000 A 
ATOM      7  C   UNL     1       3.353   5.557  19.655  0.00  0.00    +0.000 A 
ATOM      8  C   UNL     1       4.047   5.180  18.575  0.00  0.00    +0.000 A 
ATOM      9  C   UNL     1       4.100   6.008  17.383  0.00  0.00    +0.000 A 
ATOM     10  C   UNL     1       3.446   7.180  17.394  0.00  0.00    +0.000 A 
ATOM     11  N   UNL     1       2.693   7.608  18.488  0.00  0.00    +0.000 N 
ATOM     12  C   UNL     1       2.022   8.826  18.388  0.00  0.00    +0.000 A 
ATOM     13  O   UNL     1       2.033   9.541  17.387  0.00  0.00    +0.000 OA
ATOM     14  C   UNL     1       1.254   9.249  19.569  0.00  0.00    +0.000 A 
ATOM     15  C   UNL     1       0.556  10.461  19.563  0.00  0.00    +0.000 A 
ATOM     16  C   UNL     1      -0.177  10.861  20.685  0.00  0.00    +0.000 A 
ATOM     17  C   UNL     1      -0.913  12.172  20.648  0.00  0.00    +0.000 C 
ENDROOT
BRANCH   9  18
ATOM     18  C   UNL     1       4.927   5.563  16.224  0.00  0.00    +0.000 C 
ATOM     19  O   UNL     1       5.197   4.387  16.033  0.00  0.00    +0.000 OA
BRANCH  18  20
ATOM     20  O   UNL     1       5.338   6.530  15.377  0.00  0.00    +0.000 OA
ATOM     21  H   UNL     1       5.542   6.271  14.462  0.00  0.00    +0.000 HD
ENDBRANCH  18  20
ENDBRANCH   9  18
TORSDOF 2
ENDMDL
MODEL 3
REMARK VINA RESULT:      -7.1      2.312      3.210
REMARK  Name = 
REMARK  4 active torsions:
REMARK  status: ('A' for Active; 'I' for Inactive)
REMARK    1  A    between atoms: C_1  and  C_2
REMARK    2  A    between atoms: C_9  and  C_10
REMARK    3  A    between atoms: C_10  and  O_12
REMARK    4  A    between atoms: C_19  and  C_20
REMARK                            x       y       z     vdW  Elec       q    Type
REMARK                         _______ _______ _______ _____ _____    ______ ____
ROOT
ATOM      1  C   UNL     1      -0.516   9.311  22.653  0.00  0.00    +0.000 C 
ATOM      2  C   UNL     1       0.315   8.982  21.441  0.00  0.00    +0.000 A 
ATOM      3  C   UNL     1       1.046   7.778  21.406  0.00  0.00    +0.000 A 
ATOM      4  C   UNL     1       1.826   7.432  20.298  0.00  0.00    +0.000 A 
ATOM      5  N   UNL     1       2.533   6.222  20.305  0.00  0.00    +0.000 NA
ATOM      6  C   UNL     1       3.254   5.926  19.267  0.00  0.00    +0.000 A 
ATOM      7  C   UNL     1       4.018   4.648  19.253  0.00  0.00    +0.000 A 
ATOM      8  C   UNL     1       4.759   4.321  18.186  0.00  0.00    +0.000 A 
ATOM      9  C   UNL     1       4.846   5.195  17.029  0.00  0.00    +0.000 A 
ATOM     10  C   UNL     1       4.174   6.356  17.059  0.00  0.00    +0.000 A 
ATOM     11  N   UNL     1       3.373   6.731  18.138  0.00  0.00    +0.000 N 
ATOM     12  C   UNL     1       2.687   7.944  18.057  0.00  0.00    +0.000 A 
ATOM     13  O   UNL     1       2.726   8.696  17.084  0.00  0.00    +0.000 OA
ATOM     14  C   UNL     1       1.868   8.311  19.222  0.00  0.00    +0.000 A 
ATOM     15  C   UNL     1       1.153   9.512  19.234  0.00  0.00    +0.000 A 
ATOM     16  C   UNL     1       0.372   9.859  20.340  0.00  0.00    +0.000 A 
ATOM     17  C   UNL     1      -0.383  11.161  20.324  0.00  0.00    +0.000 C 
ENDROOT
BRANCH   9  18
ATOM     18  C   UNL     1       5.724   4.805  15.888  0.00  0.00    +0.000 C 
ATOM     19  O   UNL     1       5.950   3.636  15.613  0.00  0.00    +0.000 OA
BRANCH  18  20
ATOM     20  O   UNL     1       6.231   5.816  15.153  0.00  0.00    +0.000 OA
ATOM     21  H   UNL     1       7.157   5.742  14.863  0.00  0.00    +0.000 HD
ENDBRANCH  18  20
ENDBRANCH   9  18
TORSDOF 2
ENDMDL
MODEL 4
REMARK VINA RESULT:      -7.0      1.818      2.861
REMARK  Name = 
REMARK  4 active torsions:
REMARK  status: ('A' for Active; 'I' for Inactive)
REMARK    1  A    between atoms: C_1  and  C_2
REMARK    2  A    between atoms: C_9  and  C_10
REMARK    3  A    between atoms: C_10  and  O_12
REMARK    4  A    between atoms: C_19  and  C_20
REMARK                            x       y       z     vdW  Elec       q    Type
REMARK                         _______ _______ _______ _____ _____    ______ ____
ROOT
ATOM      1  C   UNL     1      -0.749  11.273  22.182  0.00  0.00    +0.000 C 
ATOM      2  C   UNL     1       0.024  10.480  21.161  0.00  0.00    +0.000 A 
ATOM      3  C   UNL     1       0.421   9.162  21.460  0.00  0.00    +0.000 A 
ATOM      4  C   UNL     1       1.136   8.391  20.538  0.00  0.00    +0.000 A 
ATOM      5  N   UNL     1       1.507   7.082  20.877  0.00  0.00    +0.000 NA
ATOM      6  C   UNL     1       2.173   6.388  20.006  0.00  0.00    +0.000 A 
ATOM      7  C   UNL     1       2.584   4.997  20.344  0.00  0.00    +0.000 A 
ATOM      8  C   UNL     1       3.263   4.262  19.455  0.00  0.00    +0.000 A 
ATOM      9  C   UNL     1       3.624   4.795  18.153  0.00  0.00    +0.000 A 
ATOM     10  C   UNL     1       3.272   6.058  17.864  0.00  0.00    +0.000 A 
ATOM     11  N   UNL     1       2.547   6.855  18.749  0.00  0.00    +0.000 N 
ATOM     12  C   UNL     1       2.201   8.144  18.340  0.00  0.00    +0.000 A 
ATOM     13  O   UNL     1       2.476   8.616  17.238  0.00  0.00    +0.000 OA
ATOM     14  C   UNL     1       1.451   8.958  19.309  0.00  0.00    +0.000 A 
ATOM     15  C   UNL     1       1.070  10.264  18.990  0.00  0.00    +0.000 A 
ATOM     16  C   UNL     1       0.354  11.037  19.910  0.00  0.00    +0.000 A 
ATOM     17  C   UNL     1      -0.039  12.441  19.537  0.00  0.00    +0.000 C 
ENDROOT
BRANCH   9  18
ATOM     18  C   UNL     1       4.423   3.951  17.218  0.00  0.00    +0.000 C 
ATOM     19  O   UNL     1       5.032   4.428  16.272  0.00  0.00    +0.000 OA
BRANCH  18  20
ATOM     20  O   UNL     1       4.464   2.631  17.492  0.00  0.00    +0.000 OA
ATOM     21  H   UNL     1       5.159   2.102  17.063  0.00  0.00    +0.000 HD
ENDBRANCH  18  20
ENDBRANCH   9  18
TORSDOF 2
ENDMDL
MODEL 5
REMARK VINA RESULT:      -7.0      1.425      2.526
REMARK  Name = 
REMARK  4 active torsions:
REMARK  status: ('A' for Active; 'I' for Inactive)
REMARK    1  A    between atoms: C_1  and  C_2
REMARK    2  A    between atoms: C_9  and  C_10
REMARK    3  A    between atoms: C_10  and  O_12
REMARK    4  A    between atoms: C_19  and  C_20
REMARK                            x       y       z     vdW  Elec       q    Type
REMARK                         _______ _______ _______ _____ _____    ______ ____
ROOT
ATOM      1  C   UNL     1       0.288  11.251  20.275  0.00  0.00    +0.000 C 
ATOM      2  C   UNL     1       1.009  10.020  19.794  0.00  0.00    +0.000 A 
ATOM      3  C   UNL     1       0.929   8.830  20.543  0.00  0.00    +0.000 A 
ATOM      4  C   UNL     1       1.579   7.663  20.129  0.00  0.00    +0.000 A 
ATOM      5  N   UNL     1       1.468   6.501  20.905  0.00  0.00    +0.000 NA
ATOM      6  C   UNL     1       2.085   5.433  20.501  0.00  0.00    +0.000 A 
ATOM      7  C   UNL     1       1.987   4.187  21.311  0.00  0.00    +0.000 A 
ATOM      8  C   UNL     1       2.608   3.072  20.905  0.00  0.00    +0.000 A 
ATOM      9  C   UNL     1       3.393   3.046  19.683  0.00  0.00    +0.000 A 
ATOM     10  C   UNL     1       3.498   4.179  18.972  0.00  0.00    +0.000 A 
ATOM     11  N   UNL     1       2.853   5.360  19.342  0.00  0.00    +0.000 N 
ATOM     12  C   UNL     1       2.997   6.475  18.516  0.00  0.00    +0.000 A 
ATOM     13  O   UNL     1       3.640   6.479  17.467  0.00  0.00    +0.000 OA
ATOM     14  C   UNL     1       2.316   7.703  18.951  0.00  0.00    +0.000 A 
ATOM     15  C   UNL     1       2.412   8.873  18.190  0.00  0.00    +0.000 A 
ATOM     16  C   UNL     1       1.761  10.040  18.603  0.00  0.00    +0.000 A 
ATOM     17  C   UNL     1       1.887  11.282  17.764  0.00  0.00    +0.000 C 
ENDROOT
BRANCH   9  18
ATOM     18  C   UNL     1       4.104   1.792  19.303  0.00  0.00    +0.000 C 
ATOM     19  O   UNL     1       3.726   1.086  18.379  0.00  0.00    +0.000 OA
BRANCH  18  20
ATOM     20  O   UNL     1       5.210   1.492  20.015  0.00  0.00    +0.000 OA
ATOM     21  H   UNL     1       5.568   2.180  20.603  0.00  0.00    +0.000 HD
ENDBRANCH  18  20
ENDBRANCH   9  18
TORSDOF 2
ENDMDL
MODEL 6
REMARK VINA RESULT:      -6.9      2.879      7.177
REMARK  Name = 
REMARK  4 active torsions:
REMARK  status: ('A' for Active; 'I' for Inactive)
REMARK    1  A    between atoms: C_1  and  C_2
REMARK    2  A    between atoms: C_9  and  C_10
REMARK    3  A    between atoms: C_10  and  O_12
REMARK    4  A    between atoms: C_19  and  C_20
REMARK                            x       y       z     vdW  Elec       q    Type
REMARK                         _______ _______ _______ _____ _____    ______ ____
ROOT
ATOM      1  C   UNL     1       4.112   2.796  19.594  0.00  0.00    +0.000 C 
ATOM      2  C   UNL     1       3.665   4.181  19.209  0.00  0.00    +0.000 A 
ATOM      3  C   UNL     1       2.912   4.947  20.120  0.00  0.00    +0.000 A 
ATOM      4  C   UNL     1       2.482   6.240  19.804  0.00  0.00    +0.000 A 
ATOM      5  N   UNL     1       1.737   6.967  20.743  0.00  0.00    +0.000 NA
ATOM      6  C   UNL     1       1.346   8.162  20.424  0.00  0.00    +0.000 A 
ATOM      7  C   UNL     1       0.550   8.953  21.403  0.00  0.00    +0.000 A 
ATOM      8  C   UNL     1       0.145  10.191  21.095  0.00  0.00    +0.000 A 
ATOM      9  C   UNL     1       0.460  10.792  19.810  0.00  0.00    +0.000 A 
ATOM     10  C   UNL     1       1.157  10.064  18.923  0.00  0.00    +0.000 A 
ATOM     11  N   UNL     1       1.617   8.778  19.205  0.00  0.00    +0.000 N 
ATOM     12  C   UNL     1       2.363   8.118  18.228  0.00  0.00    +0.000 A 
ATOM     13  O   UNL     1       2.660   8.607  17.139  0.00  0.00    +0.000 OA
ATOM     14  C   UNL     1       2.814   6.758  18.557  0.00  0.00    +0.000 A 
ATOM     15  C   UNL     1       3.559   6.017  17.635  0.00  0.00    +0.000 A 
ATOM     16  C   UNL     1       3.991   4.725  17.951  0.00  0.00    +0.000 A 
ATOM     17  C   UNL     1       4.789   3.952  16.935  0.00  0.00    +0.000 C 
ENDROOT
BRANCH   9  18
ATOM     18  C   UNL     1      -0.056  12.156  19.500  0.00  0.00    +0.000 C 
ATOM     19  O   UNL     1      -0.288  12.977  20.375  0.00  0.00    +0.000 OA
BRANCH  18  20
ATOM     20  O   UNL     1      -0.224  12.448  18.193  0.00  0.00    +0.000 OA
ATOM     21  H   UNL     1      -0.346  13.383  17.952  0.00  0.00    +0.000 HD
ENDBRANCH  18  20
ENDBRANCH   9  18
TORSDOF 2
ENDMDL
MODEL 7
REMARK VINA RESULT:      -6.9      3.292      7.267
REMARK  Name = 
REMARK  4 active torsions:
REMARK  status: ('A' for Active; 'I' for Inactive)
REMARK    1  A    between atoms: C_1  and  C_2
REMARK    2  A    between atoms: C_9  and  C_10
REMARK    3  A    between atoms: C_10  and  O_12
REMARK    4  A    between atoms: C_19  and  C_20
REMARK                            x       y       z     vdW  Elec       q    Type
REMARK                         _______ _______ _______ _____ _____    ______ ____
ROOT
ATOM      1  C   UNL     1       4.703   3.906  18.820  0.00  0.00    +0.000 C 
ATOM      2  C   UNL     1       3.981   5.220  18.684  0.00  0.00    +0.000 A 
ATOM      3  C   UNL     1       3.166   5.677  19.739  0.00  0.00    +0.000 A 
ATOM      4  C   UNL     1       2.482   6.894  19.655  0.00  0.00    +0.000 A 
ATOM      5  N   UNL     1       1.685   7.310  20.731  0.00  0.00    +0.000 NA
ATOM      6  C   UNL     1       1.057   8.440  20.627  0.00  0.00    +0.000 A 
ATOM      7  C   UNL     1       0.200   8.903  21.754  0.00  0.00    +0.000 A 
ATOM      8  C   UNL     1      -0.448  10.071  21.670  0.00  0.00    +0.000 A 
ATOM      9  C   UNL     1      -0.344  10.910  20.488  0.00  0.00    +0.000 A 
ATOM     10  C   UNL     1       0.411  10.476  19.466  0.00  0.00    +0.000 A 
ATOM     11  N   UNL     1       1.120   9.276  19.515  0.00  0.00    +0.000 N 
ATOM     12  C   UNL     1       1.904   8.930  18.414  0.00  0.00    +0.000 A 
ATOM     13  O   UNL     1       2.027   9.627  17.407  0.00  0.00    +0.000 OA
ATOM     14  C   UNL     1       2.622   7.650  18.498  0.00  0.00    +0.000 A 
ATOM     15  C   UNL     1       3.424   7.217  17.437  0.00  0.00    +0.000 A 
ATOM     16  C   UNL     1       4.110   6.001  17.519  0.00  0.00    +0.000 A 
ATOM     17  C   UNL     1       4.962   5.562  16.360  0.00  0.00    +0.000 C 
ENDROOT
BRANCH   9  18
ATOM     18  C   UNL     1      -1.125  12.179  20.426  0.00  0.00    +0.000 C 
ATOM     19  O   UNL     1      -1.172  12.959  21.365  0.00  0.00    +0.000 OA
BRANCH  18  20
ATOM     20  O   UNL     1      -1.754  12.437  19.260  0.00  0.00    +0.000 OA
ATOM     21  H   UNL     1      -2.685  12.716  19.303  0.00  0.00    +0.000 HD
ENDBRANCH  18  20
ENDBRANCH   9  18
TORSDOF 2
ENDMDL
MODEL 8
REMARK VINA RESULT:      -6.9      3.182      7.419
REMARK  Name = 
REMARK  4 active torsions:
REMARK  status: ('A' for Active; 'I' for Inactive)
REMARK    1  A    between atoms: C_1  and  C_2
REMARK    2  A    between atoms: C_9  and  C_10
REMARK    3  A    between atoms: C_10  and  O_12
REMARK    4  A    between atoms: C_19  and  C_20
REMARK                            x       y       z     vdW  Elec       q    Type
REMARK                         _______ _______ _______ _____ _____    ______ ____
ROOT
ATOM      1  C   UNL     1       3.233   3.503  20.392  0.00  0.00    +0.000 C 
ATOM      2  C   UNL     1       2.903   4.855  19.818  0.00  0.00    +0.000 A 
ATOM      3  C   UNL     1       2.167   5.777  20.588  0.00  0.00    +0.000 A 
ATOM      4  C   UNL     1       1.844   7.045  20.094  0.00  0.00    +0.000 A 
ATOM      5  N   UNL     1       1.112   7.930  20.897  0.00  0.00    +0.000 NA
ATOM      6  C   UNL     1       0.822   9.099  20.414  0.00  0.00    +0.000 A 
ATOM      7  C   UNL     1       0.041  10.057  21.247  0.00  0.00    +0.000 A 
ATOM      8  C   UNL     1      -0.260  11.270  20.769  0.00  0.00    +0.000 A 
ATOM      9  C   UNL     1       0.152  11.683  19.439  0.00  0.00    +0.000 A 
ATOM     10  C   UNL     1       0.835  10.807  18.685  0.00  0.00    +0.000 A 
ATOM     11  N   UNL     1       1.189   9.539  19.145  0.00  0.00    +0.000 N 
ATOM     12  C   UNL     1       1.929   8.714  18.297  0.00  0.00    +0.000 A 
ATOM     13  O   UNL     1       2.308   9.042  17.173  0.00  0.00    +0.000 OA
ATOM     14  C   UNL     1       2.267   7.380  18.813  0.00  0.00    +0.000 A 
ATOM     15  C   UNL     1       2.998   6.482  18.029  0.00  0.00    +0.000 A 
ATOM     16  C   UNL     1       3.323   5.214  18.521  0.00  0.00    +0.000 A 
ATOM     17  C   UNL     1       4.107   4.270  17.651  0.00  0.00    +0.000 C 
ENDROOT
BRANCH   9  18
ATOM     18  C   UNL     1      -0.251  13.029  18.938  0.00  0.00    +0.000 C 
ATOM     19  O   UNL     1      -0.044  14.049  19.578  0.00  0.00    +0.000 OA
BRANCH  18  20
ATOM     20  O   UNL     1      -0.831  13.064  17.720  0.00  0.00    +0.000 OA
ATOM     21  H   UNL     1      -1.427  12.332  17.484  0.00  0.00    +0.000 HD
ENDBRANCH  18  20
ENDBRANCH   9  18
TORSDOF 2
ENDMDL
MODEL 9
REMARK VINA RESULT:      -6.8      2.253      3.471
REMARK  Name = 
REMARK  4 active torsions:
REMARK  status: ('A' for Active; 'I' for Inactive)
REMARK    1  A    between atoms: C_1  and  C_2
REMARK    2  A    between atoms: C_9  and  C_10
REMARK    3  A    between atoms: C_10  and  O_12
REMARK    4  A    between atoms: C_19  and  C_20
REMARK                            x       y       z     vdW  Elec       q    Type
REMARK                         _______ _______ _______ _____ _____    ______ ____
ROOT
ATOM      1  C   UNL     1      -1.227  11.466  22.848  0.00  0.00    +0.000 C 
ATOM      2  C   UNL     1      -0.440  10.867  21.712  0.00  0.00    +0.000 A 
ATOM      3  C   UNL     1       0.114   9.580  21.853  0.00  0.00    +0.000 A 
ATOM      4  C   UNL     1       0.846   8.985  20.821  0.00  0.00    +0.000 A 
ATOM      5  N   UNL     1       1.377   7.701  21.005  0.00  0.00    +0.000 NA
ATOM      6  C   UNL     1       2.056   7.173  20.034  0.00  0.00    +0.000 A 
ATOM      7  C   UNL     1       2.634   5.811  20.206  0.00  0.00    +0.000 A 
ATOM      8  C   UNL     1       3.330   5.246  19.212  0.00  0.00    +0.000 A 
ATOM      9  C   UNL     1       3.548   5.938  17.953  0.00  0.00    +0.000 A 
ATOM     10  C   UNL     1       3.045   7.175  17.813  0.00  0.00    +0.000 A 
ATOM     11  N   UNL     1       2.297   7.797  18.813  0.00  0.00    +0.000 N 
ATOM     12  C   UNL     1       1.789   9.071  18.556  0.00  0.00    +0.000 A 
ATOM     13  O   UNL     1       1.941   9.675  17.495  0.00  0.00    +0.000 OA
ATOM     14  C   UNL     1       1.020   9.699  19.641  0.00  0.00    +0.000 A 
ATOM     15  C   UNL     1       0.481  10.979  19.477  0.00  0.00    +0.000 A 
ATOM     16  C   UNL     1      -0.252  11.574  20.508  0.00  0.00    +0.000 A 
ATOM     17  C   UNL     1      -0.816  12.954  20.302  0.00  0.00    +0.000 C 
ENDROOT
BRANCH   9  18
ATOM     18  C   UNL     1       4.371   5.282  16.896  0.00  0.00    +0.000 C 
ATOM     19  O   UNL     1       5.104   5.920  16.156  0.00  0.00    +0.000 OA
BRANCH  18  20
ATOM     20  O   UNL     1       4.286   3.938  16.821  0.00  0.00    +0.000 OA
ATOM     21  H   UNL     1       3.972   3.552  15.985  0.00  0.00    +0.000 HD
ENDBRANCH  18  20
ENDBRANCH   9  18
TORSDOF 2
ENDMDL
