MODEL 1
REMARK VINA RESULT:      -7.9      0.000      0.000
REMARK  Name = 
REMARK  5 active torsions:
REMARK  status: ('A' for Active; 'I' for Inactive)
REMARK    1  A    between atoms: C_1  and  O_2
REMARK    2  A    between atoms: O_2  and  C_3
REMARK    3  A    between atoms: C_8  and  C_9
REMARK    4  A    between atoms: C_16  and  C_18
REMARK    5  A    between atoms: C_18  and  C_19
REMARK                            x       y       z     vdW  Elec       q    Type
REMARK                         _______ _______ _______ _____ _____    ______ ____
ROOT
ATOM      1  C   UNL     1       4.623   3.791  18.528  0.00  0.00    +0.000 A 
ATOM      2  N   UNL     1       4.940   2.723  19.297  0.00  0.00    +0.000 NA
ATOM      3  N   UNL     1       4.068   2.748  20.315  0.00  0.00    +0.000 N 
ATOM      4  C   UNL     1       3.210   3.788  20.243  0.00  0.00    +0.000 A 
ATOM      5  C   UNL     1       3.520   4.484  19.089  0.00  0.00    +0.000 A 
ATOM      6  C   UNL     1       2.800   5.717  18.658  0.00  0.00    +0.000 C 
ATOM      7  N   UNL     1       1.976   6.211  19.773  0.00  0.00    +0.000 N 
ATOM      8  C   UNL     1       1.870   7.583  19.933  0.00  0.00    +0.000 C 
ATOM      9  O   UNL     1       2.424   8.382  19.179  0.00  0.00    +0.000 OA
ATOM     10  C   UNL     1       1.218   5.180  20.522  0.00  0.00    +0.000 C 
ATOM     11  C   UNL     1       2.169   4.181  21.219  0.00  0.00    +0.000 C 
ATOM     12  H   UNL     1       4.152   2.034  21.037  0.00  0.00    +0.000 HD
ENDROOT
BRANCH   1  18
ATOM     13  C   UNL     1       6.778   4.543  17.381  0.00  0.00    +0.000 A 
ATOM     14  C   UNL     1       7.448   4.827  16.183  0.00  0.00    +0.000 A 
ATOM     15  C   UNL     1       6.800   4.761  14.962  0.00  0.00    +0.000 A 
ATOM     16  C   UNL     1       5.473   4.355  14.906  0.00  0.00    +0.000 A 
ATOM     17  C   UNL     1       4.802   4.024  16.084  0.00  0.00    +0.000 A 
ATOM     18  C   UNL     1       5.432   4.117  17.340  0.00  0.00    +0.000 A 
BRANCH  13  20
ATOM     19  C   UNL     1       7.769   6.017  18.934  0.00  0.00    +0.000 C 
ATOM     20  O   UNL     1       7.423   4.677  18.584  0.00  0.00    +0.000 OA
ENDBRANCH  13  20
ENDBRANCH   1  18
BRANCH   8  21
ATOM     21  C   UNL     1       1.045   8.098  21.102  0.00  0.00    +0.000 C 
BRANCH  21  22
ATOM     22  C   UNL     1       0.437   9.454  20.871  0.00  0.00    +0.000 A 
ATOM     23  C   UNL     1      -0.495   9.801  19.836  0.00  0.00    +0.000 A 
ATOM     24  C   UNL     1      -0.864  11.129  19.871  0.00  0.00    +0.000 A 
ATOM     25  S   UNL     1      -0.077  11.977  21.128  0.00  0.00    +0.000 S 
ATOM     26  C   UNL     1       0.747  10.568  21.633  0.00  0.00    +0.000 A 
ENDBRANCH  21  22
ENDBRANCH   8  21
TORSDOF 4
ENDMDL
MODEL 2
REMARK VINA RESULT:      -7.3      1.213      1.393
REMARK  Name = 
REMARK  5 active torsions:
REMARK  status: ('A' for Active; 'I' for Inactive)
REMARK    1  A    between atoms: C_1  and  O_2
REMARK    2  A    between atoms: O_2  and  C_3
REMARK    3  A    between atoms: C_8  and  C_9
REMARK    4  A    between atoms: C_16  and  C_18
REMARK    5  A    between atoms: C_18  and  C_19
REMARK                            x       y       z     vdW  Elec       q    Type
REMARK                         _______ _______ _______ _____ _____    ______ ____
ROOT
ATOM      1  C   UNL     1       5.011   4.286  17.904  0.00  0.00    +0.000 A 
ATOM      2  N   UNL     1       5.456   3.382  18.809  0.00  0.00    +0.000 NA
ATOM      3  N   UNL     1       4.661   3.530  19.878  0.00  0.00    +0.000 N 
ATOM      4  C   UNL     1       3.731   4.494  19.709  0.00  0.00    +0.000 A 
ATOM      5  C   UNL     1       3.907   5.002  18.434  0.00  0.00    +0.000 A 
ATOM      6  C   UNL     1       3.074   6.102  17.869  0.00  0.00    +0.000 C 
ATOM      7  N   UNL     1       2.302   6.731  18.953  0.00  0.00    +0.000 N 
ATOM      8  C   UNL     1       2.115   8.103  18.894  0.00  0.00    +0.000 C 
ATOM      9  O   UNL     1       2.556   8.792  17.975  0.00  0.00    +0.000 OA
ATOM     10  C   UNL     1       1.674   5.801  19.921  0.00  0.00    +0.000 C 
ATOM     11  C   UNL     1       2.739   4.988  20.690  0.00  0.00    +0.000 C 
ATOM     12  H   UNL     1       4.846   2.954  20.698  0.00  0.00    +0.000 HD
ENDROOT
BRANCH   1  18
ATOM     13  C   UNL     1       6.971   5.063  16.461  0.00  0.00    +0.000 A 
ATOM     14  C   UNL     1       7.535   5.166  15.183  0.00  0.00    +0.000 A 
ATOM     15  C   UNL     1       6.853   4.737  14.057  0.00  0.00    +0.000 A 
ATOM     16  C   UNL     1       5.604   4.145  14.191  0.00  0.00    +0.000 A 
ATOM     17  C   UNL     1       5.045   3.992  15.460  0.00  0.00    +0.000 A 
ATOM     18  C   UNL     1       5.707   4.451  16.615  0.00  0.00    +0.000 A 
BRANCH  13  20
ATOM     19  C   UNL     1       7.538   6.963  17.739  0.00  0.00    +0.000 C 
ATOM     20  O   UNL     1       7.639   5.552  17.555  0.00  0.00    +0.000 OA
ENDBRANCH  13  20
ENDBRANCH   1  18
BRANCH   8  21
ATOM     21  C   UNL     1       1.344   8.760  20.028  0.00  0.00    +0.000 C 
BRANCH  21  22
ATOM     22  C   UNL     1       0.649  10.035  19.636  0.00  0.00    +0.000 A 
ATOM     23  C   UNL     1       1.136  11.369  19.852  0.00  0.00    +0.000 A 
ATOM     24  C   UNL     1       0.267  12.336  19.394  0.00  0.00    +0.000 A 
ATOM     25  S   UNL     1      -1.150  11.657  18.725  0.00  0.00    +0.000 S 
ATOM     26  C   UNL     1      -0.598  10.070  19.036  0.00  0.00    +0.000 A 
ENDBRANCH  21  22
ENDBRANCH   8  21
TORSDOF 4
ENDMDL
MODEL 3
REMARK VINA RESULT:      -7.3      3.312      7.609
REMARK  Name = 
REMARK  5 active torsions:
REMARK  status: ('A' for Active; 'I' for Inactive)
REMARK    1  A    between atoms: C_1  and  O_2
REMARK    2  A    between atoms: O_2  and  C_3
REMARK    3  A    between atoms: C_8  and  C_9
REMARK    4  A    between atoms: C_16  and  C_18
REMARK    5  A    between atoms: C_18  and  C_19
REMARK                            x       y       z     vdW  Elec       q    Type
REMARK                         _______ _______ _______ _____ _____    ______ ____
ROOT
ATOM      1  C   UNL     1       2.531   6.619  19.570  0.00  0.00    +0.000 A 
ATOM      2  N   UNL     1       1.910   5.684  20.328  0.00  0.00    +0.000 NA
ATOM      3  N   UNL     1       2.707   4.608  20.286  0.00  0.00    +0.000 N 
ATOM      4  C   UNL     1       3.808   4.801  19.529  0.00  0.00    +0.000 A 
ATOM      5  C   UNL     1       3.747   6.100  19.056  0.00  0.00    +0.000 A 
ATOM      6  C   UNL     1       4.782   6.697  18.165  0.00  0.00    +0.000 C 
ATOM      7  N   UNL     1       5.650   5.626  17.646  0.00  0.00    +0.000 N 
ATOM      8  C   UNL     1       6.099   5.742  16.340  0.00  0.00    +0.000 C 
ATOM      9  O   UNL     1       5.809   6.698  15.623  0.00  0.00    +0.000 OA
ATOM     10  C   UNL     1       6.076   4.607  18.633  0.00  0.00    +0.000 C 
ATOM     11  C   UNL     1       4.866   3.823  19.189  0.00  0.00    +0.000 C 
ATOM     12  H   UNL     1       2.406   3.767  20.777  0.00  0.00    +0.000 HD
ENDROOT
BRANCH   1  18
ATOM     13  C   UNL     1       1.324   8.734  20.345  0.00  0.00    +0.000 A 
ATOM     14  C   UNL     1       0.743   9.961  20.001  0.00  0.00    +0.000 A 
ATOM     15  C   UNL     1       0.658  10.374  18.682  0.00  0.00    +0.000 A 
ATOM     16  C   UNL     1       1.202   9.587  17.676  0.00  0.00    +0.000 A 
ATOM     17  C   UNL     1       1.826   8.382  18.004  0.00  0.00    +0.000 A 
ATOM     18  C   UNL     1       1.894   7.927  19.334  0.00  0.00    +0.000 A 
BRANCH  13  20
ATOM     19  C   UNL     1       0.775   9.238  22.583  0.00  0.00    +0.000 C 
ATOM     20  O   UNL     1       1.341   8.316  21.652  0.00  0.00    +0.000 OA
ENDBRANCH  13  20
ENDBRANCH   1  18
BRANCH   8  21
ATOM     21  C   UNL     1       6.970   4.623  15.791  0.00  0.00    +0.000 C 
BRANCH  21  22
ATOM     22  C   UNL     1       6.755   4.343  14.329  0.00  0.00    +0.000 A 
ATOM     23  C   UNL     1       7.547   4.849  13.242  0.00  0.00    +0.000 A 
ATOM     24  C   UNL     1       7.095   4.428  12.010  0.00  0.00    +0.000 A 
ATOM     25  S   UNL     1       5.704   3.445  12.142  0.00  0.00    +0.000 S 
ATOM     26  C   UNL     1       5.712   3.572  13.845  0.00  0.00    +0.000 A 
ENDBRANCH  21  22
ENDBRANCH   8  21
TORSDOF 4
ENDMDL
MODEL 4
REMARK VINA RESULT:      -6.9      3.036      4.271
REMARK  Name = 
REMARK  5 active torsions:
REMARK  status: ('A' for Active; 'I' for Inactive)
REMARK    1  A    between atoms: C_1  and  O_2
REMARK    2  A    between atoms: O_2  and  C_3
REMARK    3  A    between atoms: C_8  and  C_9
REMARK    4  A    between atoms: C_16  and  C_18
REMARK    5  A    between atoms: C_18  and  C_19
REMARK                            x       y       z     vdW  Elec       q    Type
REMARK                         _______ _______ _______ _____ _____    ______ ____
ROOT
ATOM      1  C   UNL     1       2.794   6.477  19.087  0.00  0.00    +0.000 A 
ATOM      2  N   UNL     1       2.691   5.827  20.270  0.00  0.00    +0.000 NA
ATOM      3  N   UNL     1       1.948   6.625  21.049  0.00  0.00    +0.000 N 
ATOM      4  C   UNL     1       1.576   7.764  20.428  0.00  0.00    +0.000 A 
ATOM      5  C   UNL     1       2.087   7.706  19.144  0.00  0.00    +0.000 A 
ATOM      6  C   UNL     1       1.901   8.791  18.139  0.00  0.00    +0.000 C 
ATOM      7  N   UNL     1       1.395   9.996  18.816  0.00  0.00    +0.000 N 
ATOM      8  C   UNL     1       1.855  11.224  18.367  0.00  0.00    +0.000 C 
ATOM      9  O   UNL     1       2.648  11.333  17.432  0.00  0.00    +0.000 OA
ATOM     10  C   UNL     1       0.323   9.773  19.814  0.00  0.00    +0.000 C 
ATOM     11  C   UNL     1       0.824   8.908  20.991  0.00  0.00    +0.000 C 
ATOM     12  H   UNL     1       1.771   6.330  22.009  0.00  0.00    +0.000 HD
ENDROOT
BRANCH   1  18
ATOM     13  C   UNL     1       3.521   4.582  17.536  0.00  0.00    +0.000 A 
ATOM     14  C   UNL     1       4.354   4.156  16.492  0.00  0.00    +0.000 A 
ATOM     15  C   UNL     1       5.309   4.995  15.945  0.00  0.00    +0.000 A 
ATOM     16  C   UNL     1       5.419   6.303  16.396  0.00  0.00    +0.000 A 
ATOM     17  C   UNL     1       4.568   6.760  17.404  0.00  0.00    +0.000 A 
ATOM     18  C   UNL     1       3.612   5.914  17.998  0.00  0.00    +0.000 A 
BRANCH  13  20
ATOM     19  C   UNL     1       2.756   2.355  17.689  0.00  0.00    +0.000 C 
ATOM     20  O   UNL     1       2.625   3.714  18.105  0.00  0.00    +0.000 OA
ENDBRANCH  13  20
ENDBRANCH   1  18
BRANCH   8  21
ATOM     21  C   UNL     1       1.358  12.470  19.083  0.00  0.00    +0.000 C 
BRANCH  21  22
ATOM     22  C   UNL     1       2.410  13.528  19.270  0.00  0.00    +0.000 A 
ATOM     23  C   UNL     1       2.970  14.360  18.242  0.00  0.00    +0.000 A 
ATOM     24  C   UNL     1       3.927  15.229  18.719  0.00  0.00    +0.000 A 
ATOM     25  S   UNL     1       4.183  15.039  20.396  0.00  0.00    +0.000 S 
ATOM     26  C   UNL     1       3.007  13.803  20.489  0.00  0.00    +0.000 A 
ENDBRANCH  21  22
ENDBRANCH   8  21
TORSDOF 4
ENDMDL
MODEL 5
REMARK VINA RESULT:      -6.9      2.748      4.596
REMARK  Name = 
REMARK  5 active torsions:
REMARK  status: ('A' for Active; 'I' for Inactive)
REMARK    1  A    between atoms: C_1  and  O_2
REMARK    2  A    between atoms: O_2  and  C_3
REMARK    3  A    between atoms: C_8  and  C_9
REMARK    4  A    between atoms: C_16  and  C_18
REMARK    5  A    between atoms: C_18  and  C_19
REMARK                            x       y       z     vdW  Elec       q    Type
REMARK                         _______ _______ _______ _____ _____    ______ ____
ROOT
ATOM      1  C   UNL     1       2.833   6.242  18.796  0.00  0.00    +0.000 A 
ATOM      2  N   UNL     1       3.369   6.216  17.553  0.00  0.00    +0.000 NA
ATOM      3  N   UNL     1       3.204   7.456  17.071  0.00  0.00    +0.000 N 
ATOM      4  C   UNL     1       2.578   8.277  17.940  0.00  0.00    +0.000 A 
ATOM      5  C   UNL     1       2.332   7.538  19.083  0.00  0.00    +0.000 A 
ATOM      6  C   UNL     1       1.638   8.089  20.282  0.00  0.00    +0.000 C 
ATOM      7  N   UNL     1       1.011   9.374  19.929  0.00  0.00    +0.000 N 
ATOM      8  C   UNL     1      -0.217   9.666  20.501  0.00  0.00    +0.000 C 
ATOM      9  O   UNL     1      -0.780   8.904  21.285  0.00  0.00    +0.000 OA
ATOM     10  C   UNL     1       1.838  10.293  19.112  0.00  0.00    +0.000 C 
ATOM     11  C   UNL     1       2.157   9.680  17.730  0.00  0.00    +0.000 C 
ATOM     12  H   UNL     1       3.519   7.647  16.120  0.00  0.00    +0.000 HD
ENDROOT
BRANCH   1  18
ATOM     13  C   UNL     1       3.782   4.020  19.625  0.00  0.00    +0.000 A 
ATOM     14  C   UNL     1       3.619   2.888  20.436  0.00  0.00    +0.000 A 
ATOM     15  C   UNL     1       2.464   2.691  21.173  0.00  0.00    +0.000 A 
ATOM     16  C   UNL     1       1.462   3.651  21.156  0.00  0.00    +0.000 A 
ATOM     17  C   UNL     1       1.625   4.807  20.390  0.00  0.00    +0.000 A 
ATOM     18  C   UNL     1       2.777   5.012  19.607  0.00  0.00    +0.000 A 
BRANCH  13  20
ATOM     19  C   UNL     1       5.936   4.965  19.437  0.00  0.00    +0.000 C 
ATOM     20  O   UNL     1       4.908   4.163  18.854  0.00  0.00    +0.000 OA
ENDBRANCH  13  20
ENDBRANCH   1  18
BRANCH   8  21
ATOM     21  C   UNL     1      -0.882  10.979  20.116  0.00  0.00    +0.000 C 
BRANCH  21  22
ATOM     22  C   UNL     1      -1.775  10.880  18.909  0.00  0.00    +0.000 A 
ATOM     23  C   UNL     1      -1.551  10.059  17.752  0.00  0.00    +0.000 A 
ATOM     24  C   UNL     1      -2.541  10.193  16.802  0.00  0.00    +0.000 A 
ATOM     25  S   UNL     1      -3.733  11.320  17.276  0.00  0.00    +0.000 S 
ATOM     26  C   UNL     1      -2.934  11.622  18.756  0.00  0.00    +0.000 A 
ENDBRANCH  21  22
ENDBRANCH   8  21
TORSDOF 4
ENDMDL
MODEL 6
REMARK VINA RESULT:      -6.8      2.202      3.317
REMARK  Name = 
REMARK  5 active torsions:
REMARK  status: ('A' for Active; 'I' for Inactive)
REMARK    1  A    between atoms: C_1  and  O_2
REMARK    2  A    between atoms: O_2  and  C_3
REMARK    3  A    between atoms: C_8  and  C_9
REMARK    4  A    between atoms: C_16  and  C_18
REMARK    5  A    between atoms: C_18  and  C_19
REMARK                            x       y       z     vdW  Elec       q    Type
REMARK                         _______ _______ _______ _____ _____    ______ ____
ROOT
ATOM      1  C   UNL     1       3.111   6.099  18.957  0.00  0.00    +0.000 A 
ATOM      2  N   UNL     1       3.129   5.323  20.067  0.00  0.00    +0.000 NA
ATOM      3  N   UNL     1       2.346   5.954  20.952  0.00  0.00    +0.000 N 
ATOM      4  C   UNL     1       1.831   7.105  20.470  0.00  0.00    +0.000 A 
ATOM      5  C   UNL     1       2.286   7.233  19.170  0.00  0.00    +0.000 A 
ATOM      6  C   UNL     1       1.946   8.391  18.294  0.00  0.00    +0.000 C 
ATOM      7  N   UNL     1       1.351   9.459  19.113  0.00  0.00    +0.000 N 
ATOM      8  C   UNL     1       1.662  10.769  18.783  0.00  0.00    +0.000 C 
ATOM      9  O   UNL     1       2.396  11.056  17.838  0.00  0.00    +0.000 OA
ATOM     10  C   UNL     1       0.354   9.022  20.118  0.00  0.00    +0.000 C 
ATOM     11  C   UNL     1       0.993   8.099  21.178  0.00  0.00    +0.000 C 
ATOM     12  H   UNL     1       2.243   5.545  21.880  0.00  0.00    +0.000 HD
ENDROOT
BRANCH   1  18
ATOM     13  C   UNL     1       3.854   4.507  17.103  0.00  0.00    +0.000 A 
ATOM     14  C   UNL     1       4.688   4.277  16.000  0.00  0.00    +0.000 A 
ATOM     15  C   UNL     1       5.632   5.208  15.603  0.00  0.00    +0.000 A 
ATOM     16  C   UNL     1       5.728   6.421  16.273  0.00  0.00    +0.000 A 
ATOM     17  C   UNL     1       4.876   6.687  17.345  0.00  0.00    +0.000 A 
ATOM     18  C   UNL     1       3.932   5.741  17.786  0.00  0.00    +0.000 A 
BRANCH  13  20
ATOM     19  C   UNL     1       3.571   2.326  17.956  0.00  0.00    +0.000 C 
ATOM     20  O   UNL     1       2.970   3.543  17.516  0.00  0.00    +0.000 OA
ENDBRANCH  13  20
ENDBRANCH   1  18
BRANCH   8  21
ATOM     21  C   UNL     1       1.074  11.875  19.645  0.00  0.00    +0.000 C 
BRANCH  21  22
ATOM     22  C   UNL     1      -0.416  12.026  19.513  0.00  0.00    +0.000 A 
ATOM     23  C   UNL     1      -1.192  11.783  18.328  0.00  0.00    +0.000 A 
ATOM     24  C   UNL     1      -2.537  12.022  18.512  0.00  0.00    +0.000 A 
ATOM     25  S   UNL     1      -2.879  12.563  20.095  0.00  0.00    +0.000 S 
ATOM     26  C   UNL     1      -1.232  12.468  20.540  0.00  0.00    +0.000 A 
ENDBRANCH  21  22
ENDBRANCH   8  21
TORSDOF 4
ENDMDL
MODEL 7
REMARK VINA RESULT:      -6.8      4.176      9.248
REMARK  Name = 
REMARK  5 active torsions:
REMARK  status: ('A' for Active; 'I' for Inactive)
REMARK    1  A    between atoms: C_1  and  O_2
REMARK    2  A    between atoms: O_2  and  C_3
REMARK    3  A    between atoms: C_8  and  C_9
REMARK    4  A    between atoms: C_16  and  C_18
REMARK    5  A    between atoms: C_18  and  C_19
REMARK                            x       y       z     vdW  Elec       q    Type
REMARK                         _______ _______ _______ _____ _____    ______ ____
ROOT
ATOM      1  C   UNL     1      -0.355  12.286  20.132  0.00  0.00    +0.000 A 
ATOM      2  N   UNL     1       0.193  13.432  19.660  0.00  0.00    +0.000 NA
ATOM      3  N   UNL     1       1.163  13.040  18.823  0.00  0.00    +0.000 N 
ATOM      4  C   UNL     1       1.274  11.697  18.740  0.00  0.00    +0.000 A 
ATOM      5  C   UNL     1       0.295  11.163  19.560  0.00  0.00    +0.000 A 
ATOM      6  C   UNL     1       0.098   9.698  19.752  0.00  0.00    +0.000 C 
ATOM      7  N   UNL     1       1.261   8.977  19.209  0.00  0.00    +0.000 N 
ATOM      8  C   UNL     1       1.691   7.849  19.889  0.00  0.00    +0.000 C 
ATOM      9  O   UNL     1       1.133   7.437  20.905  0.00  0.00    +0.000 OA
ATOM     10  C   UNL     1       1.759   9.453  17.897  0.00  0.00    +0.000 C 
ATOM     11  C   UNL     1       2.272  10.907  17.985  0.00  0.00    +0.000 C 
ATOM     12  H   UNL     1       1.729  13.759  18.373  0.00  0.00    +0.000 HD
ENDROOT
BRANCH   1  18
ATOM     13  C   UNL     1      -1.316  11.808  22.451  0.00  0.00    +0.000 A 
ATOM     14  C   UNL     1      -2.402  11.914  23.330  0.00  0.00    +0.000 A 
ATOM     15  C   UNL     1      -3.603  12.471  22.928  0.00  0.00    +0.000 A 
ATOM     16  C   UNL     1      -3.729  12.985  21.644  0.00  0.00    +0.000 A 
ATOM     17  C   UNL     1      -2.645  12.931  20.768  0.00  0.00    +0.000 A 
ATOM     18  C   UNL     1      -1.424  12.338  21.146  0.00  0.00    +0.000 A 
BRANCH  13  20
ATOM     19  C   UNL     1      -0.304   9.833  23.253  0.00  0.00    +0.000 C 
ATOM     20  O   UNL     1      -0.156  11.195  22.852  0.00  0.00    +0.000 OA
ENDBRANCH  13  20
ENDBRANCH   1  18
BRANCH   8  21
ATOM     21  C   UNL     1       2.911   7.120  19.349  0.00  0.00    +0.000 C 
BRANCH  21  22
ATOM     22  C   UNL     1       2.683   5.655  19.095  0.00  0.00    +0.000 A 
ATOM     23  C   UNL     1       1.999   5.084  17.968  0.00  0.00    +0.000 A 
ATOM     24  C   UNL     1       1.938   3.708  18.021  0.00  0.00    +0.000 A 
ATOM     25  S   UNL     1       2.675   3.089  19.431  0.00  0.00    +0.000 S 
ATOM     26  C   UNL     1       3.087   4.658  19.968  0.00  0.00    +0.000 A 
ENDBRANCH  21  22
ENDBRANCH   8  21
TORSDOF 4
ENDMDL
MODEL 8
REMARK VINA RESULT:      -6.7      2.803      4.333
REMARK  Name = 
REMARK  5 active torsions:
REMARK  status: ('A' for Active; 'I' for Inactive)
REMARK    1  A    between atoms: C_1  and  O_2
REMARK    2  A    between atoms: O_2  and  C_3
REMARK    3  A    between atoms: C_8  and  C_9
REMARK    4  A    between atoms: C_16  and  C_18
REMARK    5  A    between atoms: C_18  and  C_19
REMARK                            x       y       z     vdW  Elec       q    Type
REMARK                         _______ _______ _______ _____ _____    ______ ____
ROOT
ATOM      1  C   UNL     1       6.642   4.912  15.527  0.00  0.00    +0.000 A 
ATOM      2  N   UNL     1       7.589   5.829  15.840  0.00  0.00    +0.000 NA
ATOM      3  N   UNL     1       7.410   6.091  17.142  0.00  0.00    +0.000 N 
ATOM      4  C   UNL     1       6.387   5.394  17.682  0.00  0.00    +0.000 A 
ATOM      5  C   UNL     1       5.868   4.600  16.674  0.00  0.00    +0.000 A 
ATOM      6  C   UNL     1       4.708   3.684  16.869  0.00  0.00    +0.000 C 
ATOM      7  N   UNL     1       4.052   4.000  18.149  0.00  0.00    +0.000 N 
ATOM      8  C   UNL     1       2.670   3.907  18.201  0.00  0.00    +0.000 C 
ATOM      9  O   UNL     1       1.994   3.564  17.232  0.00  0.00    +0.000 OA
ATOM     10  C   UNL     1       4.958   4.240  19.296  0.00  0.00    +0.000 C 
ATOM     11  C   UNL     1       5.850   5.479  19.058  0.00  0.00    +0.000 C 
ATOM     12  H   UNL     1       8.012   6.789  17.578  0.00  0.00    +0.000 HD
ENDROOT
BRANCH   1  18
ATOM     13  C   UNL     1       7.397   4.739  13.092  0.00  0.00    +0.000 A 
ATOM     14  C   UNL     1       7.155   4.232  11.808  0.00  0.00    +0.000 A 
ATOM     15  C   UNL     1       6.019   3.493  11.527  0.00  0.00    +0.000 A 
ATOM     16  C   UNL     1       5.119   3.199  12.543  0.00  0.00    +0.000 A 
ATOM     17  C   UNL     1       5.365   3.656  13.838  0.00  0.00    +0.000 A 
ATOM     18  C   UNL     1       6.497   4.438  14.139  0.00  0.00    +0.000 A 
BRANCH  13  20
ATOM     19  C   UNL     1       8.854   6.401  12.266  0.00  0.00    +0.000 C 
ATOM     20  O   UNL     1       8.497   5.522  13.333  0.00  0.00    +0.000 OA
ENDBRANCH  13  20
ENDBRANCH   1  18
BRANCH   8  21
ATOM     21  C   UNL     1       1.986   4.262  19.512  0.00  0.00    +0.000 C 
BRANCH  21  22
ATOM     22  C   UNL     1       1.870   5.741  19.759  0.00  0.00    +0.000 A 
ATOM     23  C   UNL     1       2.245   6.786  18.848  0.00  0.00    +0.000 A 
ATOM     24  C   UNL     1       2.033   8.047  19.363  0.00  0.00    +0.000 A 
ATOM     25  S   UNL     1       1.408   7.990  20.951  0.00  0.00    +0.000 S 
ATOM     26  C   UNL     1       1.409   6.282  20.947  0.00  0.00    +0.000 A 
ENDBRANCH  21  22
ENDBRANCH   8  21
TORSDOF 4
ENDMDL
MODEL 9
REMARK VINA RESULT:      -6.6      4.527      7.358
REMARK  Name = 
REMARK  5 active torsions:
REMARK  status: ('A' for Active; 'I' for Inactive)
REMARK    1  A    between atoms: C_1  and  O_2
REMARK    2  A    between atoms: O_2  and  C_3
REMARK    3  A    between atoms: C_8  and  C_9
REMARK    4  A    between atoms: C_16  and  C_18
REMARK    5  A    between atoms: C_18  and  C_19
REMARK                            x       y       z     vdW  Elec       q    Type
REMARK                         _______ _______ _______ _____ _____    ______ ____
ROOT
ATOM      1  C   UNL     1       1.348  10.200  18.738  0.00  0.00    +0.000 A 
ATOM      2  N   UNL     1       2.275  11.150  18.467  0.00  0.00    +0.000 NA
ATOM      3  N   UNL     1       1.578  12.279  18.273  0.00  0.00    +0.000 N 
ATOM      4  C   UNL     1       0.245  12.100  18.396  0.00  0.00    +0.000 A 
ATOM      5  C   UNL     1       0.048  10.768  18.716  0.00  0.00    +0.000 A 
ATOM      6  C   UNL     1      -1.300  10.167  18.923  0.00  0.00    +0.000 C 
ATOM      7  N   UNL     1      -2.328  11.103  18.437  0.00  0.00    +0.000 N 
ATOM      8  C   UNL     1      -3.443  10.563  17.815  0.00  0.00    +0.000 C 
ATOM      9  O   UNL     1      -3.600   9.352  17.673  0.00  0.00    +0.000 OA
ATOM     10  C   UNL     1      -2.129  12.525  18.801  0.00  0.00    +0.000 C 
ATOM     11  C   UNL     1      -0.833  13.089  18.176  0.00  0.00    +0.000 C 
ATOM     12  H   UNL     1       2.091  13.123  18.025  0.00  0.00    +0.000 HD
ENDROOT
BRANCH   1  18
ATOM     13  C   UNL     1       1.687   8.115  20.175  0.00  0.00    +0.000 A 
ATOM     14  C   UNL     1       2.108   6.781  20.248  0.00  0.00    +0.000 A 
ATOM     15  C   UNL     1       2.651   6.135  19.150  0.00  0.00    +0.000 A 
ATOM     16  C   UNL     1       2.738   6.798  17.933  0.00  0.00    +0.000 A 
ATOM     17  C   UNL     1       2.282   8.112  17.829  0.00  0.00    +0.000 A 
ATOM     18  C   UNL     1       1.758   8.799  18.941  0.00  0.00    +0.000 A 
BRANCH  13  20
ATOM     19  C   UNL     1      -0.081   8.326  21.723  0.00  0.00    +0.000 C 
ATOM     20  O   UNL     1       1.211   8.754  21.291  0.00  0.00    +0.000 OA
ENDBRANCH  13  20
ENDBRANCH   1  18
BRANCH   8  21
ATOM     21  C   UNL     1      -4.492  11.528  17.284  0.00  0.00    +0.000 C 
BRANCH  21  22
ATOM     22  C   UNL     1      -5.628  11.780  18.236  0.00  0.00    +0.000 A 
ATOM     23  C   UNL     1      -6.413  10.780  18.905  0.00  0.00    +0.000 A 
ATOM     24  C   UNL     1      -7.396  11.320  19.706  0.00  0.00    +0.000 A 
ATOM     25  S   UNL     1      -7.405  13.026  19.644  0.00  0.00    +0.000 S 
ATOM     26  C   UNL     1      -6.088  13.046  18.556  0.00  0.00    +0.000 A 
ENDBRANCH  21  22
ENDBRANCH   8  21
TORSDOF 4
ENDMDL
