MODEL 1
REMARK VINA RESULT:      -5.2      0.000      0.000
REMARK  Name = 
REMARK  10 active torsions:
REMARK  status: ('A' for Active; 'I' for Inactive)
REMARK    1  A    between atoms: C_1  and  S_2
REMARK    2  A    between atoms: S_2  and  C_3
REMARK    3  A    between atoms: C_3  and  C_4
REMARK    4  A    between atoms: C_3  and  C_11
REMARK    5  A    between atoms: C_4  and  P_5
REMARK    6  A    between atoms: P_5  and  O_7
REMARK    7  A    between atoms: P_5  and  C_8
REMARK    8  A    between atoms: C_8  and  C_9
REMARK    9  A    between atoms: C_8  and  N_10
REMARK   10  A    between atoms: C_11  and  O_13
REMARK                            x       y       z     vdW  Elec       q    Type
REMARK                         _______ _______ _______ _____ _____    ______ ____
ROOT
ATOM      1  P   UNL     1       1.842   3.321  18.266  0.00  0.00    +0.000 P 
ATOM      2  O   UNL     1       1.093   4.259  17.369  0.00  0.00    +0.000 OA
ENDROOT
BRANCH   1   3
ATOM      3  O   UNL     1       1.095   1.873  18.238  0.00  0.00    +0.000 OA
ATOM      4  H   UNL     1       0.442   1.807  17.514  0.00  0.00    +0.000 HD
ENDBRANCH   1   3
BRANCH   1   5
ATOM      5  C   UNL     1       1.847   3.701  20.037  0.00  0.00    +0.000 C 
ATOM      6  C   UNL     1       1.879   5.204  20.300  0.00  0.00    +0.000 C 
BRANCH   5   7
ATOM      7  N   UNL     1       0.584   3.130  20.557  0.00  0.00    +0.000 NA
ATOM      8  H   UNL     1       0.818   2.598  21.405  0.00  0.00    +0.000 HD
ATOM      9  H   UNL     1       0.231   2.440  19.894  0.00  0.00    +0.000 HD
ENDBRANCH   5   7
ENDBRANCH   1   5
BRANCH   1  10
ATOM     10  C   UNL     1       3.487   2.907  17.688  0.00  0.00    +0.000 C 
BRANCH  10  11
ATOM     11  C   UNL     1       4.452   4.085  17.764  0.00  0.00    +0.000 C 
BRANCH  11  13
ATOM     12  C   UNL     1       5.294   6.051  15.922  0.00  0.00    +0.000 C 
ATOM     13  S   UNL     1       5.457   4.266  16.224  0.00  0.00    +0.000 S 
ENDBRANCH  11  13
BRANCH  11  14
ATOM     14  C   UNL     1       5.363   4.010  18.979  0.00  0.00    +0.000 C 
ATOM     15  O   UNL     1       6.107   4.913  19.334  0.00  0.00    +0.000 OA
BRANCH  14  16
ATOM     16  O   UNL     1       5.291   2.830  19.640  0.00  0.00    +0.000 OA
ATOM     17  H   UNL     1       5.569   2.076  19.079  0.00  0.00    +0.000 HD
ENDBRANCH  14  16
ENDBRANCH  11  14
ENDBRANCH  10  11
ENDBRANCH   1  10
TORSDOF 8
ENDMDL
MODEL 2
REMARK VINA RESULT:      -5.2      3.204      4.926
REMARK  Name = 
REMARK  10 active torsions:
REMARK  status: ('A' for Active; 'I' for Inactive)
REMARK    1  A    between atoms: C_1  and  S_2
REMARK    2  A    between atoms: S_2  and  C_3
REMARK    3  A    between atoms: C_3  and  C_4
REMARK    4  A    between atoms: C_3  and  C_11
REMARK    5  A    between atoms: C_4  and  P_5
REMARK    6  A    between atoms: P_5  and  O_7
REMARK    7  A    between atoms: P_5  and  C_8
REMARK    8  A    between atoms: C_8  and  C_9
REMARK    9  A    between atoms: C_8  and  N_10
REMARK   10  A    between atoms: C_11  and  O_13
REMARK                            x       y       z     vdW  Elec       q    Type
REMARK                         _______ _______ _______ _____ _____    ______ ____
ROOT
ATOM      1  P   UNL     1       5.726   4.745  18.915  0.00  0.00    +0.000 P 
ATOM      2  O   UNL     1       6.766   5.325  19.825  0.00  0.00    +0.000 OA
ENDROOT
BRANCH   1   3
ATOM      3  O   UNL     1       5.516   3.177  19.304  0.00  0.00    +0.000 OA
ATOM      4  H   UNL     1       5.465   3.039  20.270  0.00  0.00    +0.000 HD
ENDBRANCH   1   3
BRANCH   1   5
ATOM      5  C   UNL     1       6.137   4.639  17.154  0.00  0.00    +0.000 C 
ATOM      6  C   UNL     1       5.779   5.919  16.404  0.00  0.00    +0.000 C 
BRANCH   5   7
ATOM      7  N   UNL     1       7.602   4.429  17.114  0.00  0.00    +0.000 NA
ATOM      8  H   UNL     1       7.978   4.738  18.020  0.00  0.00    +0.000 HD
ATOM      9  H   UNL     1       8.011   5.057  16.422  0.00  0.00    +0.000 HD
ENDBRANCH   5   7
ENDBRANCH   1   5
BRANCH   1  10
ATOM     10  C   UNL     1       4.081   5.416  19.156  0.00  0.00    +0.000 C 
BRANCH  10  11
ATOM     11  C   UNL     1       3.022   4.332  19.325  0.00  0.00    +0.000 C 
BRANCH  11  13
ATOM     12  C   UNL     1       2.509   2.093  17.683  0.00  0.00    +0.000 C 
ATOM     13  S   UNL     1       2.215   3.887  17.723  0.00  0.00    +0.000 S 
ENDBRANCH  11  13
BRANCH  11  14
ATOM     14  C   UNL     1       1.969   4.707  20.355  0.00  0.00    +0.000 C 
ATOM     15  O   UNL     1       0.845   4.226  20.393  0.00  0.00    +0.000 OA
BRANCH  14  16
ATOM     16  O   UNL     1       2.382   5.649  21.236  0.00  0.00    +0.000 OA
ATOM     17  H   UNL     1       2.903   6.356  20.803  0.00  0.00    +0.000 HD
ENDBRANCH  14  16
ENDBRANCH  11  14
ENDBRANCH  10  11
ENDBRANCH   1  10
TORSDOF 8
ENDMDL
MODEL 3
REMARK VINA RESULT:      -5.2      3.664      5.280
REMARK  Name = 
REMARK  10 active torsions:
REMARK  status: ('A' for Active; 'I' for Inactive)
REMARK    1  A    between atoms: C_1  and  S_2
REMARK    2  A    between atoms: S_2  and  C_3
REMARK    3  A    between atoms: C_3  and  C_4
REMARK    4  A    between atoms: C_3  and  C_11
REMARK    5  A    between atoms: C_4  and  P_5
REMARK    6  A    between atoms: P_5  and  O_7
REMARK    7  A    between atoms: P_5  and  C_8
REMARK    8  A    between atoms: C_8  and  C_9
REMARK    9  A    between atoms: C_8  and  N_10
REMARK   10  A    between atoms: C_11  and  O_13
REMARK                            x       y       z     vdW  Elec       q    Type
REMARK                         _______ _______ _______ _____ _____    ______ ____
ROOT
ATOM      1  P   UNL     1       6.734   5.123  18.366  0.00  0.00    +0.000 P 
ATOM      2  O   UNL     1       7.014   5.428  19.806  0.00  0.00    +0.000 OA
ENDROOT
BRANCH   1   3
ATOM      3  O   UNL     1       7.900   4.130  17.811  0.00  0.00    +0.000 OA
ATOM      4  H   UNL     1       7.710   3.806  16.909  0.00  0.00    +0.000 HD
ENDBRANCH   1   3
BRANCH   1   5
ATOM      5  C   UNL     1       6.833   6.503  17.197  0.00  0.00    +0.000 C 
ATOM      6  C   UNL     1       7.733   7.624  17.709  0.00  0.00    +0.000 C 
BRANCH   5   7
ATOM      7  N   UNL     1       7.412   5.921  15.964  0.00  0.00    +0.000 NA
ATOM      8  H   UNL     1       8.000   5.129  16.250  0.00  0.00    +0.000 HD
ATOM      9  H   UNL     1       8.050   6.596  15.543  0.00  0.00    +0.000 HD
ENDBRANCH   5   7
ENDBRANCH   1   5
BRANCH   1  10
ATOM     10  C   UNL     1       5.252   4.152  18.096  0.00  0.00    +0.000 C 
BRANCH  10  11
ATOM     11  C   UNL     1       4.377   4.054  19.340  0.00  0.00    +0.000 C 
BRANCH  11  13
ATOM     12  C   UNL     1       2.759   2.360  17.764  0.00  0.00    +0.000 C 
ATOM     13  S   UNL     1       3.472   2.445  19.434  0.00  0.00    +0.000 S 
ENDBRANCH  11  13
BRANCH  11  14
ATOM     14  C   UNL     1       3.399   5.212  19.453  0.00  0.00    +0.000 C 
ATOM     15  O   UNL     1       3.077   5.931  18.517  0.00  0.00    +0.000 OA
BRANCH  14  16
ATOM     16  O   UNL     1       2.915   5.395  20.704  0.00  0.00    +0.000 OA
ATOM     17  H   UNL     1       2.781   6.344  20.912  0.00  0.00    +0.000 HD
ENDBRANCH  14  16
ENDBRANCH  11  14
ENDBRANCH  10  11
ENDBRANCH   1  10
TORSDOF 8
ENDMDL
MODEL 4
REMARK VINA RESULT:      -5.2      3.588      5.255
REMARK  Name = 
REMARK  10 active torsions:
REMARK  status: ('A' for Active; 'I' for Inactive)
REMARK    1  A    between atoms: C_1  and  S_2
REMARK    2  A    between atoms: S_2  and  C_3
REMARK    3  A    between atoms: C_3  and  C_4
REMARK    4  A    between atoms: C_3  and  C_11
REMARK    5  A    between atoms: C_4  and  P_5
REMARK    6  A    between atoms: P_5  and  O_7
REMARK    7  A    between atoms: P_5  and  C_8
REMARK    8  A    between atoms: C_8  and  C_9
REMARK    9  A    between atoms: C_8  and  N_10
REMARK   10  A    between atoms: C_11  and  O_13
REMARK                            x       y       z     vdW  Elec       q    Type
REMARK                         _______ _______ _______ _____ _____    ______ ____
ROOT
ATOM      1  P   UNL     1       6.716   5.419  18.773  0.00  0.00    +0.000 P 
ATOM      2  O   UNL     1       7.508   5.625  20.029  0.00  0.00    +0.000 OA
ENDROOT
BRANCH   1   3
ATOM      3  O   UNL     1       7.303   4.111  18.000  0.00  0.00    +0.000 OA
ATOM      4  H   UNL     1       6.828   3.930  17.166  0.00  0.00    +0.000 HD
ENDBRANCH   1   3
BRANCH   1   5
ATOM      5  C   UNL     1       6.850   6.696  17.495  0.00  0.00    +0.000 C 
ATOM      6  C   UNL     1       7.843   7.790  17.880  0.00  0.00    +0.000 C 
BRANCH   5   7
ATOM      7  N   UNL     1       7.332   5.985  16.290  0.00  0.00    +0.000 NA
ATOM      8  H   UNL     1       6.933   6.467  15.474  0.00  0.00    +0.000 HD
ATOM      9  H   UNL     1       6.932   5.046  16.273  0.00  0.00    +0.000 HD
ENDBRANCH   5   7
ENDBRANCH   1   5
BRANCH   1  10
ATOM     10  C   UNL     1       5.007   4.957  19.050  0.00  0.00    +0.000 C 
BRANCH  10  11
ATOM     11  C   UNL     1       4.131   5.174  17.821  0.00  0.00    +0.000 C 
BRANCH  11  13
ATOM     12  C   UNL     1       2.602   6.828  19.523  0.00  0.00    +0.000 C 
ATOM     13  S   UNL     1       2.374   5.533  18.267  0.00  0.00    +0.000 S 
ENDBRANCH  11  13
BRANCH  11  14
ATOM     14  C   UNL     1       4.197   4.007  16.850  0.00  0.00    +0.000 C 
ATOM     15  O   UNL     1       5.054   3.882  15.985  0.00  0.00    +0.000 OA
BRANCH  14  16
ATOM     16  O   UNL     1       3.201   3.105  17.015  0.00  0.00    +0.000 OA
ATOM     17  H   UNL     1       3.018   2.603  16.193  0.00  0.00    +0.000 HD
ENDBRANCH  14  16
ENDBRANCH  11  14
ENDBRANCH  10  11
ENDBRANCH   1  10
TORSDOF 8
ENDMDL
MODEL 5
REMARK VINA RESULT:      -5.1      1.326      1.376
REMARK  Name = 
REMARK  10 active torsions:
REMARK  status: ('A' for Active; 'I' for Inactive)
REMARK    1  A    between atoms: C_1  and  S_2
REMARK    2  A    between atoms: S_2  and  C_3
REMARK    3  A    between atoms: C_3  and  C_4
REMARK    4  A    between atoms: C_3  and  C_11
REMARK    5  A    between atoms: C_4  and  P_5
REMARK    6  A    between atoms: P_5  and  O_7
REMARK    7  A    between atoms: P_5  and  C_8
REMARK    8  A    between atoms: C_8  and  C_9
REMARK    9  A    between atoms: C_8  and  N_10
REMARK   10  A    between atoms: C_11  and  O_13
REMARK                            x       y       z     vdW  Elec       q    Type
REMARK                         _______ _______ _______ _____ _____    ______ ____
ROOT
ATOM      1  P   UNL     1       2.264   3.484  17.972  0.00  0.00    +0.000 P 
ATOM      2  O   UNL     1       1.080   4.043  17.241  0.00  0.00    +0.000 OA
ENDROOT
BRANCH   1   3
ATOM      3  O   UNL     1       2.274   1.867  17.779  0.00  0.00    +0.000 OA
ATOM      4  H   UNL     1       1.645   1.419  18.378  0.00  0.00    +0.000 HD
ENDBRANCH   1   3
BRANCH   1   5
ATOM      5  C   UNL     1       2.269   3.643  19.776  0.00  0.00    +0.000 C 
ATOM      6  C   UNL     1       0.874   3.468  20.371  0.00  0.00    +0.000 C 
BRANCH   5   7
ATOM      7  N   UNL     1       3.155   2.558  20.255  0.00  0.00    +0.000 NA
ATOM      8  H   UNL     1       4.124   2.869  20.105  0.00  0.00    +0.000 HD
ATOM      9  H   UNL     1       3.038   1.741  19.656  0.00  0.00    +0.000 HD
ENDBRANCH   5   7
ENDBRANCH   1   5
BRANCH   1  10
ATOM     10  C   UNL     1       3.847   3.957  17.277  0.00  0.00    +0.000 C 
BRANCH  10  11
ATOM     11  C   UNL     1       4.462   5.163  17.978  0.00  0.00    +0.000 C 
BRANCH  11  13
ATOM     12  C   UNL     1       5.600   5.582  15.428  0.00  0.00    +0.000 C 
ATOM     13  S   UNL     1       4.867   6.526  16.798  0.00  0.00    +0.000 S 
ENDBRANCH  11  13
BRANCH  11  14
ATOM     14  C   UNL     1       5.690   4.794  18.794  0.00  0.00    +0.000 C 
ATOM     15  O   UNL     1       6.548   5.593  19.140  0.00  0.00    +0.000 OA
BRANCH  14  16
ATOM     16  O   UNL     1       5.764   3.477  19.099  0.00  0.00    +0.000 OA
ATOM     17  H   UNL     1       4.952   2.992  18.842  0.00  0.00    +0.000 HD
ENDBRANCH  14  16
ENDBRANCH  11  14
ENDBRANCH  10  11
ENDBRANCH   1  10
TORSDOF 8
ENDMDL
MODEL 6
REMARK VINA RESULT:      -5.1      3.282      4.950
REMARK  Name = 
REMARK  10 active torsions:
REMARK  status: ('A' for Active; 'I' for Inactive)
REMARK    1  A    between atoms: C_1  and  S_2
REMARK    2  A    between atoms: S_2  and  C_3
REMARK    3  A    between atoms: C_3  and  C_4
REMARK    4  A    between atoms: C_3  and  C_11
REMARK    5  A    between atoms: C_4  and  P_5
REMARK    6  A    between atoms: P_5  and  O_7
REMARK    7  A    between atoms: P_5  and  C_8
REMARK    8  A    between atoms: C_8  and  C_9
REMARK    9  A    between atoms: C_8  and  N_10
REMARK   10  A    between atoms: C_11  and  O_13
REMARK                            x       y       z     vdW  Elec       q    Type
REMARK                         _______ _______ _______ _____ _____    ______ ____
ROOT
ATOM      1  P   UNL     1       6.610   4.870  17.897  0.00  0.00    +0.000 P 
ATOM      2  O   UNL     1       7.988   4.514  18.366  0.00  0.00    +0.000 OA
ENDROOT
BRANCH   1   3
ATOM      3  O   UNL     1       6.249   3.947  16.604  0.00  0.00    +0.000 OA
ATOM      4  H   UNL     1       6.402   4.416  15.761  0.00  0.00    +0.000 HD
ENDBRANCH   1   3
BRANCH   1   5
ATOM      5  C   UNL     1       6.369   6.541  17.239  0.00  0.00    +0.000 C 
ATOM      6  C   UNL     1       7.568   7.444  17.516  0.00  0.00    +0.000 C 
BRANCH   5   7
ATOM      7  N   UNL     1       6.208   6.359  15.779  0.00  0.00    +0.000 NA
ATOM      8  H   UNL     1       5.207   6.202  15.601  0.00  0.00    +0.000 HD
ATOM      9  H   UNL     1       6.672   5.497  15.495  0.00  0.00    +0.000 HD
ENDBRANCH   5   7
ENDBRANCH   1   5
BRANCH   1  10
ATOM     10  C   UNL     1       5.307   4.434  19.046  0.00  0.00    +0.000 C 
BRANCH  10  11
ATOM     11  C   UNL     1       4.171   3.662  18.384  0.00  0.00    +0.000 C 
BRANCH  11  13
ATOM     12  C   UNL     1       3.043   6.054  19.371  0.00  0.00    +0.000 C 
ATOM     13  S   UNL     1       2.607   4.645  18.309  0.00  0.00    +0.000 S 
ENDBRANCH  11  13
BRANCH  11  14
ATOM     14  C   UNL     1       3.916   2.321  19.051  0.00  0.00    +0.000 C 
ATOM     15  O   UNL     1       2.883   1.677  18.924  0.00  0.00    +0.000 OA
BRANCH  14  16
ATOM     16  O   UNL     1       4.941   1.895  19.827  0.00  0.00    +0.000 OA
ATOM     17  H   UNL     1       5.761   1.755  19.309  0.00  0.00    +0.000 HD
ENDBRANCH  14  16
ENDBRANCH  11  14
ENDBRANCH  10  11
ENDBRANCH   1  10
TORSDOF 8
ENDMDL
MODEL 7
REMARK VINA RESULT:      -5.1      3.495      4.984
REMARK  Name = 
REMARK  10 active torsions:
REMARK  status: ('A' for Active; 'I' for Inactive)
REMARK    1  A    between atoms: C_1  and  S_2
REMARK    2  A    between atoms: S_2  and  C_3
REMARK    3  A    between atoms: C_3  and  C_4
REMARK    4  A    between atoms: C_3  and  C_11
REMARK    5  A    between atoms: C_4  and  P_5
REMARK    6  A    between atoms: P_5  and  O_7
REMARK    7  A    between atoms: P_5  and  C_8
REMARK    8  A    between atoms: C_8  and  C_9
REMARK    9  A    between atoms: C_8  and  N_10
REMARK   10  A    between atoms: C_11  and  O_13
REMARK                            x       y       z     vdW  Elec       q    Type
REMARK                         _______ _______ _______ _____ _____    ______ ____
ROOT
ATOM      1  P   UNL     1       5.488   5.905  16.234  0.00  0.00    +0.000 P 
ATOM      2  O   UNL     1       5.161   6.900  15.162  0.00  0.00    +0.000 OA
ENDROOT
BRANCH   1   3
ATOM      3  O   UNL     1       6.504   6.605  17.298  0.00  0.00    +0.000 OA
ATOM      4  H   UNL     1       7.376   6.166  17.319  0.00  0.00    +0.000 HD
ENDBRANCH   1   3
BRANCH   1   5
ATOM      5  C   UNL     1       6.425   4.436  15.737  0.00  0.00    +0.000 C 
ATOM      6  C   UNL     1       6.656   4.386  14.229  0.00  0.00    +0.000 C 
BRANCH   5   7
ATOM      7  N   UNL     1       7.724   4.555  16.438  0.00  0.00    +0.000 NA
ATOM      8  H   UNL     1       7.530   4.512  17.447  0.00  0.00    +0.000 HD
ATOM      9  H   UNL     1       8.109   5.485  16.275  0.00  0.00    +0.000 HD
ENDBRANCH   5   7
ENDBRANCH   1   5
BRANCH   1  10
ATOM     10  C   UNL     1       4.098   5.463  17.275  0.00  0.00    +0.000 C 
BRANCH  10  11
ATOM     11  C   UNL     1       4.206   4.048  17.833  0.00  0.00    +0.000 C 
BRANCH  11  13
ATOM     12  C   UNL     1       1.842   4.287  19.358  0.00  0.00    +0.000 C 
ATOM     13  S   UNL     1       2.552   3.251  18.044  0.00  0.00    +0.000 S 
ENDBRANCH  11  13
BRANCH  11  14
ATOM     14  C   UNL     1       4.981   3.999  19.139  0.00  0.00    +0.000 C 
ATOM     15  O   UNL     1       5.424   4.985  19.711  0.00  0.00    +0.000 OA
BRANCH  14  16
ATOM     16  O   UNL     1       5.158   2.745  19.620  0.00  0.00    +0.000 OA
ATOM     17  H   UNL     1       5.896   2.280  19.174  0.00  0.00    +0.000 HD
ENDBRANCH  14  16
ENDBRANCH  11  14
ENDBRANCH  10  11
ENDBRANCH   1  10
TORSDOF 8
ENDMDL
MODEL 8
REMARK VINA RESULT:      -5.1      3.206      4.781
REMARK  Name = 
REMARK  10 active torsions:
REMARK  status: ('A' for Active; 'I' for Inactive)
REMARK    1  A    between atoms: C_1  and  S_2
REMARK    2  A    between atoms: S_2  and  C_3
REMARK    3  A    between atoms: C_3  and  C_4
REMARK    4  A    between atoms: C_3  and  C_11
REMARK    5  A    between atoms: C_4  and  P_5
REMARK    6  A    between atoms: P_5  and  O_7
REMARK    7  A    between atoms: P_5  and  C_8
REMARK    8  A    between atoms: C_8  and  C_9
REMARK    9  A    between atoms: C_8  and  N_10
REMARK   10  A    between atoms: C_11  and  O_13
REMARK                            x       y       z     vdW  Elec       q    Type
REMARK                         _______ _______ _______ _____ _____    ______ ____
ROOT
ATOM      1  P   UNL     1       6.346   5.246  18.855  0.00  0.00    +0.000 P 
ATOM      2  O   UNL     1       7.291   5.445  20.001  0.00  0.00    +0.000 OA
ENDROOT
BRANCH   1   3
ATOM      3  O   UNL     1       6.881   3.999  17.954  0.00  0.00    +0.000 OA
ATOM      4  H   UNL     1       6.417   3.166  18.164  0.00  0.00    +0.000 HD
ENDBRANCH   1   3
BRANCH   1   5
ATOM      5  C   UNL     1       6.247   6.575  17.628  0.00  0.00    +0.000 C 
ATOM      6  C   UNL     1       7.548   7.369  17.537  0.00  0.00    +0.000 C 
BRANCH   5   7
ATOM      7  N   UNL     1       5.987   5.892  16.341  0.00  0.00    +0.000 NA
ATOM      8  H   UNL     1       6.809   5.309  16.136  0.00  0.00    +0.000 HD
ATOM      9  H   UNL     1       5.953   6.586  15.595  0.00  0.00    +0.000 HD
ENDBRANCH   5   7
ENDBRANCH   1   5
BRANCH   1  10
ATOM     10  C   UNL     1       4.713   4.688  19.338  0.00  0.00    +0.000 C 
BRANCH  10  11
ATOM     11  C   UNL     1       4.188   3.565  18.450  0.00  0.00    +0.000 C 
BRANCH  11  13
ATOM     12  C   UNL     1       2.413   5.736  18.124  0.00  0.00    +0.000 C 
ATOM     13  S   UNL     1       2.548   3.973  17.702  0.00  0.00    +0.000 S 
ENDBRANCH  11  13
BRANCH  11  14
ATOM     14  C   UNL     1       4.114   2.235  19.182  0.00  0.00    +0.000 C 
ATOM     15  O   UNL     1       4.767   1.965  20.181  0.00  0.00    +0.000 OA
BRANCH  14  16
ATOM     16  O   UNL     1       3.258   1.351  18.618  0.00  0.00    +0.000 OA
ATOM     17  H   UNL     1       3.450   0.428  18.887  0.00  0.00    +0.000 HD
ENDBRANCH  14  16
ENDBRANCH  11  14
ENDBRANCH  10  11
ENDBRANCH   1  10
TORSDOF 8
ENDMDL
MODEL 9
REMARK VINA RESULT:      -5.1      3.396      5.134
REMARK  Name = 
REMARK  10 active torsions:
REMARK  status: ('A' for Active; 'I' for Inactive)
REMARK    1  A    between atoms: C_1  and  S_2
REMARK    2  A    between atoms: S_2  and  C_3
REMARK    3  A    between atoms: C_3  and  C_4
REMARK    4  A    between atoms: C_3  and  C_11
REMARK    5  A    between atoms: C_4  and  P_5
REMARK    6  A    between atoms: P_5  and  O_7
REMARK    7  A    between atoms: P_5  and  C_8
REMARK    8  A    between atoms: C_8  and  C_9
REMARK    9  A    between atoms: C_8  and  N_10
REMARK   10  A    between atoms: C_11  and  O_13
REMARK                            x       y       z     vdW  Elec       q    Type
REMARK                         _______ _______ _______ _____ _____    ______ ____
ROOT
ATOM      1  P   UNL     1       6.815   5.313  17.867  0.00  0.00    +0.000 P 
ATOM      2  O   UNL     1       7.603   6.517  18.286  0.00  0.00    +0.000 OA
ENDROOT
BRANCH   1   3
ATOM      3  O   UNL     1       7.809   4.022  17.857  0.00  0.00    +0.000 OA
ATOM      4  H   UNL     1       7.600   3.401  17.132  0.00  0.00    +0.000 HD
ENDBRANCH   1   3
BRANCH   1   5
ATOM      5  C   UNL     1       6.169   5.298  16.175  0.00  0.00    +0.000 C 
ATOM      6  C   UNL     1       5.256   6.490  15.899  0.00  0.00    +0.000 C 
BRANCH   5   7
ATOM      7  N   UNL     1       7.366   5.373  15.306  0.00  0.00    +0.000 NA
ATOM      8  H   UNL     1       8.178   5.516  15.920  0.00  0.00    +0.000 HD
ATOM      9  H   UNL     1       7.309   6.213  14.731  0.00  0.00    +0.000 HD
ENDBRANCH   5   7
ENDBRANCH   1   5
BRANCH   1  10
ATOM     10  C   UNL     1       5.559   4.811  19.043  0.00  0.00    +0.000 C 
BRANCH  10  11
ATOM     11  C   UNL     1       4.433   4.011  18.397  0.00  0.00    +0.000 C 
BRANCH  11  13
ATOM     12  C   UNL     1       2.553   5.221  20.121  0.00  0.00    +0.000 C 
ATOM     13  S   UNL     1       2.845   4.953  18.346  0.00  0.00    +0.000 S 
ENDBRANCH  11  13
BRANCH  11  14
ATOM     14  C   UNL     1       4.222   2.664  19.068  0.00  0.00    +0.000 C 
ATOM     15  O   UNL     1       3.252   1.944  18.872  0.00  0.00    +0.000 OA
BRANCH  14  16
ATOM     16  O   UNL     1       5.209   2.325  19.931  0.00  0.00    +0.000 OA
ATOM     17  H   UNL     1       6.084   2.658  19.640  0.00  0.00    +0.000 HD
ENDBRANCH  14  16
ENDBRANCH  11  14
ENDBRANCH  10  11
ENDBRANCH   1  10
TORSDOF 8
ENDMDL
