MODEL 1
REMARK VINA RESULT:      -7.2      0.000      0.000
REMARK  Name = 
REMARK  4 active torsions:
REMARK  status: ('A' for Active; 'I' for Inactive)
REMARK    1  A    between atoms: N_1  and  C_2
REMARK    2  A    between atoms: C_6  and  S_7
REMARK    3  A    between atoms: S_7  and  C_8
REMARK    4  A    between atoms: C_11  and  N_12
REMARK                            x       y       z     vdW  Elec       q    Type
REMARK                         _______ _______ _______ _____ _____    ______ ____
ROOT
ATOM      1  S   UNL     1       5.396   4.946  16.037  0.00  0.00    +0.000 S 
ENDROOT
BRANCH   1   2
ATOM      2  C   UNL     1       4.061   4.362  17.076  0.00  0.00    +0.000 A 
ATOM      3  C   UNL     1       3.907   2.977  17.259  0.00  0.00    +0.000 A 
ATOM      4  C   UNL     1       2.896   2.466  18.080  0.00  0.00    +0.000 A 
ATOM      5  C   UNL     1       2.044   3.348  18.753  0.00  0.00    +0.000 A 
ATOM      6  C   UNL     1       2.201   4.732  18.615  0.00  0.00    +0.000 A 
ATOM      7  C   UNL     1       3.208   5.232  17.780  0.00  0.00    +0.000 A 
ATOM      8 CL   UNL     1       3.340   6.954  17.661  0.00  0.00    +0.000 Cl
BRANCH   5   9
ATOM      9  N   UNL     1       0.981   2.824  19.623  0.00  0.00    +0.000 N 
ATOM     10  O   UNL     1       0.017   2.266  19.074  0.00  0.00    +0.000 OA
ATOM     11  O   UNL     1       1.110   2.969  20.842  0.00  0.00    +0.000 OA
ENDBRANCH   5   9
ENDBRANCH   1   2
BRANCH   1  16
ATOM     12  C   UNL     1       7.990   5.871  19.118  0.00  0.00    +0.000 A 
ATOM     13  C   UNL     1       8.282   7.202  18.815  0.00  0.00    +0.000 A 
ATOM     14  C   UNL     1       7.773   7.791  17.659  0.00  0.00    +0.000 A 
ATOM     15  C   UNL     1       6.918   7.067  16.826  0.00  0.00    +0.000 A 
ATOM     16  C   UNL     1       6.553   5.751  17.143  0.00  0.00    +0.000 A 
ATOM     17  C   UNL     1       7.106   5.165  18.288  0.00  0.00    +0.000 A 
BRANCH  12  18
ATOM     18  N   UNL     1       8.361   5.333  20.357  0.00  0.00    +0.000 N 
ATOM     19  H   UNL     1       9.120   5.830  20.816  0.00  0.00    +0.000 HD
ATOM     20  H   UNL     1       8.506   4.329  20.351  0.00  0.00    +0.000 HD
ENDBRANCH  12  18
ENDBRANCH   1  16
TORSDOF 4
ENDMDL
MODEL 2
REMARK VINA RESULT:      -7.2      4.084      6.364
REMARK  Name = 
REMARK  4 active torsions:
REMARK  status: ('A' for Active; 'I' for Inactive)
REMARK    1  A    between atoms: N_1  and  C_2
REMARK    2  A    between atoms: C_6  and  S_7
REMARK    3  A    between atoms: S_7  and  C_8
REMARK    4  A    between atoms: C_11  and  N_12
REMARK                            x       y       z     vdW  Elec       q    Type
REMARK                         _______ _______ _______ _____ _____    ______ ____
ROOT
ATOM      1  S   UNL     1       3.382   6.297  19.166  0.00  0.00    +0.000 S 
ENDROOT
BRANCH   1   2
ATOM      2  C   UNL     1       4.415   5.830  17.782  0.00  0.00    +0.000 A 
ATOM      3  C   UNL     1       4.473   6.683  16.666  0.00  0.00    +0.000 A 
ATOM      4  C   UNL     1       5.283   6.380  15.567  0.00  0.00    +0.000 A 
ATOM      5  C   UNL     1       6.072   5.225  15.591  0.00  0.00    +0.000 A 
ATOM      6  C   UNL     1       6.059   4.378  16.706  0.00  0.00    +0.000 A 
ATOM      7  C   UNL     1       5.235   4.685  17.795  0.00  0.00    +0.000 A 
ATOM      8 CL   UNL     1       5.274   3.592  19.137  0.00  0.00    +0.000 Cl
BRANCH   5   9
ATOM      9  N   UNL     1       6.932   4.897  14.445  0.00  0.00    +0.000 N 
ATOM     10  O   UNL     1       7.989   5.538  14.320  0.00  0.00    +0.000 OA
ATOM     11  O   UNL     1       6.554   4.007  13.677  0.00  0.00    +0.000 OA
ENDBRANCH   5   9
ENDBRANCH   1   2
BRANCH   1  16
ATOM     12  C   UNL     1       1.440   3.136  20.985  0.00  0.00    +0.000 A 
ATOM     13  C   UNL     1       0.822   2.546  19.881  0.00  0.00    +0.000 A 
ATOM     14  C   UNL     1       0.920   3.133  18.621  0.00  0.00    +0.000 A 
ATOM     15  C   UNL     1       1.687   4.286  18.446  0.00  0.00    +0.000 A 
ATOM     16  C   UNL     1       2.374   4.860  19.524  0.00  0.00    +0.000 A 
ATOM     17  C   UNL     1       2.231   4.278  20.789  0.00  0.00    +0.000 A 
BRANCH  12  18
ATOM     18  N   UNL     1       1.481   2.461  22.212  0.00  0.00    +0.000 N 
ATOM     19  H   UNL     1       0.755   2.740  22.866  0.00  0.00    +0.000 HD
ATOM     20  H   UNL     1       2.399   2.434  22.644  0.00  0.00    +0.000 HD
ENDBRANCH  12  18
ENDBRANCH   1  16
TORSDOF 4
ENDMDL
MODEL 3
REMARK VINA RESULT:      -6.9      3.972      6.147
REMARK  Name = 
REMARK  4 active torsions:
REMARK  status: ('A' for Active; 'I' for Inactive)
REMARK    1  A    between atoms: N_1  and  C_2
REMARK    2  A    between atoms: C_6  and  S_7
REMARK    3  A    between atoms: S_7  and  C_8
REMARK    4  A    between atoms: C_11  and  N_12
REMARK                            x       y       z     vdW  Elec       q    Type
REMARK                         _______ _______ _______ _____ _____    ______ ____
ROOT
ATOM      1  S   UNL     1       5.133   5.479  19.487  0.00  0.00    +0.000 S 
ENDROOT
BRANCH   1   2
ATOM      2  C   UNL     1       5.661   5.336  17.783  0.00  0.00    +0.000 A 
ATOM      3  C   UNL     1       6.701   4.443  17.472  0.00  0.00    +0.000 A 
ATOM      4  C   UNL     1       7.137   4.274  16.154  0.00  0.00    +0.000 A 
ATOM      5  C   UNL     1       6.507   4.981  15.124  0.00  0.00    +0.000 A 
ATOM      6  C   UNL     1       5.445   5.850  15.404  0.00  0.00    +0.000 A 
ATOM      7  C   UNL     1       5.026   6.021  16.729  0.00  0.00    +0.000 A 
ATOM      8 CL   UNL     1       3.707   7.110  16.996  0.00  0.00    +0.000 Cl
BRANCH   5   9
ATOM      9  N   UNL     1       6.952   4.808  13.734  0.00  0.00    +0.000 N 
ATOM     10  O   UNL     1       6.424   3.899  13.073  0.00  0.00    +0.000 OA
ATOM     11  O   UNL     1       7.820   5.576  13.307  0.00  0.00    +0.000 OA
ENDBRANCH   5   9
ENDBRANCH   1   2
BRANCH   1  16
ATOM     12  C   UNL     1       2.084   2.720  19.089  0.00  0.00    +0.000 A 
ATOM     13  C   UNL     1       1.061   3.366  19.786  0.00  0.00    +0.000 A 
ATOM     14  C   UNL     1       1.305   4.575  20.435  0.00  0.00    +0.000 A 
ATOM     15  C   UNL     1       2.562   5.176  20.342  0.00  0.00    +0.000 A 
ATOM     16  C   UNL     1       3.586   4.583  19.591  0.00  0.00    +0.000 A 
ATOM     17  C   UNL     1       3.333   3.349  18.980  0.00  0.00    +0.000 A 
BRANCH  12  18
ATOM     18  N   UNL     1       1.797   1.597  18.302  0.00  0.00    +0.000 N 
ATOM     19  H   UNL     1       2.352   1.531  17.453  0.00  0.00    +0.000 HD
ATOM     20  H   UNL     1       0.808   1.449  18.129  0.00  0.00    +0.000 HD
ENDBRANCH  12  18
ENDBRANCH   1  16
TORSDOF 4
ENDMDL
MODEL 4
REMARK VINA RESULT:      -6.8      3.956      6.213
REMARK  Name = 
REMARK  4 active torsions:
REMARK  status: ('A' for Active; 'I' for Inactive)
REMARK    1  A    between atoms: N_1  and  C_2
REMARK    2  A    between atoms: C_6  and  S_7
REMARK    3  A    between atoms: S_7  and  C_8
REMARK    4  A    between atoms: C_11  and  N_12
REMARK                            x       y       z     vdW  Elec       q    Type
REMARK                         _______ _______ _______ _____ _____    ______ ____
ROOT
ATOM      1  S   UNL     1       4.542   5.671  19.479  0.00  0.00    +0.000 S 
ENDROOT
BRANCH   1   2
ATOM      2  C   UNL     1       5.259   5.488  17.850  0.00  0.00    +0.000 A 
ATOM      3  C   UNL     1       6.216   4.479  17.644  0.00  0.00    +0.000 A 
ATOM      4  C   UNL     1       6.791   4.276  16.385  0.00  0.00    +0.000 A 
ATOM      5  C   UNL     1       6.385   5.069  15.306  0.00  0.00    +0.000 A 
ATOM      6  C   UNL     1       5.408   6.057  15.479  0.00  0.00    +0.000 A 
ATOM      7  C   UNL     1       4.849   6.260  16.746  0.00  0.00    +0.000 A 
ATOM      8 CL   UNL     1       3.646   7.498  16.880  0.00  0.00    +0.000 Cl
BRANCH   5   9
ATOM      9  N   UNL     1       6.977   4.862  13.977  0.00  0.00    +0.000 N 
ATOM     10  O   UNL     1       7.946   5.574  13.666  0.00  0.00    +0.000 OA
ATOM     11  O   UNL     1       6.479   3.996  13.253  0.00  0.00    +0.000 OA
ENDBRANCH   5   9
ENDBRANCH   1   2
BRANCH   1  16
ATOM     12  C   UNL     1       1.397   3.230  20.583  0.00  0.00    +0.000 A 
ATOM     13  C   UNL     1       0.902   2.866  19.328  0.00  0.00    +0.000 A 
ATOM     14  C   UNL     1       1.453   3.409  18.169  0.00  0.00    +0.000 A 
ATOM     15  C   UNL     1       2.544   4.277  18.255  0.00  0.00    +0.000 A 
ATOM     16  C   UNL     1       3.103   4.604  19.497  0.00  0.00    +0.000 A 
ATOM     17  C   UNL     1       2.510   4.079  20.652  0.00  0.00    +0.000 A 
BRANCH  12  18
ATOM     18  N   UNL     1       0.957   2.561  21.732  0.00  0.00    +0.000 N 
ATOM     19  H   UNL     1       1.325   1.619  21.832  0.00  0.00    +0.000 HD
ATOM     20  H   UNL     1      -0.046   2.601  21.882  0.00  0.00    +0.000 HD
ENDBRANCH  12  18
ENDBRANCH   1  16
TORSDOF 4
ENDMDL
MODEL 5
REMARK VINA RESULT:      -6.8      4.090      6.340
REMARK  Name = 
REMARK  4 active torsions:
REMARK  status: ('A' for Active; 'I' for Inactive)
REMARK    1  A    between atoms: N_1  and  C_2
REMARK    2  A    between atoms: C_6  and  S_7
REMARK    3  A    between atoms: S_7  and  C_8
REMARK    4  A    between atoms: C_11  and  N_12
REMARK                            x       y       z     vdW  Elec       q    Type
REMARK                         _______ _______ _______ _____ _____    ______ ____
ROOT
ATOM      1  S   UNL     1       4.746   5.911  19.396  0.00  0.00    +0.000 S 
ENDROOT
BRANCH   1   2
ATOM      2  C   UNL     1       5.463   5.545  17.798  0.00  0.00    +0.000 A 
ATOM      3  C   UNL     1       4.634   5.582  16.663  0.00  0.00    +0.000 A 
ATOM      4  C   UNL     1       5.148   5.328  15.387  0.00  0.00    +0.000 A 
ATOM      5  C   UNL     1       6.513   5.064  15.233  0.00  0.00    +0.000 A 
ATOM      6  C   UNL     1       7.365   5.058  16.344  0.00  0.00    +0.000 A 
ATOM      7  C   UNL     1       6.838   5.300  17.619  0.00  0.00    +0.000 A 
ATOM      8 CL   UNL     1       7.954   5.277  18.943  0.00  0.00    +0.000 Cl
BRANCH   5   9
ATOM      9  N   UNL     1       7.066   4.801  13.897  0.00  0.00    +0.000 N 
ATOM     10  O   UNL     1       8.029   5.494  13.530  0.00  0.00    +0.000 OA
ATOM     11  O   UNL     1       6.541   3.911  13.222  0.00  0.00    +0.000 OA
ENDBRANCH   5   9
ENDBRANCH   1   2
BRANCH   1  16
ATOM     12  C   UNL     1       2.216   2.649  19.243  0.00  0.00    +0.000 A 
ATOM     13  C   UNL     1       1.093   3.165  19.893  0.00  0.00    +0.000 A 
ATOM     14  C   UNL     1       1.122   4.446  20.441  0.00  0.00    +0.000 A 
ATOM     15  C   UNL     1       2.259   5.243  20.291  0.00  0.00    +0.000 A 
ATOM     16  C   UNL     1       3.374   4.775  19.583  0.00  0.00    +0.000 A 
ATOM     17  C   UNL     1       3.340   3.471  19.074  0.00  0.00    +0.000 A 
BRANCH  12  18
ATOM     18  N   UNL     1       2.131   1.434  18.550  0.00  0.00    +0.000 N 
ATOM     19  H   UNL     1       1.467   1.438  17.781  0.00  0.00    +0.000 HD
ATOM     20  H   UNL     1       2.025   0.619  19.146  0.00  0.00    +0.000 HD
ENDBRANCH  12  18
ENDBRANCH   1  16
TORSDOF 4
ENDMDL
MODEL 6
REMARK VINA RESULT:      -6.8      3.922      4.516
REMARK  Name = 
REMARK  4 active torsions:
REMARK  status: ('A' for Active; 'I' for Inactive)
REMARK    1  A    between atoms: N_1  and  C_2
REMARK    2  A    between atoms: C_6  and  S_7
REMARK    3  A    between atoms: S_7  and  C_8
REMARK    4  A    between atoms: C_11  and  N_12
REMARK                            x       y       z     vdW  Elec       q    Type
REMARK                         _______ _______ _______ _____ _____    ______ ____
ROOT
ATOM      1  S   UNL     1       3.470   5.585  17.927  0.00  0.00    +0.000 S 
ENDROOT
BRANCH   1   2
ATOM      2  C   UNL     1       2.612   6.906  18.775  0.00  0.00    +0.000 A 
ATOM      3  C   UNL     1       2.382   8.111  18.088  0.00  0.00    +0.000 A 
ATOM      4  C   UNL     1       1.694   9.168  18.695  0.00  0.00    +0.000 A 
ATOM      5  C   UNL     1       1.201   9.012  19.995  0.00  0.00    +0.000 A 
ATOM      6  C   UNL     1       1.386   7.809  20.686  0.00  0.00    +0.000 A 
ATOM      7  C   UNL     1       2.087   6.763  20.074  0.00  0.00    +0.000 A 
ATOM      8 CL   UNL     1       2.275   5.306  20.991  0.00  0.00    +0.000 Cl
BRANCH   5   9
ATOM      9  N   UNL     1       0.472  10.113  20.641  0.00  0.00    +0.000 N 
ATOM     10  O   UNL     1       0.861  10.474  21.764  0.00  0.00    +0.000 OA
ATOM     11  O   UNL     1      -0.479  10.610  20.032  0.00  0.00    +0.000 OA
ENDBRANCH   5   9
ENDBRANCH   1   2
BRANCH   1  16
ATOM     12  C   UNL     1       7.414   5.740  19.149  0.00  0.00    +0.000 A 
ATOM     13  C   UNL     1       7.911   6.717  18.285  0.00  0.00    +0.000 A 
ATOM     14  C   UNL     1       7.096   7.265  17.296  0.00  0.00    +0.000 A 
ATOM     15  C   UNL     1       5.758   6.879  17.202  0.00  0.00    +0.000 A 
ATOM     16  C   UNL     1       5.214   5.951  18.100  0.00  0.00    +0.000 A 
ATOM     17  C   UNL     1       6.060   5.383  19.062  0.00  0.00    +0.000 A 
BRANCH  12  18
ATOM     18  N   UNL     1       8.178   5.314  20.243  0.00  0.00    +0.000 N 
ATOM     19  H   UNL     1       8.938   4.685  20.001  0.00  0.00    +0.000 HD
ATOM     20  H   UNL     1       7.632   4.973  21.028  0.00  0.00    +0.000 HD
ENDBRANCH  12  18
ENDBRANCH   1  16
TORSDOF 4
ENDMDL
MODEL 7
REMARK VINA RESULT:      -6.8      4.532      6.078
REMARK  Name = 
REMARK  4 active torsions:
REMARK  status: ('A' for Active; 'I' for Inactive)
REMARK    1  A    between atoms: N_1  and  C_2
REMARK    2  A    between atoms: C_6  and  S_7
REMARK    3  A    between atoms: S_7  and  C_8
REMARK    4  A    between atoms: C_11  and  N_12
REMARK                            x       y       z     vdW  Elec       q    Type
REMARK                         _______ _______ _______ _____ _____    ______ ____
ROOT
ATOM      1  S   UNL     1       3.311   5.508  19.532  0.00  0.00    +0.000 S 
ENDROOT
BRANCH   1   2
ATOM      2  C   UNL     1       4.309   5.287  18.064  0.00  0.00    +0.000 A 
ATOM      3  C   UNL     1       5.484   6.046  17.927  0.00  0.00    +0.000 A 
ATOM      4  C   UNL     1       6.315   5.895  16.811  0.00  0.00    +0.000 A 
ATOM      5  C   UNL     1       5.987   4.952  15.831  0.00  0.00    +0.000 A 
ATOM      6  C   UNL     1       4.841   4.159  15.963  0.00  0.00    +0.000 A 
ATOM      7  C   UNL     1       4.010   4.328  17.077  0.00  0.00    +0.000 A 
ATOM      8 CL   UNL     1       2.613   3.310  17.171  0.00  0.00    +0.000 Cl
BRANCH   5   9
ATOM      9  N   UNL     1       6.854   4.781  14.656  0.00  0.00    +0.000 N 
ATOM     10  O   UNL     1       7.892   5.460  14.608  0.00  0.00    +0.000 OA
ATOM     11  O   UNL     1       6.500   3.973  13.792  0.00  0.00    +0.000 OA
ENDBRANCH   5   9
ENDBRANCH   1   2
BRANCH   1  16
ATOM     12  C   UNL     1       1.141   8.982  20.074  0.00  0.00    +0.000 A 
ATOM     13  C   UNL     1       1.134   9.485  18.772  0.00  0.00    +0.000 A 
ATOM     14  C   UNL     1       1.837   8.834  17.760  0.00  0.00    +0.000 A 
ATOM     15  C   UNL     1       2.507   7.640  18.034  0.00  0.00    +0.000 A 
ATOM     16  C   UNL     1       2.474   7.077  19.316  0.00  0.00    +0.000 A 
ATOM     17  C   UNL     1       1.794   7.767  20.328  0.00  0.00    +0.000 A 
BRANCH  12  18
ATOM     18  N   UNL     1       0.303   9.540  21.048  0.00  0.00    +0.000 N 
ATOM     19  H   UNL     1      -0.477  10.071  20.671  0.00  0.00    +0.000 HD
ATOM     20  H   UNL     1       0.791  10.041  21.783  0.00  0.00    +0.000 HD
ENDBRANCH  12  18
ENDBRANCH   1  16
TORSDOF 4
ENDMDL
MODEL 8
REMARK VINA RESULT:      -6.7      4.025      6.428
REMARK  Name = 
REMARK  4 active torsions:
REMARK  status: ('A' for Active; 'I' for Inactive)
REMARK    1  A    between atoms: N_1  and  C_2
REMARK    2  A    between atoms: C_6  and  S_7
REMARK    3  A    between atoms: S_7  and  C_8
REMARK    4  A    between atoms: C_11  and  N_12
REMARK                            x       y       z     vdW  Elec       q    Type
REMARK                         _______ _______ _______ _____ _____    ______ ____
ROOT
ATOM      1  S   UNL     1       3.325   6.360  19.146  0.00  0.00    +0.000 S 
ENDROOT
BRANCH   1   2
ATOM      2  C   UNL     1       4.378   5.874  17.783  0.00  0.00    +0.000 A 
ATOM      3  C   UNL     1       4.375   6.658  16.616  0.00  0.00    +0.000 A 
ATOM      4  C   UNL     1       5.197   6.339  15.530  0.00  0.00    +0.000 A 
ATOM      5  C   UNL     1       6.058   5.240  15.618  0.00  0.00    +0.000 A 
ATOM      6  C   UNL     1       6.106   4.466  16.783  0.00  0.00    +0.000 A 
ATOM      7  C   UNL     1       5.269   4.787  17.859  0.00  0.00    +0.000 A 
ATOM      8 CL   UNL     1       5.386   3.784  19.266  0.00  0.00    +0.000 Cl
BRANCH   5   9
ATOM      9  N   UNL     1       6.930   4.897  14.486  0.00  0.00    +0.000 N 
ATOM     10  O   UNL     1       7.966   5.566  14.339  0.00  0.00    +0.000 OA
ATOM     11  O   UNL     1       6.583   3.968  13.751  0.00  0.00    +0.000 OA
ENDBRANCH   5   9
ENDBRANCH   1   2
BRANCH   1  16
ATOM     12  C   UNL     1       1.304   2.762  19.349  0.00  0.00    +0.000 A 
ATOM     13  C   UNL     1       1.202   2.603  20.732  0.00  0.00    +0.000 A 
ATOM     14  C   UNL     1       1.801   3.521  21.593  0.00  0.00    +0.000 A 
ATOM     15  C   UNL     1       2.459   4.638  21.075  0.00  0.00    +0.000 A 
ATOM     16  C   UNL     1       2.516   4.858  19.692  0.00  0.00    +0.000 A 
ATOM     17  C   UNL     1       1.942   3.904  18.842  0.00  0.00    +0.000 A 
BRANCH  12  18
ATOM     18  N   UNL     1       0.565   1.938  18.490  0.00  0.00    +0.000 N 
ATOM     19  H   UNL     1       0.169   1.117  18.939  0.00  0.00    +0.000 HD
ATOM     20  H   UNL     1       1.035   1.711  17.620  0.00  0.00    +0.000 HD
ENDBRANCH  12  18
ENDBRANCH   1  16
TORSDOF 4
ENDMDL
MODEL 9
REMARK VINA RESULT:      -6.6      4.468      5.912
REMARK  Name = 
REMARK  4 active torsions:
REMARK  status: ('A' for Active; 'I' for Inactive)
REMARK    1  A    between atoms: N_1  and  C_2
REMARK    2  A    between atoms: C_6  and  S_7
REMARK    3  A    between atoms: S_7  and  C_8
REMARK    4  A    between atoms: C_11  and  N_12
REMARK                            x       y       z     vdW  Elec       q    Type
REMARK                         _______ _______ _______ _____ _____    ______ ____
ROOT
ATOM      1  S   UNL     1       2.435   5.463  20.365  0.00  0.00    +0.000 S 
ENDROOT
BRANCH   1   2
ATOM      2  C   UNL     1       3.652   5.128  19.096  0.00  0.00    +0.000 A 
ATOM      3  C   UNL     1       5.001   5.417  19.363  0.00  0.00    +0.000 A 
ATOM      4  C   UNL     1       5.997   5.152  18.417  0.00  0.00    +0.000 A 
ATOM      5  C   UNL     1       5.648   4.563  17.197  0.00  0.00    +0.000 A 
ATOM      6  C   UNL     1       4.316   4.233  16.922  0.00  0.00    +0.000 A 
ATOM      7  C   UNL     1       3.326   4.515  17.871  0.00  0.00    +0.000 A 
ATOM      8 CL   UNL     1       1.702   4.077  17.460  0.00  0.00    +0.000 Cl
BRANCH   5   9
ATOM      9  N   UNL     1       6.685   4.275  16.196  0.00  0.00    +0.000 N 
ATOM     10  O   UNL     1       6.310   3.866  15.085  0.00  0.00    +0.000 OA
ATOM     11  O   UNL     1       7.863   4.458  16.518  0.00  0.00    +0.000 OA
ENDBRANCH   5   9
ENDBRANCH   1   2
BRANCH   1  16
ATOM     12  C   UNL     1       1.588   9.154  18.713  0.00  0.00    +0.000 A 
ATOM     13  C   UNL     1       0.999   9.794  19.805  0.00  0.00    +0.000 A 
ATOM     14  C   UNL     1       0.785   9.102  20.997  0.00  0.00    +0.000 A 
ATOM     15  C   UNL     1       1.214   7.779  21.122  0.00  0.00    +0.000 A 
ATOM     16  C   UNL     1       1.870   7.135  20.065  0.00  0.00    +0.000 A 
ATOM     17  C   UNL     1       2.039   7.834  18.863  0.00  0.00    +0.000 A 
BRANCH  12  18
ATOM     18  N   UNL     1       1.953   9.891  17.579  0.00  0.00    +0.000 N 
ATOM     19  H   UNL     1       1.171  10.314  17.088  0.00  0.00    +0.000 HD
ATOM     20  H   UNL     1       2.586   9.407  16.951  0.00  0.00    +0.000 HD
ENDBRANCH  12  18
ENDBRANCH   1  16
TORSDOF 4
ENDMDL
