MODEL 1
REMARK VINA RESULT:      -6.9      0.000      0.000
REMARK  Name = 
REMARK  5 active torsions:
REMARK  status: ('A' for Active; 'I' for Inactive)
REMARK    1  A    between atoms: C_2  and  C_3
REMARK    2  A    between atoms: C_6  and  C_7
REMARK    3  A    between atoms: C_7  and  O_8
REMARK    4  A    between atoms: O_8  and  N_9
REMARK    5  A    between atoms: C_10  and  C_11
REMARK                            x       y       z     vdW  Elec       q    Type
REMARK                         _______ _______ _______ _____ _____    ______ ____
ROOT
ATOM      1  C   UNL     1       7.359   6.525  17.152  0.00  0.00    +0.000 C 
ENDROOT
BRANCH   1   5
ATOM      2  C   UNL     1       3.461   4.676  17.481  0.00  0.00    +0.000 A 
ATOM      3  C   UNL     1       3.625   6.032  17.779  0.00  0.00    +0.000 A 
ATOM      4  C   UNL     1       4.889   6.625  17.680  0.00  0.00    +0.000 A 
ATOM      5  C   UNL     1       6.003   5.870  17.286  0.00  0.00    +0.000 A 
ATOM      6  C   UNL     1       5.831   4.510  16.994  0.00  0.00    +0.000 A 
ATOM      7  C   UNL     1       4.568   3.916  17.091  0.00  0.00    +0.000 A 
BRANCH   2   9
ATOM      8  N   UNL     1       1.113   3.583  17.642  0.00  0.00    +0.000 NA
ATOM      9  C   UNL     1       2.164   4.069  17.570  0.00  0.00    +0.000 C 
ENDBRANCH   2   9
ENDBRANCH   1   5
BRANCH   1  10
ATOM     10  O   UNL     1       7.220   7.943  17.281  0.00  0.00    +0.000 OA
BRANCH  10  11
ATOM     11  N   UNL     1       8.336   8.443  17.978  0.00  0.00    +0.000 NA
ATOM     12  C   UNL     1       8.287   9.738  17.973  0.00  0.00    +0.000 C 
BRANCH  12  13
ATOM     13  C   UNL     1       9.318  10.566  18.632  0.00  0.00    +0.000 A 
ATOM     14  C   UNL     1      10.342  11.156  17.886  0.00  0.00    +0.000 A 
ATOM     15  C   UNL     1      11.312  11.928  18.527  0.00  0.00    +0.000 A 
ATOM     16  C   UNL     1      11.259  12.110  19.909  0.00  0.00    +0.000 A 
ATOM     17  C   UNL     1      10.234  11.524  20.653  0.00  0.00    +0.000 A 
ATOM     18  C   UNL     1       9.260  10.751  20.017  0.00  0.00    +0.000 A 
ENDBRANCH  12  13
ENDBRANCH  10  11
ENDBRANCH   1  10
TORSDOF 5
ENDMDL
MODEL 2
REMARK VINA RESULT:      -6.8      4.450      7.621
REMARK  Name = 
REMARK  5 active torsions:
REMARK  status: ('A' for Active; 'I' for Inactive)
REMARK    1  A    between atoms: C_2  and  C_3
REMARK    2  A    between atoms: C_6  and  C_7
REMARK    3  A    between atoms: C_7  and  O_8
REMARK    4  A    between atoms: O_8  and  N_9
REMARK    5  A    between atoms: C_10  and  C_11
REMARK                            x       y       z     vdW  Elec       q    Type
REMARK                         _______ _______ _______ _____ _____    ______ ____
ROOT
ATOM      1  C   UNL     1       6.472   6.249  18.626  0.00  0.00    +0.000 C 
ENDROOT
BRANCH   1   5
ATOM      2  C   UNL     1       6.163   4.470  14.694  0.00  0.00    +0.000 A 
ATOM      3  C   UNL     1       7.149   4.039  15.587  0.00  0.00    +0.000 A 
ATOM      4  C   UNL     1       7.252   4.622  16.855  0.00  0.00    +0.000 A 
ATOM      5  C   UNL     1       6.374   5.645  17.244  0.00  0.00    +0.000 A 
ATOM      6  C   UNL     1       5.392   6.074  16.341  0.00  0.00    +0.000 A 
ATOM      7  C   UNL     1       5.287   5.491  15.074  0.00  0.00    +0.000 A 
BRANCH   2   9
ATOM      8  N   UNL     1       5.958   3.376  12.350  0.00  0.00    +0.000 NA
ATOM      9  C   UNL     1       6.048   3.864  13.399  0.00  0.00    +0.000 C 
ENDBRANCH   2   9
ENDBRANCH   1   5
BRANCH   1  10
ATOM     10  O   UNL     1       6.628   5.207  19.594  0.00  0.00    +0.000 OA
BRANCH  10  11
ATOM     11  N   UNL     1       5.545   4.317  19.476  0.00  0.00    +0.000 NA
ATOM     12  C   UNL     1       4.444   4.967  19.689  0.00  0.00    +0.000 C 
BRANCH  12  13
ATOM     13  C   UNL     1       3.121   4.313  19.630  0.00  0.00    +0.000 A 
ATOM     14  C   UNL     1       2.430   3.993  20.802  0.00  0.00    +0.000 A 
ATOM     15  C   UNL     1       1.185   3.368  20.728  0.00  0.00    +0.000 A 
ATOM     16  C   UNL     1       0.631   3.062  19.484  0.00  0.00    +0.000 A 
ATOM     17  C   UNL     1       1.318   3.384  18.313  0.00  0.00    +0.000 A 
ATOM     18  C   UNL     1       2.565   4.011  18.383  0.00  0.00    +0.000 A 
ENDBRANCH  12  13
ENDBRANCH  10  11
ENDBRANCH   1  10
TORSDOF 5
ENDMDL
MODEL 3
REMARK VINA RESULT:      -6.7      0.904      1.508
REMARK  Name = 
REMARK  5 active torsions:
REMARK  status: ('A' for Active; 'I' for Inactive)
REMARK    1  A    between atoms: C_2  and  C_3
REMARK    2  A    between atoms: C_6  and  C_7
REMARK    3  A    between atoms: C_7  and  O_8
REMARK    4  A    between atoms: O_8  and  N_9
REMARK    5  A    between atoms: C_10  and  C_11
REMARK                            x       y       z     vdW  Elec       q    Type
REMARK                         _______ _______ _______ _____ _____    ______ ____
ROOT
ATOM      1  C   UNL     1       7.663   6.446  18.298  0.00  0.00    +0.000 C 
ENDROOT
BRANCH   1   5
ATOM      2  C   UNL     1       3.675   4.816  17.892  0.00  0.00    +0.000 A 
ATOM      3  C   UNL     1       4.244   5.555  16.850  0.00  0.00    +0.000 A 
ATOM      4  C   UNL     1       5.530   6.088  16.988  0.00  0.00    +0.000 A 
ATOM      5  C   UNL     1       6.262   5.892  18.169  0.00  0.00    +0.000 A 
ATOM      6  C   UNL     1       5.682   5.155  19.210  0.00  0.00    +0.000 A 
ATOM      7  C   UNL     1       4.396   4.620  19.073  0.00  0.00    +0.000 A 
BRANCH   2   9
ATOM      8  N   UNL     1       1.300   3.806  17.624  0.00  0.00    +0.000 NA
ATOM      9  C   UNL     1       2.361   4.257  17.746  0.00  0.00    +0.000 C 
ENDBRANCH   2   9
ENDBRANCH   1   5
BRANCH   1  10
ATOM     10  O   UNL     1       7.679   7.812  17.873  0.00  0.00    +0.000 OA
BRANCH  10  11
ATOM     11  N   UNL     1       8.665   8.499  18.605  0.00  0.00    +0.000 NA
ATOM     12  C   UNL     1       8.641   9.750  18.267  0.00  0.00    +0.000 C 
BRANCH  12  13
ATOM     13  C   UNL     1       9.555  10.743  18.866  0.00  0.00    +0.000 A 
ATOM     14  C   UNL     1       9.545  10.983  20.243  0.00  0.00    +0.000 A 
ATOM     15  C   UNL     1      10.410  11.931  20.791  0.00  0.00    +0.000 A 
ATOM     16  C   UNL     1      11.283  12.639  19.965  0.00  0.00    +0.000 A 
ATOM     17  C   UNL     1      11.296  12.398  18.590  0.00  0.00    +0.000 A 
ATOM     18  C   UNL     1      10.432  11.449  18.037  0.00  0.00    +0.000 A 
ENDBRANCH  12  13
ENDBRANCH  10  11
ENDBRANCH   1  10
TORSDOF 5
ENDMDL
MODEL 4
REMARK VINA RESULT:      -6.7      5.277      6.668
REMARK  Name = 
REMARK  5 active torsions:
REMARK  status: ('A' for Active; 'I' for Inactive)
REMARK    1  A    between atoms: C_2  and  C_3
REMARK    2  A    between atoms: C_6  and  C_7
REMARK    3  A    between atoms: C_7  and  O_8
REMARK    4  A    between atoms: O_8  and  N_9
REMARK    5  A    between atoms: C_10  and  C_11
REMARK                            x       y       z     vdW  Elec       q    Type
REMARK                         _______ _______ _______ _____ _____    ______ ____
ROOT
ATOM      1  C   UNL     1       3.779   6.701  17.326  0.00  0.00    +0.000 C 
ENDROOT
BRANCH   1   5
ATOM      2  C   UNL     1       2.255   4.009  20.351  0.00  0.00    +0.000 A 
ATOM      3  C   UNL     1       2.835   3.502  19.184  0.00  0.00    +0.000 A 
ATOM      4  C   UNL     1       3.319   4.375  18.204  0.00  0.00    +0.000 A 
ATOM      5  C   UNL     1       3.227   5.764  18.376  0.00  0.00    +0.000 A 
ATOM      6  C   UNL     1       2.639   6.264  19.546  0.00  0.00    +0.000 A 
ATOM      7  C   UNL     1       2.156   5.392  20.528  0.00  0.00    +0.000 A 
BRANCH   2   9
ATOM      8  N   UNL     1       1.383   2.390  22.183  0.00  0.00    +0.000 NA
ATOM      9  C   UNL     1       1.771   3.114  21.364  0.00  0.00    +0.000 C 
ENDBRANCH   2   9
ENDBRANCH   1   5
BRANCH   1  10
ATOM     10  O   UNL     1       5.208   6.643  17.337  0.00  0.00    +0.000 OA
BRANCH  10  11
ATOM     11  N   UNL     1       5.664   6.518  16.012  0.00  0.00    +0.000 NA
ATOM     12  C   UNL     1       5.768   5.259  15.722  0.00  0.00    +0.000 C 
BRANCH  12  13
ATOM     13  C   UNL     1       6.218   4.792  14.395  0.00  0.00    +0.000 A 
ATOM     14  C   UNL     1       7.386   5.299  13.819  0.00  0.00    +0.000 A 
ATOM     15  C   UNL     1       7.791   4.853  12.561  0.00  0.00    +0.000 A 
ATOM     16  C   UNL     1       7.031   3.903  11.879  0.00  0.00    +0.000 A 
ATOM     17  C   UNL     1       5.867   3.394  12.454  0.00  0.00    +0.000 A 
ATOM     18  C   UNL     1       5.457   3.836  13.715  0.00  0.00    +0.000 A 
ENDBRANCH  12  13
ENDBRANCH  10  11
ENDBRANCH   1  10
TORSDOF 5
ENDMDL
MODEL 5
REMARK VINA RESULT:      -6.7      4.346      7.497
REMARK  Name = 
REMARK  5 active torsions:
REMARK  status: ('A' for Active; 'I' for Inactive)
REMARK    1  A    between atoms: C_2  and  C_3
REMARK    2  A    between atoms: C_6  and  C_7
REMARK    3  A    between atoms: C_7  and  O_8
REMARK    4  A    between atoms: O_8  and  N_9
REMARK    5  A    between atoms: C_10  and  C_11
REMARK                            x       y       z     vdW  Elec       q    Type
REMARK                         _______ _______ _______ _____ _____    ______ ____
ROOT
ATOM      1  C   UNL     1       6.893   6.288  18.446  0.00  0.00    +0.000 C 
ENDROOT
BRANCH   1   5
ATOM      2  C   UNL     1       6.075   4.497  14.594  0.00  0.00    +0.000 A 
ATOM      3  C   UNL     1       5.367   5.629  15.009  0.00  0.00    +0.000 A 
ATOM      4  C   UNL     1       5.628   6.201  16.259  0.00  0.00    +0.000 A 
ATOM      5  C   UNL     1       6.596   5.647  17.110  0.00  0.00    +0.000 A 
ATOM      6  C   UNL     1       7.297   4.509  16.688  0.00  0.00    +0.000 A 
ATOM      7  C   UNL     1       7.038   3.937  15.437  0.00  0.00    +0.000 A 
BRANCH   2   9
ATOM      8  N   UNL     1       5.615   3.449  12.265  0.00  0.00    +0.000 NA
ATOM      9  C   UNL     1       5.818   3.918  13.306  0.00  0.00    +0.000 C 
ENDBRANCH   2   9
ENDBRANCH   1   5
BRANCH   1  10
ATOM     10  O   UNL     1       6.668   5.339  19.493  0.00  0.00    +0.000 OA
BRANCH  10  11
ATOM     11  N   UNL     1       5.291   5.299  19.776  0.00  0.00    +0.000 NA
ATOM     12  C   UNL     1       4.827   4.138  19.433  0.00  0.00    +0.000 C 
BRANCH  12  13
ATOM     13  C   UNL     1       3.406   3.775  19.610  0.00  0.00    +0.000 A 
ATOM     14  C   UNL     1       2.898   2.595  19.060  0.00  0.00    +0.000 A 
ATOM     15  C   UNL     1       1.550   2.273  19.230  0.00  0.00    +0.000 A 
ATOM     16  C   UNL     1       0.713   3.128  19.948  0.00  0.00    +0.000 A 
ATOM     17  C   UNL     1       1.221   4.304  20.499  0.00  0.00    +0.000 A 
ATOM     18  C   UNL     1       2.570   4.631  20.333  0.00  0.00    +0.000 A 
ENDBRANCH  12  13
ENDBRANCH  10  11
ENDBRANCH   1  10
TORSDOF 5
ENDMDL
MODEL 6
REMARK VINA RESULT:      -6.6      5.054      6.665
REMARK  Name = 
REMARK  5 active torsions:
REMARK  status: ('A' for Active; 'I' for Inactive)
REMARK    1  A    between atoms: C_2  and  C_3
REMARK    2  A    between atoms: C_6  and  C_7
REMARK    3  A    between atoms: C_7  and  O_8
REMARK    4  A    between atoms: O_8  and  N_9
REMARK    5  A    between atoms: C_10  and  C_11
REMARK                            x       y       z     vdW  Elec       q    Type
REMARK                         _______ _______ _______ _____ _____    ______ ____
ROOT
ATOM      1  C   UNL     1       5.457   5.612  17.862  0.00  0.00    +0.000 C 
ENDROOT
BRANCH   1   5
ATOM      2  C   UNL     1       2.771   3.619  20.607  0.00  0.00    +0.000 A 
ATOM      3  C   UNL     1       3.748   2.890  19.922  0.00  0.00    +0.000 A 
ATOM      4  C   UNL     1       4.609   3.536  19.028  0.00  0.00    +0.000 A 
ATOM      5  C   UNL     1       4.503   4.917  18.806  0.00  0.00    +0.000 A 
ATOM      6  C   UNL     1       3.518   5.639  19.493  0.00  0.00    +0.000 A 
ATOM      7  C   UNL     1       2.657   4.994  20.388  0.00  0.00    +0.000 A 
BRANCH   2   9
ATOM      8  N   UNL     1       1.191   2.424  22.283  0.00  0.00    +0.000 NA
ATOM      9  C   UNL     1       1.896   2.960  21.533  0.00  0.00    +0.000 C 
ENDBRANCH   2   9
ENDBRANCH   1   5
BRANCH   1  10
ATOM     10  O   UNL     1       6.773   5.077  18.031  0.00  0.00    +0.000 OA
BRANCH  10  11
ATOM     11  N   UNL     1       7.288   4.740  16.766  0.00  0.00    +0.000 NA
ATOM     12  C   UNL     1       6.352   4.886  15.881  0.00  0.00    +0.000 C 
BRANCH  12  13
ATOM     13  C   UNL     1       6.578   4.618  14.446  0.00  0.00    +0.000 A 
ATOM     14  C   UNL     1       5.840   3.635  13.780  0.00  0.00    +0.000 A 
ATOM     15  C   UNL     1       6.073   3.388  12.426  0.00  0.00    +0.000 A 
ATOM     16  C   UNL     1       7.040   4.122  11.740  0.00  0.00    +0.000 A 
ATOM     17  C   UNL     1       7.775   5.106  12.403  0.00  0.00    +0.000 A 
ATOM     18  C   UNL     1       7.545   5.357  13.759  0.00  0.00    +0.000 A 
ENDBRANCH  12  13
ENDBRANCH  10  11
ENDBRANCH   1  10
TORSDOF 5
ENDMDL
MODEL 7
REMARK VINA RESULT:      -6.6      4.995      6.625
REMARK  Name = 
REMARK  5 active torsions:
REMARK  status: ('A' for Active; 'I' for Inactive)
REMARK    1  A    between atoms: C_2  and  C_3
REMARK    2  A    between atoms: C_6  and  C_7
REMARK    3  A    between atoms: C_7  and  O_8
REMARK    4  A    between atoms: O_8  and  N_9
REMARK    5  A    between atoms: C_10  and  C_11
REMARK                            x       y       z     vdW  Elec       q    Type
REMARK                         _______ _______ _______ _____ _____    ______ ____
ROOT
ATOM      1  C   UNL     1       5.489   5.694  18.041  0.00  0.00    +0.000 C 
ENDROOT
BRANCH   1   5
ATOM      2  C   UNL     1       2.775   3.587  20.672  0.00  0.00    +0.000 A 
ATOM      3  C   UNL     1       3.810   2.900  20.030  0.00  0.00    +0.000 A 
ATOM      4  C   UNL     1       4.681   3.582  19.173  0.00  0.00    +0.000 A 
ATOM      5  C   UNL     1       4.526   4.958  18.945  0.00  0.00    +0.000 A 
ATOM      6  C   UNL     1       3.482   5.638  19.588  0.00  0.00    +0.000 A 
ATOM      7  C   UNL     1       2.612   4.957  20.446  0.00  0.00    +0.000 A 
BRANCH   2   9
ATOM      8  N   UNL     1       1.174   2.333  22.284  0.00  0.00    +0.000 NA
ATOM      9  C   UNL     1       1.890   2.892  21.561  0.00  0.00    +0.000 C 
ENDBRANCH   2   9
ENDBRANCH   1   5
BRANCH   1  10
ATOM     10  O   UNL     1       6.743   5.006  18.018  0.00  0.00    +0.000 OA
BRANCH  10  11
ATOM     11  N   UNL     1       7.272   5.079  16.716  0.00  0.00    +0.000 NA
ATOM     12  C   UNL     1       6.429   4.540  15.891  0.00  0.00    +0.000 C 
BRANCH  12  13
ATOM     13  C   UNL     1       6.689   4.466  14.439  0.00  0.00    +0.000 A 
ATOM     14  C   UNL     1       7.622   5.315  13.837  0.00  0.00    +0.000 A 
ATOM     15  C   UNL     1       7.848   5.236  12.462  0.00  0.00    +0.000 A 
ATOM     16  C   UNL     1       7.144   4.312  11.690  0.00  0.00    +0.000 A 
ATOM     17  C   UNL     1       6.215   3.462  12.291  0.00  0.00    +0.000 A 
ATOM     18  C   UNL     1       5.985   3.536  13.668  0.00  0.00    +0.000 A 
ENDBRANCH  12  13
ENDBRANCH  10  11
ENDBRANCH   1  10
TORSDOF 5
ENDMDL
MODEL 8
REMARK VINA RESULT:      -6.6      4.509      7.608
REMARK  Name = 
REMARK  5 active torsions:
REMARK  status: ('A' for Active; 'I' for Inactive)
REMARK    1  A    between atoms: C_2  and  C_3
REMARK    2  A    between atoms: C_6  and  C_7
REMARK    3  A    between atoms: C_7  and  O_8
REMARK    4  A    between atoms: O_8  and  N_9
REMARK    5  A    between atoms: C_10  and  C_11
REMARK                            x       y       z     vdW  Elec       q    Type
REMARK                         _______ _______ _______ _____ _____    ______ ____
ROOT
ATOM      1  C   UNL     1       6.283   6.249  18.531  0.00  0.00    +0.000 C 
ENDROOT
BRANCH   1   5
ATOM      2  C   UNL     1       6.225   4.445  14.599  0.00  0.00    +0.000 A 
ATOM      3  C   UNL     1       5.220   5.339  14.979  0.00  0.00    +0.000 A 
ATOM      4  C   UNL     1       5.236   5.914  16.254  0.00  0.00    +0.000 A 
ATOM      5  C   UNL     1       6.256   5.600  17.166  0.00  0.00    +0.000 A 
ATOM      6  C   UNL     1       7.257   4.700  16.778  0.00  0.00    +0.000 A 
ATOM      7  C   UNL     1       7.242   4.125  15.502  0.00  0.00    +0.000 A 
BRANCH   2   9
ATOM      8  N   UNL     1       6.215   3.395  12.225  0.00  0.00    +0.000 NA
ATOM      9  C   UNL     1       6.217   3.865  13.286  0.00  0.00    +0.000 C 
ENDBRANCH   2   9
ENDBRANCH   1   5
BRANCH   1  10
ATOM     10  O   UNL     1       6.562   5.259  19.526  0.00  0.00    +0.000 OA
BRANCH  10  11
ATOM     11  N   UNL     1       5.497   4.341  19.557  0.00  0.00    +0.000 NA
ATOM     12  C   UNL     1       4.379   4.996  19.562  0.00  0.00    +0.000 C 
BRANCH  12  13
ATOM     13  C   UNL     1       3.068   4.316  19.586  0.00  0.00    +0.000 A 
ATOM     14  C   UNL     1       2.447   4.007  20.799  0.00  0.00    +0.000 A 
ATOM     15  C   UNL     1       1.213   3.356  20.803  0.00  0.00    +0.000 A 
ATOM     16  C   UNL     1       0.600   3.014  19.597  0.00  0.00    +0.000 A 
ATOM     17  C   UNL     1       1.219   3.325  18.385  0.00  0.00    +0.000 A 
ATOM     18  C   UNL     1       2.454   3.977  18.376  0.00  0.00    +0.000 A 
ENDBRANCH  12  13
ENDBRANCH  10  11
ENDBRANCH   1  10
TORSDOF 5
ENDMDL
MODEL 9
REMARK VINA RESULT:      -6.6      0.920      1.220
REMARK  Name = 
REMARK  5 active torsions:
REMARK  status: ('A' for Active; 'I' for Inactive)
REMARK    1  A    between atoms: C_2  and  C_3
REMARK    2  A    between atoms: C_6  and  C_7
REMARK    3  A    between atoms: C_7  and  O_8
REMARK    4  A    between atoms: O_8  and  N_9
REMARK    5  A    between atoms: C_10  and  C_11
REMARK                            x       y       z     vdW  Elec       q    Type
REMARK                         _______ _______ _______ _____ _____    ______ ____
ROOT
ATOM      1  C   UNL     1       7.537   6.641  17.794  0.00  0.00    +0.000 C 
ENDROOT
BRANCH   1   5
ATOM      2  C   UNL     1       3.591   4.985  18.431  0.00  0.00    +0.000 A 
ATOM      3  C   UNL     1       4.672   4.547  19.201  0.00  0.00    +0.000 A 
ATOM      4  C   UNL     1       5.949   5.078  18.987  0.00  0.00    +0.000 A 
ATOM      5  C   UNL     1       6.161   6.050  17.999  0.00  0.00    +0.000 A 
ATOM      6  C   UNL     1       5.073   6.480  17.227  0.00  0.00    +0.000 A 
ATOM      7  C   UNL     1       3.795   5.951  17.442  0.00  0.00    +0.000 A 
BRANCH   2   9
ATOM      8  N   UNL     1       1.219   4.016  18.845  0.00  0.00    +0.000 NA
ATOM      9  C   UNL     1       2.279   4.451  18.659  0.00  0.00    +0.000 C 
ENDBRANCH   2   9
ENDBRANCH   1   5
BRANCH   1  10
ATOM     10  O   UNL     1       7.445   8.068  17.754  0.00  0.00    +0.000 OA
BRANCH  10  11
ATOM     11  N   UNL     1       8.545   8.609  18.444  0.00  0.00    +0.000 NA
ATOM     12  C   UNL     1       8.576   9.890  18.244  0.00  0.00    +0.000 C 
BRANCH  12  13
ATOM     13  C   UNL     1       9.613  10.754  18.842  0.00  0.00    +0.000 A 
ATOM     14  C   UNL     1      10.681  11.223  18.072  0.00  0.00    +0.000 A 
ATOM     15  C   UNL     1      11.657  12.032  18.656  0.00  0.00    +0.000 A 
ATOM     16  C   UNL     1      11.567  12.371  20.006  0.00  0.00    +0.000 A 
ATOM     17  C   UNL     1      10.499  11.906  20.774  0.00  0.00    +0.000 A 
ATOM     18  C   UNL     1       9.518  11.096  20.194  0.00  0.00    +0.000 A 
ENDBRANCH  12  13
ENDBRANCH  10  11
ENDBRANCH   1  10
TORSDOF 5
ENDMDL
