MODEL 1
REMARK VINA RESULT:      -7.0      0.000      0.000
REMARK  Name = 
REMARK  4 active torsions:
REMARK  status: ('A' for Active; 'I' for Inactive)
REMARK    1  A    between atoms: C_1  and  C_2
REMARK    2  A    between atoms: C_7  and  O_9
REMARK    3  A    between atoms: O_9  and  C_10
REMARK    4  A    between atoms: C_10  and  C_11
REMARK                            x       y       z     vdW  Elec       q    Type
REMARK                         _______ _______ _______ _____ _____    ______ ____
ROOT
ATOM      1  C   UNL     1       1.336   4.387  17.763  0.00  0.00    +0.000 C 
ATOM      2  C   UNL     1       1.161   4.355  19.284  0.00  0.00    +0.000 C 
ATOM      3  C   UNL     1       0.905   2.925  19.792  0.00  0.00    +0.000 C 
ATOM      4  C   UNL     1       2.149   2.044  19.675  0.00  0.00    +0.000 C 
ATOM      5  C   UNL     1       3.358   2.701  20.337  0.00  0.00    +0.000 C 
ATOM      6  N   UNL     1       3.541   4.062  19.846  0.00  0.00    +0.000 N 
ATOM      7  C   UNL     1       4.780   4.464  19.371  0.00  0.00    +0.000 C 
ATOM      8  O   UNL     1       5.772   3.758  19.346  0.00  0.00    +0.000 OA
ATOM      9  C   UNL     1       2.389   4.953  19.982  0.00  0.00    +0.000 C 
ENDROOT
BRANCH   7  10
ATOM     10  O   UNL     1       4.798   5.775  18.997  0.00  0.00    +0.000 OA
BRANCH  10  11
ATOM     11  C   UNL     1       4.546   5.950  17.598  0.00  0.00    +0.000 C 
BRANCH  11  12
ATOM     12  C   UNL     1       5.682   6.662  16.829  0.00  0.00    +0.000 C 
ATOM     13  C   UNL     1       7.094   6.155  17.161  0.00  0.00    +0.000 C 
ATOM     14  C   UNL     1       7.368   4.757  16.606  0.00  0.00    +0.000 C 
ATOM     15  C   UNL     1       7.024   4.682  15.121  0.00  0.00    +0.000 C 
ATOM     16  C   UNL     1       5.631   5.236  14.835  0.00  0.00    +0.000 C 
ATOM     17  N   UNL     1       5.479   6.593  15.363  0.00  0.00    +0.000 NA
ATOM     18  H   UNL     1       4.553   6.953  15.129  0.00  0.00    +0.000 HD
ENDBRANCH  11  12
ENDBRANCH  10  11
ENDBRANCH   7  10
TORSDOF 3
ENDMDL
MODEL 2
REMARK VINA RESULT:      -6.9      1.814      2.819
REMARK  Name = 
REMARK  4 active torsions:
REMARK  status: ('A' for Active; 'I' for Inactive)
REMARK    1  A    between atoms: C_1  and  C_2
REMARK    2  A    between atoms: C_7  and  O_9
REMARK    3  A    between atoms: O_9  and  C_10
REMARK    4  A    between atoms: C_10  and  C_11
REMARK                            x       y       z     vdW  Elec       q    Type
REMARK                         _______ _______ _______ _____ _____    ______ ____
ROOT
ATOM      1  C   UNL     1       3.262   1.541  18.498  0.00  0.00    +0.000 C 
ATOM      2  C   UNL     1       1.999   2.190  17.923  0.00  0.00    +0.000 C 
ATOM      3  C   UNL     1       0.861   2.224  18.958  0.00  0.00    +0.000 C 
ATOM      4  C   UNL     1       1.145   3.213  20.090  0.00  0.00    +0.000 C 
ATOM      5  C   UNL     1       1.492   4.596  19.543  0.00  0.00    +0.000 C 
ATOM      6  N   UNL     1       2.553   4.508  18.546  0.00  0.00    +0.000 N 
ATOM      7  C   UNL     1       3.673   5.317  18.657  0.00  0.00    +0.000 C 
ATOM      8  O   UNL     1       3.846   6.141  19.538  0.00  0.00    +0.000 OA
ATOM      9  C   UNL     1       2.302   3.608  17.421  0.00  0.00    +0.000 C 
ENDROOT
BRANCH   7  10
ATOM     10  O   UNL     1       4.545   5.150  17.623  0.00  0.00    +0.000 OA
BRANCH  10  11
ATOM     11  C   UNL     1       5.604   4.238  17.939  0.00  0.00    +0.000 C 
BRANCH  11  12
ATOM     12  C   UNL     1       6.955   4.572  17.268  0.00  0.00    +0.000 C 
ATOM     13  C   UNL     1       6.966   5.886  16.471  0.00  0.00    +0.000 C 
ATOM     14  C   UNL     1       6.916   7.124  17.367  0.00  0.00    +0.000 C 
ATOM     15  C   UNL     1       7.987   7.056  18.451  0.00  0.00    +0.000 C 
ATOM     16  C   UNL     1       7.966   5.718  19.185  0.00  0.00    +0.000 C 
ATOM     17  N   UNL     1       8.064   4.596  18.249  0.00  0.00    +0.000 NA
ATOM     18  H   UNL     1       8.082   3.716  18.766  0.00  0.00    +0.000 HD
ENDBRANCH  11  12
ENDBRANCH  10  11
ENDBRANCH   7  10
TORSDOF 3
ENDMDL
MODEL 3
REMARK VINA RESULT:      -6.9      1.769      5.722
REMARK  Name = 
REMARK  4 active torsions:
REMARK  status: ('A' for Active; 'I' for Inactive)
REMARK    1  A    between atoms: C_1  and  C_2
REMARK    2  A    between atoms: C_7  and  O_9
REMARK    3  A    between atoms: O_9  and  C_10
REMARK    4  A    between atoms: C_10  and  C_11
REMARK                            x       y       z     vdW  Elec       q    Type
REMARK                         _______ _______ _______ _____ _____    ______ ____
ROOT
ATOM      1  C   UNL     1       5.451   4.485  14.538  0.00  0.00    +0.000 C 
ATOM      2  C   UNL     1       6.212   3.938  15.749  0.00  0.00    +0.000 C 
ATOM      3  C   UNL     1       7.356   4.877  16.168  0.00  0.00    +0.000 C 
ATOM      4  C   UNL     1       6.835   6.179  16.779  0.00  0.00    +0.000 C 
ATOM      5  C   UNL     1       5.849   5.903  17.913  0.00  0.00    +0.000 C 
ATOM      6  N   UNL     1       4.802   4.986  17.476  0.00  0.00    +0.000 N 
ATOM      7  C   UNL     1       3.470   5.315  17.674  0.00  0.00    +0.000 C 
ATOM      8  O   UNL     1       3.083   6.333  18.220  0.00  0.00    +0.000 OA
ATOM      9  C   UNL     1       5.256   3.709  16.928  0.00  0.00    +0.000 C 
ENDROOT
BRANCH   7  10
ATOM     10  O   UNL     1       2.620   4.334  17.257  0.00  0.00    +0.000 OA
BRANCH  10  11
ATOM     11  C   UNL     1       1.462   4.219  18.093  0.00  0.00    +0.000 C 
BRANCH  11  12
ATOM     12  C   UNL     1       1.250   2.814  18.701  0.00  0.00    +0.000 C 
ATOM     13  C   UNL     1       2.539   1.998  18.888  0.00  0.00    +0.000 C 
ATOM     14  C   UNL     1       3.423   2.535  20.014  0.00  0.00    +0.000 C 
ATOM     15  C   UNL     1       2.620   2.716  21.299  0.00  0.00    +0.000 C 
ATOM     16  C   UNL     1       1.330   3.494  21.056  0.00  0.00    +0.000 C 
ATOM     17  N   UNL     1       0.530   2.879  19.994  0.00  0.00    +0.000 NA
ATOM     18  H   UNL     1      -0.341   3.397  19.874  0.00  0.00    +0.000 HD
ENDBRANCH  11  12
ENDBRANCH  10  11
ENDBRANCH   7  10
TORSDOF 3
ENDMDL
MODEL 4
REMARK VINA RESULT:      -6.9      1.423      2.013
REMARK  Name = 
REMARK  4 active torsions:
REMARK  status: ('A' for Active; 'I' for Inactive)
REMARK    1  A    between atoms: C_1  and  C_2
REMARK    2  A    between atoms: C_7  and  O_9
REMARK    3  A    between atoms: O_9  and  C_10
REMARK    4  A    between atoms: C_10  and  C_11
REMARK                            x       y       z     vdW  Elec       q    Type
REMARK                         _______ _______ _______ _____ _____    ______ ____
ROOT
ATOM      1  C   UNL     1       3.691   2.361  18.417  0.00  0.00    +0.000 C 
ATOM      2  C   UNL     1       2.223   2.522  18.010  0.00  0.00    +0.000 C 
ATOM      3  C   UNL     1       1.274   2.037  19.120  0.00  0.00    +0.000 C 
ATOM      4  C   UNL     1       1.289   2.967  20.334  0.00  0.00    +0.000 C 
ATOM      5  C   UNL     1       1.034   4.416  19.927  0.00  0.00    +0.000 C 
ATOM      6  N   UNL     1       1.937   4.819  18.854  0.00  0.00    +0.000 N 
ATOM      7  C   UNL     1       2.680   5.983  18.978  0.00  0.00    +0.000 C 
ATOM      8  O   UNL     1       2.627   6.738  19.932  0.00  0.00    +0.000 OA
ATOM      9  C   UNL     1       1.919   3.984  17.654  0.00  0.00    +0.000 C 
ENDROOT
BRANCH   7  10
ATOM     10  O   UNL     1       3.433   6.244  17.872  0.00  0.00    +0.000 OA
BRANCH  10  11
ATOM     11  C   UNL     1       4.819   5.936  18.067  0.00  0.00    +0.000 C 
BRANCH  11  12
ATOM     12  C   UNL     1       5.775   6.647  17.084  0.00  0.00    +0.000 C 
ATOM     13  C   UNL     1       7.245   6.210  17.192  0.00  0.00    +0.000 C 
ATOM     14  C   UNL     1       7.483   4.796  16.661  0.00  0.00    +0.000 C 
ATOM     15  C   UNL     1       6.896   4.632  15.262  0.00  0.00    +0.000 C 
ATOM     16  C   UNL     1       5.451   5.120  15.194  0.00  0.00    +0.000 C 
ATOM     17  N   UNL     1       5.330   6.496  15.679  0.00  0.00    +0.000 NA
ATOM     18  H   UNL     1       4.363   6.809  15.592  0.00  0.00    +0.000 HD
ENDBRANCH  11  12
ENDBRANCH  10  11
ENDBRANCH   7  10
TORSDOF 3
ENDMDL
MODEL 5
REMARK VINA RESULT:      -6.9      1.800      2.685
REMARK  Name = 
REMARK  4 active torsions:
REMARK  status: ('A' for Active; 'I' for Inactive)
REMARK    1  A    between atoms: C_1  and  C_2
REMARK    2  A    between atoms: C_7  and  O_9
REMARK    3  A    between atoms: O_9  and  C_10
REMARK    4  A    between atoms: C_10  and  C_11
REMARK                            x       y       z     vdW  Elec       q    Type
REMARK                         _______ _______ _______ _____ _____    ______ ____
ROOT
ATOM      1  C   UNL     1       1.961   5.496  19.986  0.00  0.00    +0.000 C 
ATOM      2  C   UNL     1       1.837   4.241  20.854  0.00  0.00    +0.000 C 
ATOM      3  C   UNL     1       0.544   3.467  20.545  0.00  0.00    +0.000 C 
ATOM      4  C   UNL     1       0.587   2.803  19.168  0.00  0.00    +0.000 C 
ATOM      5  C   UNL     1       1.843   1.950  19.003  0.00  0.00    +0.000 C 
ATOM      6  N   UNL     1       3.038   2.717  19.335  0.00  0.00    +0.000 N 
ATOM      7  C   UNL     1       4.101   2.758  18.447  0.00  0.00    +0.000 C 
ATOM      8  O   UNL     1       4.134   2.169  17.381  0.00  0.00    +0.000 OA
ATOM      9  C   UNL     1       3.058   3.330  20.663  0.00  0.00    +0.000 C 
ENDROOT
BRANCH   7  10
ATOM     10  O   UNL     1       5.158   3.474  18.926  0.00  0.00    +0.000 OA
BRANCH  10  11
ATOM     11  C   UNL     1       5.397   4.670  18.174  0.00  0.00    +0.000 C 
BRANCH  11  12
ATOM     12  C   UNL     1       6.791   4.737  17.508  0.00  0.00    +0.000 C 
ATOM     13  C   UNL     1       7.008   5.960  16.603  0.00  0.00    +0.000 C 
ATOM     14  C   UNL     1       7.138   7.264  17.390  0.00  0.00    +0.000 C 
ATOM     15  C   UNL     1       8.176   7.131  18.501  0.00  0.00    +0.000 C 
ATOM     16  C   UNL     1       7.944   5.880  19.345  0.00  0.00    +0.000 C 
ATOM     17  N   UNL     1       7.880   4.679  18.510  0.00  0.00    +0.000 NA
ATOM     18  H   UNL     1       7.759   3.855  19.099  0.00  0.00    +0.000 HD
ENDBRANCH  11  12
ENDBRANCH  10  11
ENDBRANCH   7  10
TORSDOF 3
ENDMDL
MODEL 6
REMARK VINA RESULT:      -6.8      1.309      1.801
REMARK  Name = 
REMARK  4 active torsions:
REMARK  status: ('A' for Active; 'I' for Inactive)
REMARK    1  A    between atoms: C_1  and  C_2
REMARK    2  A    between atoms: C_7  and  O_9
REMARK    3  A    between atoms: O_9  and  C_10
REMARK    4  A    between atoms: C_10  and  C_11
REMARK                            x       y       z     vdW  Elec       q    Type
REMARK                         _______ _______ _______ _____ _____    ______ ____
ROOT
ATOM      1  C   UNL     1       2.106   4.979  21.057  0.00  0.00    +0.000 C 
ATOM      2  C   UNL     1       2.401   3.492  21.271  0.00  0.00    +0.000 C 
ATOM      3  C   UNL     1       1.152   2.628  21.021  0.00  0.00    +0.000 C 
ATOM      4  C   UNL     1       0.769   2.587  19.541  0.00  0.00    +0.000 C 
ATOM      5  C   UNL     1       1.957   2.177  18.673  0.00  0.00    +0.000 C 
ATOM      6  N   UNL     1       3.123   3.004  18.967  0.00  0.00    +0.000 N 
ATOM      7  C   UNL     1       3.802   3.631  17.934  0.00  0.00    +0.000 C 
ATOM      8  O   UNL     1       3.512   3.532  16.755  0.00  0.00    +0.000 OA
ATOM      9  C   UNL     1       3.551   3.034  20.364  0.00  0.00    +0.000 C 
ENDROOT
BRANCH   7  10
ATOM     10  O   UNL     1       4.894   4.322  18.369  0.00  0.00    +0.000 OA
BRANCH  10  11
ATOM     11  C   UNL     1       4.739   5.739  18.225  0.00  0.00    +0.000 C 
BRANCH  11  12
ATOM     12  C   UNL     1       5.942   6.449  17.563  0.00  0.00    +0.000 C 
ATOM     13  C   UNL     1       7.268   5.676  17.652  0.00  0.00    +0.000 C 
ATOM     14  C   UNL     1       7.294   4.437  16.757  0.00  0.00    +0.000 C 
ATOM     15  C   UNL     1       6.882   4.787  15.330  0.00  0.00    +0.000 C 
ATOM     16  C   UNL     1       5.585   5.590  15.295  0.00  0.00    +0.000 C 
ATOM     17  N   UNL     1       5.672   6.779  16.145  0.00  0.00    +0.000 NA
ATOM     18  H   UNL     1       4.807   7.315  16.078  0.00  0.00    +0.000 HD
ENDBRANCH  11  12
ENDBRANCH  10  11
ENDBRANCH   7  10
TORSDOF 3
ENDMDL
MODEL 7
REMARK VINA RESULT:      -6.8      1.420      2.132
REMARK  Name = 
REMARK  4 active torsions:
REMARK  status: ('A' for Active; 'I' for Inactive)
REMARK    1  A    between atoms: C_1  and  C_2
REMARK    2  A    between atoms: C_7  and  O_9
REMARK    3  A    between atoms: O_9  and  C_10
REMARK    4  A    between atoms: C_10  and  C_11
REMARK                            x       y       z     vdW  Elec       q    Type
REMARK                         _______ _______ _______ _____ _____    ______ ____
ROOT
ATOM      1  C   UNL     1       1.660   4.434  17.927  0.00  0.00    +0.000 C 
ATOM      2  C   UNL     1       1.702   4.983  19.356  0.00  0.00    +0.000 C 
ATOM      3  C   UNL     1       0.758   4.203  20.288  0.00  0.00    +0.000 C 
ATOM      4  C   UNL     1       1.264   2.785  20.560  0.00  0.00    +0.000 C 
ATOM      5  C   UNL     1       2.709   2.798  21.055  0.00  0.00    +0.000 C 
ATOM      6  N   UNL     1       3.557   3.572  20.156  0.00  0.00    +0.000 N 
ATOM      7  C   UNL     1       4.730   3.019  19.667  0.00  0.00    +0.000 C 
ATOM      8  O   UNL     1       5.141   1.908  19.949  0.00  0.00    +0.000 OA
ATOM      9  C   UNL     1       3.135   4.950  19.905  0.00  0.00    +0.000 C 
ENDROOT
BRANCH   7  10
ATOM     10  O   UNL     1       5.432   3.888  18.883  0.00  0.00    +0.000 OA
BRANCH  10  11
ATOM     11  C   UNL     1       5.147   3.720  17.489  0.00  0.00    +0.000 C 
BRANCH  11  12
ATOM     12  C   UNL     1       6.230   4.289  16.544  0.00  0.00    +0.000 C 
ATOM     13  C   UNL     1       5.887   5.655  15.927  0.00  0.00    +0.000 C 
ATOM     14  C   UNL     1       5.939   6.795  16.944  0.00  0.00    +0.000 C 
ATOM     15  C   UNL     1       7.259   6.783  17.711  0.00  0.00    +0.000 C 
ATOM     16  C   UNL     1       7.577   5.398  18.267  0.00  0.00    +0.000 C 
ATOM     17  N   UNL     1       7.548   4.381  17.213  0.00  0.00    +0.000 NA
ATOM     18  H   UNL     1       7.797   3.472  17.603  0.00  0.00    +0.000 HD
ENDBRANCH  11  12
ENDBRANCH  10  11
ENDBRANCH   7  10
TORSDOF 3
ENDMDL
MODEL 8
REMARK VINA RESULT:      -6.7      1.823      2.677
REMARK  Name = 
REMARK  4 active torsions:
REMARK  status: ('A' for Active; 'I' for Inactive)
REMARK    1  A    between atoms: C_1  and  C_2
REMARK    2  A    between atoms: C_7  and  O_9
REMARK    3  A    between atoms: O_9  and  C_10
REMARK    4  A    between atoms: C_10  and  C_11
REMARK                            x       y       z     vdW  Elec       q    Type
REMARK                         _______ _______ _______ _____ _____    ______ ____
ROOT
ATOM      1  C   UNL     1       2.177   5.387  20.762  0.00  0.00    +0.000 C 
ATOM      2  C   UNL     1       2.558   3.937  21.075  0.00  0.00    +0.000 C 
ATOM      3  C   UNL     1       1.312   3.069  21.324  0.00  0.00    +0.000 C 
ATOM      4  C   UNL     1       0.510   2.835  20.043  0.00  0.00    +0.000 C 
ATOM      5  C   UNL     1       1.398   2.293  18.925  0.00  0.00    +0.000 C 
ATOM      6  N   UNL     1       2.578   3.132  18.747  0.00  0.00    +0.000 N 
ATOM      7  C   UNL     1       2.906   3.603  17.485  0.00  0.00    +0.000 C 
ATOM      8  O   UNL     1       2.282   3.351  16.470  0.00  0.00    +0.000 OA
ATOM      9  C   UNL     1       3.399   3.343  19.938  0.00  0.00    +0.000 C 
ENDROOT
BRANCH   7  10
ATOM     10  O   UNL     1       4.061   4.329  17.481  0.00  0.00    +0.000 OA
BRANCH  10  11
ATOM     11  C   UNL     1       5.111   3.684  16.752  0.00  0.00    +0.000 C 
BRANCH  11  12
ATOM     12  C   UNL     1       5.962   4.636  15.882  0.00  0.00    +0.000 C 
ATOM     13  C   UNL     1       5.426   6.074  15.796  0.00  0.00    +0.000 C 
ATOM     14  C   UNL     1       5.594   6.849  17.103  0.00  0.00    +0.000 C 
ATOM     15  C   UNL     1       7.031   6.760  17.609  0.00  0.00    +0.000 C 
ATOM     16  C   UNL     1       7.533   5.319  17.636  0.00  0.00    +0.000 C 
ATOM     17  N   UNL     1       7.373   4.676  16.330  0.00  0.00    +0.000 NA
ATOM     18  H   UNL     1       7.747   3.727  16.365  0.00  0.00    +0.000 HD
ENDBRANCH  11  12
ENDBRANCH  10  11
ENDBRANCH   7  10
TORSDOF 3
ENDMDL
MODEL 9
REMARK VINA RESULT:      -6.7      1.202      1.885
REMARK  Name = 
REMARK  4 active torsions:
REMARK  status: ('A' for Active; 'I' for Inactive)
REMARK    1  A    between atoms: C_1  and  C_2
REMARK    2  A    between atoms: C_7  and  O_9
REMARK    3  A    between atoms: O_9  and  C_10
REMARK    4  A    between atoms: C_10  and  C_11
REMARK                            x       y       z     vdW  Elec       q    Type
REMARK                         _______ _______ _______ _____ _____    ______ ____
ROOT
ATOM      1  C   UNL     1       1.932   4.568  17.839  0.00  0.00    +0.000 C 
ATOM      2  C   UNL     1       1.738   4.973  19.303  0.00  0.00    +0.000 C 
ATOM      3  C   UNL     1       0.661   4.113  19.988  0.00  0.00    +0.000 C 
ATOM      4  C   UNL     1       1.127   2.671  20.198  0.00  0.00    +0.000 C 
ATOM      5  C   UNL     1       2.472   2.623  20.918  0.00  0.00    +0.000 C 
ATOM      6  N   UNL     1       3.449   3.475  20.250  0.00  0.00    +0.000 N 
ATOM      7  C   UNL     1       4.690   2.963  19.905  0.00  0.00    +0.000 C 
ATOM      8  O   UNL     1       5.058   1.826  20.139  0.00  0.00    +0.000 OA
ATOM      9  C   UNL     1       3.062   4.874  20.071  0.00  0.00    +0.000 C 
ENDROOT
BRANCH   7  10
ATOM     10  O   UNL     1       5.503   3.898  19.334  0.00  0.00    +0.000 OA
BRANCH  10  11
ATOM     11  C   UNL     1       5.616   3.735  17.916  0.00  0.00    +0.000 C 
BRANCH  11  12
ATOM     12  C   UNL     1       6.639   4.679  17.244  0.00  0.00    +0.000 C 
ATOM     13  C   UNL     1       6.707   4.562  15.713  0.00  0.00    +0.000 C 
ATOM     14  C   UNL     1       5.472   5.136  15.019  0.00  0.00    +0.000 C 
ATOM     15  C   UNL     1       5.175   6.549  15.514  0.00  0.00    +0.000 C 
ATOM     16  C   UNL     1       5.160   6.623  17.038  0.00  0.00    +0.000 C 
ATOM     17  N   UNL     1       6.400   6.094  17.609  0.00  0.00    +0.000 NA
ATOM     18  H   UNL     1       6.380   6.187  18.625  0.00  0.00    +0.000 HD
ENDBRANCH  11  12
ENDBRANCH  10  11
ENDBRANCH   7  10
TORSDOF 3
ENDMDL
