MODEL 1
REMARK VINA RESULT:      -8.3      0.000      0.000
REMARK  Name = 
REMARK  6 active torsions:
REMARK  status: ('A' for Active; 'I' for Inactive)
REMARK    1  A    between atoms: C_2  and  C_3
REMARK    2  A    between atoms: C_3  and  N_4
REMARK    3  A    between atoms: N_4  and  O_5
REMARK    4  A    between atoms: N_4  and  C_6
REMARK    5  A    between atoms: N_12  and  C_13
REMARK    6  A    between atoms: C_18  and  C_19
REMARK                            x       y       z     vdW  Elec       q    Type
REMARK                         _______ _______ _______ _____ _____    ______ ____
ROOT
ATOM      1  C   UNL     1       3.759   4.118  19.335  0.00  0.00    +0.000 A 
ATOM      2  C   UNL     1       4.129   2.866  19.831  0.00  0.00    +0.000 A 
ATOM      3  C   UNL     1       3.443   2.325  20.914  0.00  0.00    +0.000 A 
ATOM      4  C   UNL     1       2.421   3.063  21.489  0.00  0.00    +0.000 A 
ATOM      5  N   UNL     1       2.034   4.286  21.062  0.00  0.00    +0.000 NA
ATOM      6  C   UNL     1       2.706   4.781  19.974  0.00  0.00    +0.000 A 
ENDROOT
BRANCH   6   7
ATOM      7  C   UNL     1       2.315   6.168  19.575  0.00  0.00    +0.000 C 
ATOM      8  O   UNL     1       2.441   6.528  18.408  0.00  0.00    +0.000 OA
ATOM      9  N   UNL     1       1.852   6.931  20.622  0.00  0.00    +0.000 N 
ATOM     10  C   UNL     1       1.490   8.242  20.492  0.00  0.00    +0.000 A 
ATOM     11  N   UNL     1       1.419   8.972  19.410  0.00  0.00    +0.000 NA
ATOM     12  C   UNL     1       1.018  10.249  19.748  0.00  0.00    +0.000 A 
ATOM     13  C   UNL     1       0.812  10.470  21.094  0.00  0.00    +0.000 A 
ATOM     14  S   UNL     1       1.093   9.015  21.962  0.00  0.00    +0.000 S 
ATOM     15  H   UNL     1       1.822   6.504  21.541  0.00  0.00    +0.000 HD
ENDBRANCH   6   7
BRANCH   1  18
ATOM     16  O   UNL     1       6.465   5.014  19.250  0.00  0.00    +0.000 OA
ATOM     17  C   UNL     1       5.734   5.121  18.266  0.00  0.00    +0.000 C 
ATOM     18  N   UNL     1       4.419   4.681  18.222  0.00  0.00    +0.000 N 
ATOM     19  H   UNL     1       3.821   5.169  17.548  0.00  0.00    +0.000 HD
BRANCH  17  20
ATOM     20  C   UNL     1       6.186   5.839  16.991  0.00  0.00    +0.000 C 
BRANCH  20  21
ATOM     21  N   UNL     1       7.268   5.125  16.273  0.00  0.00    +0.000 N 
BRANCH  21  22
ATOM     22  C   UNL     1       6.954   4.742  14.941  0.00  0.00    +0.000 A 
ATOM     23  C   UNL     1       5.851   3.931  14.623  0.00  0.00    +0.000 A 
ATOM     24  C   UNL     1       5.593   3.536  13.305  0.00  0.00    +0.000 A 
ATOM     25  C   UNL     1       6.422   3.960  12.272  0.00  0.00    +0.000 A 
ATOM     26  C   UNL     1       7.494   4.800  12.554  0.00  0.00    +0.000 A 
ATOM     27  C   UNL     1       7.748   5.194  13.872  0.00  0.00    +0.000 A 
ENDBRANCH  21  22
BRANCH  21  28
ATOM     28  O   UNL     1       7.936   4.183  17.072  0.00  0.00    +0.000 OA
ATOM     29  H   UNL     1       7.549   3.334  16.782  0.00  0.00    +0.000 HD
ENDBRANCH  21  28
ENDBRANCH  20  21
ENDBRANCH  17  20
ENDBRANCH   1  18
TORSDOF 6
ENDMDL
MODEL 2
REMARK VINA RESULT:      -8.1      1.250      1.313
REMARK  Name = 
REMARK  6 active torsions:
REMARK  status: ('A' for Active; 'I' for Inactive)
REMARK    1  A    between atoms: C_2  and  C_3
REMARK    2  A    between atoms: C_3  and  N_4
REMARK    3  A    between atoms: N_4  and  O_5
REMARK    4  A    between atoms: N_4  and  C_6
REMARK    5  A    between atoms: N_12  and  C_13
REMARK    6  A    between atoms: C_18  and  C_19
REMARK                            x       y       z     vdW  Elec       q    Type
REMARK                         _______ _______ _______ _____ _____    ______ ____
ROOT
ATOM      1  C   UNL     1       4.232   3.547  19.199  0.00  0.00    +0.000 A 
ATOM      2  C   UNL     1       4.412   2.414  19.996  0.00  0.00    +0.000 A 
ATOM      3  C   UNL     1       3.510   2.145  21.022  0.00  0.00    +0.000 A 
ATOM      4  C   UNL     1       2.469   3.032  21.240  0.00  0.00    +0.000 A 
ATOM      5  N   UNL     1       2.259   4.152  20.513  0.00  0.00    +0.000 NA
ATOM      6  C   UNL     1       3.143   4.375  19.489  0.00  0.00    +0.000 A 
ENDROOT
BRANCH   6   7
ATOM      7  C   UNL     1       2.938   5.662  18.754  0.00  0.00    +0.000 C 
ATOM      8  O   UNL     1       3.367   5.789  17.611  0.00  0.00    +0.000 OA
ATOM      9  N   UNL     1       2.272   6.614  19.489  0.00  0.00    +0.000 N 
ATOM     10  C   UNL     1       2.025   7.877  19.032  0.00  0.00    +0.000 A 
ATOM     11  N   UNL     1       2.262   8.386  17.852  0.00  0.00    +0.000 NA
ATOM     12  C   UNL     1       1.859   9.706  17.835  0.00  0.00    +0.000 A 
ATOM     13  C   UNL     1       1.339  10.183  19.020  0.00  0.00    +0.000 A 
ATOM     14  S   UNL     1       1.318   8.921  20.185  0.00  0.00    +0.000 S 
ATOM     15  H   UNL     1       1.993   6.372  20.434  0.00  0.00    +0.000 HD
ENDBRANCH   6   7
BRANCH   1  18
ATOM     16  O   UNL     1       6.708   4.950  19.384  0.00  0.00    +0.000 OA
ATOM     17  C   UNL     1       6.291   4.546  18.299  0.00  0.00    +0.000 C 
ATOM     18  N   UNL     1       5.114   3.831  18.135  0.00  0.00    +0.000 N 
ATOM     19  H   UNL     1       4.684   3.912  17.208  0.00  0.00    +0.000 HD
BRANCH  17  20
ATOM     20  C   UNL     1       7.005   4.871  16.983  0.00  0.00    +0.000 C 
BRANCH  20  21
ATOM     21  N   UNL     1       6.088   5.372  15.932  0.00  0.00    +0.000 N 
BRANCH  21  22
ATOM     22  C   UNL     1       6.361   4.899  14.620  0.00  0.00    +0.000 A 
ATOM     23  C   UNL     1       5.561   3.941  13.975  0.00  0.00    +0.000 A 
ATOM     24  C   UNL     1       5.881   3.464  12.698  0.00  0.00    +0.000 A 
ATOM     25  C   UNL     1       7.000   3.949  12.031  0.00  0.00    +0.000 A 
ATOM     26  C   UNL     1       7.784   4.931  12.628  0.00  0.00    +0.000 A 
ATOM     27  C   UNL     1       7.459   5.406  13.903  0.00  0.00    +0.000 A 
ENDBRANCH  21  22
BRANCH  21  28
ATOM     28  O   UNL     1       5.777   6.735  16.073  0.00  0.00    +0.000 OA
ATOM     29  H   UNL     1       4.837   6.720  16.337  0.00  0.00    +0.000 HD
ENDBRANCH  21  28
ENDBRANCH  20  21
ENDBRANCH  17  20
ENDBRANCH   1  18
TORSDOF 6
ENDMDL
MODEL 3
REMARK VINA RESULT:      -8.1      0.968      1.398
REMARK  Name = 
REMARK  6 active torsions:
REMARK  status: ('A' for Active; 'I' for Inactive)
REMARK    1  A    between atoms: C_2  and  C_3
REMARK    2  A    between atoms: C_3  and  N_4
REMARK    3  A    between atoms: N_4  and  O_5
REMARK    4  A    between atoms: N_4  and  C_6
REMARK    5  A    between atoms: N_12  and  C_13
REMARK    6  A    between atoms: C_18  and  C_19
REMARK                            x       y       z     vdW  Elec       q    Type
REMARK                         _______ _______ _______ _____ _____    ______ ____
ROOT
ATOM      1  C   UNL     1       3.659   4.732  19.464  0.00  0.00    +0.000 A 
ATOM      2  C   UNL     1       4.036   3.449  19.868  0.00  0.00    +0.000 A 
ATOM      3  C   UNL     1       3.288   2.784  20.836  0.00  0.00    +0.000 A 
ATOM      4  C   UNL     1       2.199   3.433  21.394  0.00  0.00    +0.000 A 
ATOM      5  N   UNL     1       1.802   4.680  21.055  0.00  0.00    +0.000 NA
ATOM      6  C   UNL     1       2.536   5.298  20.077  0.00  0.00    +0.000 A 
ENDROOT
BRANCH   6   7
ATOM      7  C   UNL     1       2.126   6.706  19.780  0.00  0.00    +0.000 C 
ATOM      8  O   UNL     1       2.305   7.172  18.659  0.00  0.00    +0.000 OA
ATOM      9  N   UNL     1       1.584   7.359  20.863  0.00  0.00    +0.000 N 
ATOM     10  C   UNL     1       1.191   8.667  20.829  0.00  0.00    +0.000 A 
ATOM     11  N   UNL     1       1.157   9.490  19.815  0.00  0.00    +0.000 NA
ATOM     12  C   UNL     1       0.699  10.720  20.241  0.00  0.00    +0.000 A 
ATOM     13  C   UNL     1       0.414  10.813  21.588  0.00  0.00    +0.000 A 
ATOM     14  S   UNL     1       0.691   9.293  22.338  0.00  0.00    +0.000 S 
ATOM     15  H   UNL     1       1.516   6.850  21.737  0.00  0.00    +0.000 HD
ENDBRANCH   6   7
BRANCH   1  18
ATOM     16  O   UNL     1       3.756   4.073  16.691  0.00  0.00    +0.000 OA
ATOM     17  C   UNL     1       4.402   5.020  17.138  0.00  0.00    +0.000 C 
ATOM     18  N   UNL     1       4.382   5.419  18.466  0.00  0.00    +0.000 N 
ATOM     19  H   UNL     1       5.222   5.913  18.783  0.00  0.00    +0.000 HD
BRANCH  17  20
ATOM     20  C   UNL     1       5.378   5.819  16.269  0.00  0.00    +0.000 C 
BRANCH  20  21
ATOM     21  N   UNL     1       6.611   5.067  15.935  0.00  0.00    +0.000 N 
BRANCH  21  22
ATOM     22  C   UNL     1       6.763   4.742  14.560  0.00  0.00    +0.000 A 
ATOM     23  C   UNL     1       7.695   5.382  13.726  0.00  0.00    +0.000 A 
ATOM     24  C   UNL     1       7.791   5.068  12.365  0.00  0.00    +0.000 A 
ATOM     25  C   UNL     1       6.968   4.093  11.812  0.00  0.00    +0.000 A 
ATOM     26  C   UNL     1       6.068   3.413  12.625  0.00  0.00    +0.000 A 
ATOM     27  C   UNL     1       5.977   3.728  13.985  0.00  0.00    +0.000 A 
ENDBRANCH  21  22
BRANCH  21  28
ATOM     28  O   UNL     1       6.919   4.066  16.871  0.00  0.00    +0.000 OA
ATOM     29  H   UNL     1       6.584   3.254  16.443  0.00  0.00    +0.000 HD
ENDBRANCH  21  28
ENDBRANCH  20  21
ENDBRANCH  17  20
ENDBRANCH   1  18
TORSDOF 6
ENDMDL
MODEL 4
REMARK VINA RESULT:      -8.0      1.193      1.550
REMARK  Name = 
REMARK  6 active torsions:
REMARK  status: ('A' for Active; 'I' for Inactive)
REMARK    1  A    between atoms: C_2  and  C_3
REMARK    2  A    between atoms: C_3  and  N_4
REMARK    3  A    between atoms: N_4  and  O_5
REMARK    4  A    between atoms: N_4  and  C_6
REMARK    5  A    between atoms: N_12  and  C_13
REMARK    6  A    between atoms: C_18  and  C_19
REMARK                            x       y       z     vdW  Elec       q    Type
REMARK                         _______ _______ _______ _____ _____    ______ ____
ROOT
ATOM      1  C   UNL     1       3.985   3.898  19.147  0.00  0.00    +0.000 A 
ATOM      2  C   UNL     1       4.107   2.730  19.903  0.00  0.00    +0.000 A 
ATOM      3  C   UNL     1       3.207   2.481  20.935  0.00  0.00    +0.000 A 
ATOM      4  C   UNL     1       2.225   3.422  21.200  0.00  0.00    +0.000 A 
ATOM      5  N   UNL     1       2.073   4.576  20.514  0.00  0.00    +0.000 NA
ATOM      6  C   UNL     1       2.953   4.780  19.483  0.00  0.00    +0.000 A 
ENDROOT
BRANCH   6   7
ATOM      7  C   UNL     1       2.816   6.101  18.795  0.00  0.00    +0.000 C 
ATOM      8  O   UNL     1       3.350   6.282  17.705  0.00  0.00    +0.000 OA
ATOM      9  N   UNL     1       2.082   7.019  19.509  0.00  0.00    +0.000 N 
ATOM     10  C   UNL     1       1.876   8.303  19.092  0.00  0.00    +0.000 A 
ATOM     11  N   UNL     1       2.222   8.868  17.965  0.00  0.00    +0.000 NA
ATOM     12  C   UNL     1       1.820  10.188  17.974  0.00  0.00    +0.000 A 
ATOM     13  C   UNL     1       1.190  10.609  19.127  0.00  0.00    +0.000 A 
ATOM     14  S   UNL     1       1.063   9.292  20.223  0.00  0.00    +0.000 S 
ATOM     15  H   UNL     1       1.716   6.733  20.411  0.00  0.00    +0.000 HD
ENDBRANCH   6   7
BRANCH   1  18
ATOM     16  O   UNL     1       6.688   4.782  19.364  0.00  0.00    +0.000 OA
ATOM     17  C   UNL     1       6.163   4.621  18.263  0.00  0.00    +0.000 C 
ATOM     18  N   UNL     1       4.867   4.165  18.078  0.00  0.00    +0.000 N 
ATOM     19  H   UNL     1       4.427   4.454  17.198  0.00  0.00    +0.000 HD
BRANCH  17  20
ATOM     20  C   UNL     1       6.878   4.994  16.960  0.00  0.00    +0.000 C 
BRANCH  20  21
ATOM     21  N   UNL     1       5.944   5.346  15.864  0.00  0.00    +0.000 N 
BRANCH  21  22
ATOM     22  C   UNL     1       6.329   4.885  14.576  0.00  0.00    +0.000 A 
ATOM     23  C   UNL     1       7.461   5.373  13.901  0.00  0.00    +0.000 A 
ATOM     24  C   UNL     1       7.790   4.930  12.614  0.00  0.00    +0.000 A 
ATOM     25  C   UNL     1       7.003   3.974  11.982  0.00  0.00    +0.000 A 
ATOM     26  C   UNL     1       5.903   3.442  12.645  0.00  0.00    +0.000 A 
ATOM     27  C   UNL     1       5.579   3.886  13.931  0.00  0.00    +0.000 A 
ENDBRANCH  21  22
BRANCH  21  28
ATOM     28  O   UNL     1       5.450   6.657  15.957  0.00  0.00    +0.000 OA
ATOM     29  H   UNL     1       6.259   7.201  15.904  0.00  0.00    +0.000 HD
ENDBRANCH  21  28
ENDBRANCH  20  21
ENDBRANCH  17  20
ENDBRANCH   1  18
TORSDOF 6
ENDMDL
MODEL 5
REMARK VINA RESULT:      -7.7      1.923      2.809
REMARK  Name = 
REMARK  6 active torsions:
REMARK  status: ('A' for Active; 'I' for Inactive)
REMARK    1  A    between atoms: C_2  and  C_3
REMARK    2  A    between atoms: C_3  and  N_4
REMARK    3  A    between atoms: N_4  and  O_5
REMARK    4  A    between atoms: N_4  and  C_6
REMARK    5  A    between atoms: N_12  and  C_13
REMARK    6  A    between atoms: C_18  and  C_19
REMARK                            x       y       z     vdW  Elec       q    Type
REMARK                         _______ _______ _______ _____ _____    ______ ____
ROOT
ATOM      1  C   UNL     1       3.465   4.095  19.523  0.00  0.00    +0.000 A 
ATOM      2  C   UNL     1       3.802   2.842  20.038  0.00  0.00    +0.000 A 
ATOM      3  C   UNL     1       3.144   2.361  21.166  0.00  0.00    +0.000 A 
ATOM      4  C   UNL     1       2.184   3.162  21.766  0.00  0.00    +0.000 A 
ATOM      5  N   UNL     1       1.833   4.389  21.322  0.00  0.00    +0.000 NA
ATOM      6  C   UNL     1       2.474   4.823  20.191  0.00  0.00    +0.000 A 
ENDROOT
BRANCH   6   7
ATOM      7  C   UNL     1       2.127   6.215  19.769  0.00  0.00    +0.000 C 
ATOM      8  O   UNL     1       2.248   6.548  18.594  0.00  0.00    +0.000 OA
ATOM      9  N   UNL     1       1.707   7.015  20.807  0.00  0.00    +0.000 N 
ATOM     10  C   UNL     1       1.390   8.335  20.656  0.00  0.00    +0.000 A 
ATOM     11  N   UNL     1       1.329   9.046  19.562  0.00  0.00    +0.000 NA
ATOM     12  C   UNL     1       0.978  10.342  19.880  0.00  0.00    +0.000 A 
ATOM     13  C   UNL     1       0.800  10.597  21.224  0.00  0.00    +0.000 A 
ATOM     14  S   UNL     1       1.042   9.149  22.117  0.00  0.00    +0.000 S 
ATOM     15  H   UNL     1       1.675   6.606  21.735  0.00  0.00    +0.000 HD
ENDBRANCH   6   7
BRANCH   1  18
ATOM     16  O   UNL     1       2.992   3.252  16.840  0.00  0.00    +0.000 OA
ATOM     17  C   UNL     1       3.833   4.115  17.092  0.00  0.00    +0.000 C 
ATOM     18  N   UNL     1       4.096   4.597  18.365  0.00  0.00    +0.000 N 
ATOM     19  H   UNL     1       5.040   4.974  18.499  0.00  0.00    +0.000 HD
BRANCH  17  20
ATOM     20  C   UNL     1       4.749   4.695  16.010  0.00  0.00    +0.000 C 
BRANCH  20  21
ATOM     21  N   UNL     1       6.181   4.383  16.231  0.00  0.00    +0.000 N 
BRANCH  21  22
ATOM     22  C   UNL     1       6.874   5.296  17.070  0.00  0.00    +0.000 A 
ATOM     23  C   UNL     1       7.501   4.906  18.265  0.00  0.00    +0.000 A 
ATOM     24  C   UNL     1       8.139   5.838  19.092  0.00  0.00    +0.000 A 
ATOM     25  C   UNL     1       8.180   7.180  18.731  0.00  0.00    +0.000 A 
ATOM     26  C   UNL     1       7.607   7.586  17.531  0.00  0.00    +0.000 A 
ATOM     27  C   UNL     1       6.972   6.651  16.707  0.00  0.00    +0.000 A 
ENDBRANCH  21  22
BRANCH  21  28
ATOM     28  O   UNL     1       6.839   3.952  15.067  0.00  0.00    +0.000 OA
ATOM     29  H   UNL     1       7.227   3.097  15.336  0.00  0.00    +0.000 HD
ENDBRANCH  21  28
ENDBRANCH  20  21
ENDBRANCH  17  20
ENDBRANCH   1  18
TORSDOF 6
ENDMDL
MODEL 6
REMARK VINA RESULT:      -7.7      1.255      1.560
REMARK  Name = 
REMARK  6 active torsions:
REMARK  status: ('A' for Active; 'I' for Inactive)
REMARK    1  A    between atoms: C_2  and  C_3
REMARK    2  A    between atoms: C_3  and  N_4
REMARK    3  A    between atoms: N_4  and  O_5
REMARK    4  A    between atoms: N_4  and  C_6
REMARK    5  A    between atoms: N_12  and  C_13
REMARK    6  A    between atoms: C_18  and  C_19
REMARK                            x       y       z     vdW  Elec       q    Type
REMARK                         _______ _______ _______ _____ _____    ______ ____
ROOT
ATOM      1  C   UNL     1       3.677   4.054  19.788  0.00  0.00    +0.000 A 
ATOM      2  C   UNL     1       3.930   2.800  20.348  0.00  0.00    +0.000 A 
ATOM      3  C   UNL     1       3.021   2.252  21.249  0.00  0.00    +0.000 A 
ATOM      4  C   UNL     1       1.896   2.987  21.586  0.00  0.00    +0.000 A 
ATOM      5  N   UNL     1       1.612   4.212  21.090  0.00  0.00    +0.000 NA
ATOM      6  C   UNL     1       2.507   4.713  20.181  0.00  0.00    +0.000 A 
ENDROOT
BRANCH   6   7
ATOM      7  C   UNL     1       2.213   6.102  19.710  0.00  0.00    +0.000 C 
ATOM      8  O   UNL     1       2.427   6.411  18.542  0.00  0.00    +0.000 OA
ATOM      9  N   UNL     1       1.726   6.925  20.700  0.00  0.00    +0.000 N 
ATOM     10  C   UNL     1       1.441   8.246  20.503  0.00  0.00    +0.000 A 
ATOM     11  N   UNL     1       1.472   8.938  19.395  0.00  0.00    +0.000 NA
ATOM     12  C   UNL     1       1.117  10.244  19.664  0.00  0.00    +0.000 A 
ATOM     13  C   UNL     1       0.841  10.525  20.986  0.00  0.00    +0.000 A 
ATOM     14  S   UNL     1       0.995   9.091  21.919  0.00  0.00    +0.000 S 
ATOM     15  H   UNL     1       1.619   6.534  21.630  0.00  0.00    +0.000 HD
ENDBRANCH   6   7
BRANCH   1  18
ATOM     16  O   UNL     1       4.228   3.072  17.168  0.00  0.00    +0.000 OA
ATOM     17  C   UNL     1       4.805   4.069  17.603  0.00  0.00    +0.000 C 
ATOM     18  N   UNL     1       4.567   4.622  18.852  0.00  0.00    +0.000 N 
ATOM     19  H   UNL     1       5.350   5.155  19.246  0.00  0.00    +0.000 HD
BRANCH  17  20
ATOM     20  C   UNL     1       5.924   4.765  16.823  0.00  0.00    +0.000 C 
BRANCH  20  21
ATOM     21  N   UNL     1       5.453   5.399  15.568  0.00  0.00    +0.000 N 
BRANCH  21  22
ATOM     22  C   UNL     1       6.021   4.870  14.378  0.00  0.00    +0.000 A 
ATOM     23  C   UNL     1       7.273   5.276  13.887  0.00  0.00    +0.000 A 
ATOM     24  C   UNL     1       7.787   4.766  12.688  0.00  0.00    +0.000 A 
ATOM     25  C   UNL     1       7.066   3.824  11.963  0.00  0.00    +0.000 A 
ATOM     26  C   UNL     1       5.844   3.371  12.450  0.00  0.00    +0.000 A 
ATOM     27  C   UNL     1       5.336   3.882  13.649  0.00  0.00    +0.000 A 
ENDBRANCH  21  22
BRANCH  21  28
ATOM     28  O   UNL     1       5.342   6.796  15.662  0.00  0.00    +0.000 OA
ATOM     29  H   UNL     1       4.807   6.920  16.469  0.00  0.00    +0.000 HD
ENDBRANCH  21  28
ENDBRANCH  20  21
ENDBRANCH  17  20
ENDBRANCH   1  18
TORSDOF 6
ENDMDL
MODEL 7
REMARK VINA RESULT:      -7.6      0.822      1.265
REMARK  Name = 
REMARK  6 active torsions:
REMARK  status: ('A' for Active; 'I' for Inactive)
REMARK    1  A    between atoms: C_2  and  C_3
REMARK    2  A    between atoms: C_3  and  N_4
REMARK    3  A    between atoms: N_4  and  O_5
REMARK    4  A    between atoms: N_4  and  C_6
REMARK    5  A    between atoms: N_12  and  C_13
REMARK    6  A    between atoms: C_18  and  C_19
REMARK                            x       y       z     vdW  Elec       q    Type
REMARK                         _______ _______ _______ _____ _____    ______ ____
ROOT
ATOM      1  C   UNL     1       3.521   4.818  19.005  0.00  0.00    +0.000 A 
ATOM      2  C   UNL     1       3.761   3.574  19.593  0.00  0.00    +0.000 A 
ATOM      3  C   UNL     1       3.012   3.179  20.697  0.00  0.00    +0.000 A 
ATOM      4  C   UNL     1       2.061   4.052  21.201  0.00  0.00    +0.000 A 
ATOM      5  N   UNL     1       1.801   5.274  20.684  0.00  0.00    +0.000 NA
ATOM      6  C   UNL     1       2.531   5.623  19.578  0.00  0.00    +0.000 A 
ENDROOT
BRANCH   6   7
ATOM      7  C   UNL     1       2.283   7.010  19.077  0.00  0.00    +0.000 C 
ATOM      8  O   UNL     1       2.640   7.326  17.946  0.00  0.00    +0.000 OA
ATOM      9  N   UNL     1       1.666   7.825  19.998  0.00  0.00    +0.000 N 
ATOM     10  C   UNL     1       1.393   9.143  19.769  0.00  0.00    +0.000 A 
ATOM     11  N   UNL     1       1.557   9.840  18.675  0.00  0.00    +0.000 NA
ATOM     12  C   UNL     1       1.156  11.141  18.899  0.00  0.00    +0.000 A 
ATOM     13  C   UNL     1       0.712  11.414  20.176  0.00  0.00    +0.000 A 
ATOM     14  S   UNL     1       0.763   9.979  21.119  0.00  0.00    +0.000 S 
ATOM     15  H   UNL     1       1.446   7.430  20.906  0.00  0.00    +0.000 HD
ENDBRANCH   6   7
BRANCH   1  18
ATOM     16  O   UNL     1       6.253   5.636  18.948  0.00  0.00    +0.000 OA
ATOM     17  C   UNL     1       5.570   5.646  17.925  0.00  0.00    +0.000 C 
ATOM     18  N   UNL     1       4.247   5.234  17.868  0.00  0.00    +0.000 N 
ATOM     19  H   UNL     1       3.693   5.656  17.115  0.00  0.00    +0.000 HD
BRANCH  17  20
ATOM     20  C   UNL     1       6.099   6.204  16.600  0.00  0.00    +0.000 C 
BRANCH  20  21
ATOM     21  N   UNL     1       7.194   5.389  16.021  0.00  0.00    +0.000 N 
BRANCH  21  22
ATOM     22  C   UNL     1       6.937   4.875  14.722  0.00  0.00    +0.000 A 
ATOM     23  C   UNL     1       7.740   5.183  13.610  0.00  0.00    +0.000 A 
ATOM     24  C   UNL     1       7.436   4.695  12.333  0.00  0.00    +0.000 A 
ATOM     25  C   UNL     1       6.332   3.872  12.144  0.00  0.00    +0.000 A 
ATOM     26  C   UNL     1       5.547   3.515  13.235  0.00  0.00    +0.000 A 
ATOM     27  C   UNL     1       5.855   4.003  14.509  0.00  0.00    +0.000 A 
ENDBRANCH  21  22
BRANCH  21  28
ATOM     28  O   UNL     1       7.788   4.520  16.951  0.00  0.00    +0.000 OA
ATOM     29  H   UNL     1       7.326   3.675  16.789  0.00  0.00    +0.000 HD
ENDBRANCH  21  28
ENDBRANCH  20  21
ENDBRANCH  17  20
ENDBRANCH   1  18
TORSDOF 6
ENDMDL
MODEL 8
REMARK VINA RESULT:      -7.5      1.305      1.356
REMARK  Name = 
REMARK  6 active torsions:
REMARK  status: ('A' for Active; 'I' for Inactive)
REMARK    1  A    between atoms: C_2  and  C_3
REMARK    2  A    between atoms: C_3  and  N_4
REMARK    3  A    between atoms: N_4  and  O_5
REMARK    4  A    between atoms: N_4  and  C_6
REMARK    5  A    between atoms: N_12  and  C_13
REMARK    6  A    between atoms: C_18  and  C_19
REMARK                            x       y       z     vdW  Elec       q    Type
REMARK                         _______ _______ _______ _____ _____    ______ ____
ROOT
ATOM      1  C   UNL     1       3.697   4.202  19.647  0.00  0.00    +0.000 A 
ATOM      2  C   UNL     1       3.698   3.023  20.396  0.00  0.00    +0.000 A 
ATOM      3  C   UNL     1       2.583   2.692  21.161  0.00  0.00    +0.000 A 
ATOM      4  C   UNL     1       1.507   3.565  21.177  0.00  0.00    +0.000 A 
ATOM      5  N   UNL     1       1.460   4.727  20.488  0.00  0.00    +0.000 NA
ATOM      6  C   UNL     1       2.558   5.012  19.718  0.00  0.00    +0.000 A 
ENDROOT
BRANCH   6   7
ATOM      7  C   UNL     1       2.515   6.340  19.032  0.00  0.00    +0.000 C 
ATOM      8  O   UNL     1       3.108   6.500  17.970  0.00  0.00    +0.000 OA
ATOM      9  N   UNL     1       1.792   7.288  19.717  0.00  0.00    +0.000 N 
ATOM     10  C   UNL     1       1.666   8.582  19.299  0.00  0.00    +0.000 A 
ATOM     11  N   UNL     1       2.091   9.135  18.193  0.00  0.00    +0.000 NA
ATOM     12  C   UNL     1       1.750  10.472  18.191  0.00  0.00    +0.000 A 
ATOM     13  C   UNL     1       1.087  10.917  19.316  0.00  0.00    +0.000 A 
ATOM     14  S   UNL     1       0.847   9.604  20.396  0.00  0.00    +0.000 S 
ATOM     15  H   UNL     1       1.370   7.016  20.599  0.00  0.00    +0.000 HD
ENDBRANCH   6   7
BRANCH   1  18
ATOM     16  O   UNL     1       4.274   3.195  17.043  0.00  0.00    +0.000 OA
ATOM     17  C   UNL     1       5.031   3.995  17.592  0.00  0.00    +0.000 C 
ATOM     18  N   UNL     1       4.802   4.550  18.842  0.00  0.00    +0.000 N 
ATOM     19  H   UNL     1       5.644   4.849  19.345  0.00  0.00    +0.000 HD
BRANCH  17  20
ATOM     20  C   UNL     1       6.372   4.401  16.973  0.00  0.00    +0.000 C 
BRANCH  20  21
ATOM     21  N   UNL     1       6.234   5.411  15.896  0.00  0.00    +0.000 N 
BRANCH  21  22
ATOM     22  C   UNL     1       6.459   4.922  14.582  0.00  0.00    +0.000 A 
ATOM     23  C   UNL     1       5.648   3.941  13.985  0.00  0.00    +0.000 A 
ATOM     24  C   UNL     1       5.922   3.449  12.703  0.00  0.00    +0.000 A 
ATOM     25  C   UNL     1       7.004   3.942  11.982  0.00  0.00    +0.000 A 
ATOM     26  C   UNL     1       7.796   4.944  12.530  0.00  0.00    +0.000 A 
ATOM     27  C   UNL     1       7.517   5.435  13.811  0.00  0.00    +0.000 A 
ENDBRANCH  21  22
BRANCH  21  28
ATOM     28  O   UNL     1       6.799   6.653  16.226  0.00  0.00    +0.000 OA
ATOM     29  H   UNL     1       7.398   6.829  15.475  0.00  0.00    +0.000 HD
ENDBRANCH  21  28
ENDBRANCH  20  21
ENDBRANCH  17  20
ENDBRANCH   1  18
TORSDOF 6
ENDMDL
MODEL 9
REMARK VINA RESULT:      -7.3      2.143      3.125
REMARK  Name = 
REMARK  6 active torsions:
REMARK  status: ('A' for Active; 'I' for Inactive)
REMARK    1  A    between atoms: C_2  and  C_3
REMARK    2  A    between atoms: C_3  and  N_4
REMARK    3  A    between atoms: N_4  and  O_5
REMARK    4  A    between atoms: N_4  and  C_6
REMARK    5  A    between atoms: N_12  and  C_13
REMARK    6  A    between atoms: C_18  and  C_19
REMARK                            x       y       z     vdW  Elec       q    Type
REMARK                         _______ _______ _______ _____ _____    ______ ____
ROOT
ATOM      1  C   UNL     1       3.548   4.074  19.651  0.00  0.00    +0.000 A 
ATOM      2  C   UNL     1       3.864   2.820  20.178  0.00  0.00    +0.000 A 
ATOM      3  C   UNL     1       3.075   2.281  21.190  0.00  0.00    +0.000 A 
ATOM      4  C   UNL     1       2.007   3.024  21.667  0.00  0.00    +0.000 A 
ATOM      5  N   UNL     1       1.668   4.249  21.207  0.00  0.00    +0.000 NA
ATOM      6  C   UNL     1       2.442   4.742  20.189  0.00  0.00    +0.000 A 
ENDROOT
BRANCH   6   7
ATOM      7  C   UNL     1       2.098   6.131  19.756  0.00  0.00    +0.000 C 
ATOM      8  O   UNL     1       2.181   6.442  18.571  0.00  0.00    +0.000 OA
ATOM      9  N   UNL     1       1.725   6.953  20.794  0.00  0.00    +0.000 N 
ATOM     10  C   UNL     1       1.419   8.274  20.631  0.00  0.00    +0.000 A 
ATOM     11  N   UNL     1       1.328   8.968  19.528  0.00  0.00    +0.000 NA
ATOM     12  C   UNL     1       1.004  10.274  19.836  0.00  0.00    +0.000 A 
ATOM     13  C   UNL     1       0.878  10.553  21.181  0.00  0.00    +0.000 A 
ATOM     14  S   UNL     1       1.134   9.118  22.089  0.00  0.00    +0.000 S 
ATOM     15  H   UNL     1       1.721   6.561  21.729  0.00  0.00    +0.000 HD
ENDBRANCH   6   7
BRANCH   1  18
ATOM     16  O   UNL     1       3.369   3.415  16.882  0.00  0.00    +0.000 OA
ATOM     17  C   UNL     1       4.188   4.241  17.282  0.00  0.00    +0.000 C 
ATOM     18  N   UNL     1       4.313   4.635  18.606  0.00  0.00    +0.000 N 
ATOM     19  H   UNL     1       5.242   4.982  18.869  0.00  0.00    +0.000 HD
BRANCH  17  20
ATOM     20  C   UNL     1       5.229   4.869  16.351  0.00  0.00    +0.000 C 
BRANCH  20  21
ATOM     21  N   UNL     1       5.322   6.342  16.490  0.00  0.00    +0.000 N 
BRANCH  21  22
ATOM     22  C   UNL     1       6.426   6.805  17.254  0.00  0.00    +0.000 A 
ATOM     23  C   UNL     1       7.115   5.988  18.167  0.00  0.00    +0.000 A 
ATOM     24  C   UNL     1       8.174   6.486  18.937  0.00  0.00    +0.000 A 
ATOM     25  C   UNL     1       8.578   7.809  18.796  0.00  0.00    +0.000 A 
ATOM     26  C   UNL     1       7.943   8.626  17.867  0.00  0.00    +0.000 A 
ATOM     27  C   UNL     1       6.887   8.124  17.099  0.00  0.00    +0.000 A 
ENDBRANCH  21  22
BRANCH  21  28
ATOM     28  O   UNL     1       4.079   6.956  16.718  0.00  0.00    +0.000 OA
ATOM     29  H   UNL     1       3.561   6.249  17.149  0.00  0.00    +0.000 HD
ENDBRANCH  21  28
ENDBRANCH  20  21
ENDBRANCH  17  20
ENDBRANCH   1  18
TORSDOF 6
ENDMDL
