MODEL 1
REMARK VINA RESULT:      -7.6      0.000      0.000
REMARK  Name = 
REMARK  8 active torsions:
REMARK  status: ('A' for Active; 'I' for Inactive)
REMARK    1  A    between atoms: C_1  and  C_2
REMARK    2  A    between atoms: C_11  and  O_12
REMARK    3  A    between atoms: C_13  and  C_14
REMARK    4  A    between atoms: N_16  and  C_17
REMARK    5  A    between atoms: C_17  and  C_18
REMARK    6  A    between atoms: C_18  and  N_19
REMARK    7  A    between atoms: N_19  and  C_20
REMARK    8  A    between atoms: N_19  and  C_21
REMARK                            x       y       z     vdW  Elec       q    Type
REMARK                         _______ _______ _______ _____ _____    ______ ____
ROOT
ATOM      1  C   UNL     1       2.850   2.721  21.133  0.00  0.00    +0.000 C 
ATOM      2  C   UNL     1       1.996   2.956  19.881  0.00  0.00    +0.000 C 
ATOM      3  C   UNL     1       2.091   1.823  18.861  0.00  0.00    +0.000 C 
ATOM      4  C   UNL     1       3.415   1.810  18.121  0.00  0.00    +0.000 C 
ATOM      5  C   UNL     1       3.758   3.185  17.617  0.00  0.00    +0.000 A 
ATOM      6  C   UNL     1       4.669   3.286  16.562  0.00  0.00    +0.000 A 
ATOM      7  C   UNL     1       5.047   4.529  16.075  0.00  0.00    +0.000 A 
ATOM      8  F   UNL     1       5.926   4.613  15.048  0.00  0.00    +0.000 F 
ATOM      9  C   UNL     1       4.541   5.690  16.656  0.00  0.00    +0.000 A 
ATOM     10  C   UNL     1       3.632   5.630  17.735  0.00  0.00    +0.000 A 
ATOM     11  C   UNL     1       3.141   6.804  18.376  0.00  0.00    +0.000 A 
ATOM     12  C   UNL     1       2.244   6.711  19.475  0.00  0.00    +0.000 A 
ATOM     13  C   UNL     1       1.870   5.409  19.903  0.00  0.00    +0.000 A 
ATOM     14  O   UNL     1       1.114   5.272  20.844  0.00  0.00    +0.000 OA
ATOM     15  N   UNL     1       2.358   4.266  19.288  0.00  0.00    +0.000 N 
ATOM     16  C   UNL     1       3.223   4.358  18.224  0.00  0.00    +0.000 A 
ENDROOT
BRANCH  12  17
ATOM     17  C   UNL     1       1.763   7.993  20.168  0.00  0.00    +0.000 C 
ATOM     18  O   UNL     1       1.459   8.953  19.472  0.00  0.00    +0.000 OA
ATOM     19  N   UNL     1       1.668   8.148  21.530  0.00  0.00    +0.000 N 
ATOM     20  H   UNL     1       1.890   7.402  22.186  0.00  0.00    +0.000 HD
BRANCH  19  21
ATOM     21  C   UNL     1       1.248   9.406  22.127  0.00  0.00    +0.000 C 
BRANCH  21  22
ATOM     22  C   UNL     1      -0.279   9.448  22.349  0.00  0.00    +0.000 C 
BRANCH  22  23
ATOM     23  N   UNL     1      -0.892  10.748  21.992  0.00  0.00    +0.000 NA
ATOM     24  C   UNL     1      -1.473  11.435  23.157  0.00  0.00    +0.000 C 
ATOM     25  C   UNL     1       0.123  11.617  21.370  0.00  0.00    +0.000 C 
ENDBRANCH  22  23
ENDBRANCH  21  22
ENDBRANCH  19  21
ENDBRANCH  12  17
BRANCH  11  26
ATOM     26  O   UNL     1       3.538   8.035  17.968  0.00  0.00    +0.000 OA
ATOM     27  H   UNL     1       4.393   8.278  17.603  0.00  0.00    +0.000 HD
ENDBRANCH  11  26
TORSDOF 5
ENDMDL
MODEL 2
REMARK VINA RESULT:      -7.3      3.641      7.553
REMARK  Name = 
REMARK  8 active torsions:
REMARK  status: ('A' for Active; 'I' for Inactive)
REMARK    1  A    between atoms: C_1  and  C_2
REMARK    2  A    between atoms: C_11  and  O_12
REMARK    3  A    between atoms: C_13  and  C_14
REMARK    4  A    between atoms: N_16  and  C_17
REMARK    5  A    between atoms: C_17  and  C_18
REMARK    6  A    between atoms: C_18  and  N_19
REMARK    7  A    between atoms: N_19  and  C_20
REMARK    8  A    between atoms: N_19  and  C_21
REMARK                            x       y       z     vdW  Elec       q    Type
REMARK                         _______ _______ _______ _____ _____    ______ ____
ROOT
ATOM      1  C   UNL     1       2.111   1.990  18.280  0.00  0.00    +0.000 C 
ATOM      2  C   UNL     1       3.141   2.654  19.202  0.00  0.00    +0.000 C 
ATOM      3  C   UNL     1       2.626   2.877  20.623  0.00  0.00    +0.000 C 
ATOM      4  C   UNL     1       1.618   4.007  20.710  0.00  0.00    +0.000 C 
ATOM      5  C   UNL     1       2.120   5.227  19.988  0.00  0.00    +0.000 A 
ATOM      6  C   UNL     1       1.566   6.464  20.330  0.00  0.00    +0.000 A 
ATOM      7  C   UNL     1       1.967   7.621  19.677  0.00  0.00    +0.000 A 
ATOM      8  F   UNL     1       1.427   8.814  20.024  0.00  0.00    +0.000 F 
ATOM      9  C   UNL     1       2.908   7.553  18.652  0.00  0.00    +0.000 A 
ATOM     10  C   UNL     1       3.478   6.320  18.265  0.00  0.00    +0.000 A 
ATOM     11  C   UNL     1       4.404   6.222  17.186  0.00  0.00    +0.000 A 
ATOM     12  C   UNL     1       4.943   4.963  16.805  0.00  0.00    +0.000 A 
ATOM     13  C   UNL     1       4.517   3.821  17.536  0.00  0.00    +0.000 A 
ATOM     14  O   UNL     1       4.940   2.720  17.245  0.00  0.00    +0.000 OA
ATOM     15  N   UNL     1       3.606   3.916  18.577  0.00  0.00    +0.000 N 
ATOM     16  C   UNL     1       3.087   5.134  18.946  0.00  0.00    +0.000 A 
ENDROOT
BRANCH  12  17
ATOM     17  C   UNL     1       5.909   4.884  15.614  0.00  0.00    +0.000 C 
ATOM     18  O   UNL     1       6.836   5.682  15.563  0.00  0.00    +0.000 OA
ATOM     19  N   UNL     1       5.793   3.985  14.582  0.00  0.00    +0.000 N 
ATOM     20  H   UNL     1       5.061   3.280  14.545  0.00  0.00    +0.000 HD
BRANCH  19  21
ATOM     21  C   UNL     1       6.716   3.993  13.457  0.00  0.00    +0.000 C 
BRANCH  21  22
ATOM     22  C   UNL     1       5.967   3.966  12.107  0.00  0.00    +0.000 C 
BRANCH  22  23
ATOM     23  N   UNL     1       5.056   2.807  11.961  0.00  0.00    +0.000 NA
ATOM     24  C   UNL     1       3.890   3.112  11.115  0.00  0.00    +0.000 C 
ATOM     25  C   UNL     1       5.794   1.671  11.382  0.00  0.00    +0.000 C 
ENDBRANCH  22  23
ENDBRANCH  21  22
ENDBRANCH  19  21
ENDBRANCH  12  17
BRANCH  11  26
ATOM     26  O   UNL     1       4.771   7.322  16.483  0.00  0.00    +0.000 OA
ATOM     27  H   UNL     1       5.649   7.536  16.158  0.00  0.00    +0.000 HD
ENDBRANCH  11  26
TORSDOF 5
ENDMDL
MODEL 3
REMARK VINA RESULT:      -7.1      3.574      8.111
REMARK  Name = 
REMARK  8 active torsions:
REMARK  status: ('A' for Active; 'I' for Inactive)
REMARK    1  A    between atoms: C_1  and  C_2
REMARK    2  A    between atoms: C_11  and  O_12
REMARK    3  A    between atoms: C_13  and  C_14
REMARK    4  A    between atoms: N_16  and  C_17
REMARK    5  A    between atoms: C_17  and  C_18
REMARK    6  A    between atoms: C_18  and  N_19
REMARK    7  A    between atoms: N_19  and  C_20
REMARK    8  A    between atoms: N_19  and  C_21
REMARK                            x       y       z     vdW  Elec       q    Type
REMARK                         _______ _______ _______ _____ _____    ______ ____
ROOT
ATOM      1  C   UNL     1       2.435  12.162  18.201  0.00  0.00    +0.000 C 
ATOM      2  C   UNL     1       1.083  11.438  18.166  0.00  0.00    +0.000 C 
ATOM      3  C   UNL     1      -0.070  12.282  18.706  0.00  0.00    +0.000 C 
ATOM      4  C   UNL     1      -0.033  12.427  20.216  0.00  0.00    +0.000 C 
ATOM      5  C   UNL     1       0.176  11.091  20.874  0.00  0.00    +0.000 A 
ATOM      6  C   UNL     1      -0.205  10.955  22.212  0.00  0.00    +0.000 A 
ATOM      7  C   UNL     1      -0.009   9.756  22.882  0.00  0.00    +0.000 A 
ATOM      8  F   UNL     1      -0.389   9.636  24.177  0.00  0.00    +0.000 F 
ATOM      9  C   UNL     1       0.598   8.684  22.231  0.00  0.00    +0.000 A 
ATOM     10  C   UNL     1       1.013   8.787  20.885  0.00  0.00    +0.000 A 
ATOM     11  C   UNL     1       1.680   7.720  20.217  0.00  0.00    +0.000 A 
ATOM     12  C   UNL     1       2.107   7.863  18.868  0.00  0.00    +0.000 A 
ATOM     13  C   UNL     1       1.845   9.104  18.228  0.00  0.00    +0.000 A 
ATOM     14  O   UNL     1       2.197   9.283  17.079  0.00  0.00    +0.000 OA
ATOM     15  N   UNL     1       1.208  10.147  18.884  0.00  0.00    +0.000 N 
ATOM     16  C   UNL     1       0.794  10.007  20.187  0.00  0.00    +0.000 A 
ENDROOT
BRANCH  12  17
ATOM     17  C   UNL     1       2.857   6.709  18.187  0.00  0.00    +0.000 C 
ATOM     18  O   UNL     1       2.287   5.633  18.070  0.00  0.00    +0.000 OA
ATOM     19  N   UNL     1       4.143   6.796  17.713  0.00  0.00    +0.000 N 
ATOM     20  H   UNL     1       4.691   7.652  17.758  0.00  0.00    +0.000 HD
BRANCH  19  21
ATOM     21  C   UNL     1       4.815   5.651  17.118  0.00  0.00    +0.000 C 
BRANCH  21  22
ATOM     22  C   UNL     1       5.857   6.087  16.066  0.00  0.00    +0.000 C 
BRANCH  22  23
ATOM     23  N   UNL     1       7.251   6.054  16.566  0.00  0.00    +0.000 NA
ATOM     24  C   UNL     1       7.545   7.168  17.483  0.00  0.00    +0.000 C 
ATOM     25  C   UNL     1       7.496   4.776  17.257  0.00  0.00    +0.000 C 
ENDBRANCH  22  23
ENDBRANCH  21  22
ENDBRANCH  19  21
ENDBRANCH  12  17
BRANCH  11  26
ATOM     26  O   UNL     1       1.946   6.556  20.859  0.00  0.00    +0.000 OA
ATOM     27  H   UNL     1       1.548   5.698  20.693  0.00  0.00    +0.000 HD
ENDBRANCH  11  26
TORSDOF 5
ENDMDL
MODEL 4
REMARK VINA RESULT:      -6.9      1.483      1.709
REMARK  Name = 
REMARK  8 active torsions:
REMARK  status: ('A' for Active; 'I' for Inactive)
REMARK    1  A    between atoms: C_1  and  C_2
REMARK    2  A    between atoms: C_11  and  O_12
REMARK    3  A    between atoms: C_13  and  C_14
REMARK    4  A    between atoms: N_16  and  C_17
REMARK    5  A    between atoms: C_17  and  C_18
REMARK    6  A    between atoms: C_18  and  N_19
REMARK    7  A    between atoms: N_19  and  C_20
REMARK    8  A    between atoms: N_19  and  C_21
REMARK                            x       y       z     vdW  Elec       q    Type
REMARK                         _______ _______ _______ _____ _____    ______ ____
ROOT
ATOM      1  C   UNL     1       2.851   2.882  21.170  0.00  0.00    +0.000 C 
ATOM      2  C   UNL     1       2.029   3.060  19.887  0.00  0.00    +0.000 C 
ATOM      3  C   UNL     1       2.162   1.888  18.916  0.00  0.00    +0.000 C 
ATOM      4  C   UNL     1       3.506   1.859  18.212  0.00  0.00    +0.000 C 
ATOM      5  C   UNL     1       3.850   3.217  17.664  0.00  0.00    +0.000 A 
ATOM      6  C   UNL     1       4.788   3.286  16.631  0.00  0.00    +0.000 A 
ATOM      7  C   UNL     1       5.168   4.513  16.105  0.00  0.00    +0.000 A 
ATOM      8  F   UNL     1       6.074   4.565  15.099  0.00  0.00    +0.000 F 
ATOM      9  C   UNL     1       4.636   5.691  16.626  0.00  0.00    +0.000 A 
ATOM     10  C   UNL     1       3.698   5.664  17.683  0.00  0.00    +0.000 A 
ATOM     11  C   UNL     1       3.181   6.857  18.263  0.00  0.00    +0.000 A 
ATOM     12  C   UNL     1       2.255   6.798  19.341  0.00  0.00    +0.000 A 
ATOM     13  C   UNL     1       1.881   5.510  19.810  0.00  0.00    +0.000 A 
ATOM     14  O   UNL     1       1.101   5.402  20.735  0.00  0.00    +0.000 OA
ATOM     15  N   UNL     1       2.396   4.349  19.253  0.00  0.00    +0.000 N 
ATOM     16  C   UNL     1       3.288   4.407  18.210  0.00  0.00    +0.000 A 
ENDROOT
BRANCH  12  17
ATOM     17  C   UNL     1       1.744   8.101  19.970  0.00  0.00    +0.000 C 
ATOM     18  O   UNL     1       1.702   8.181  21.191  0.00  0.00    +0.000 OA
ATOM     19  N   UNL     1       1.305   9.187  19.252  0.00  0.00    +0.000 N 
ATOM     20  H   UNL     1       1.312   9.215  18.235  0.00  0.00    +0.000 HD
BRANCH  19  21
ATOM     21  C   UNL     1       0.788  10.378  19.910  0.00  0.00    +0.000 C 
BRANCH  21  22
ATOM     22  C   UNL     1      -0.754  10.362  19.980  0.00  0.00    +0.000 C 
BRANCH  22  23
ATOM     23  N   UNL     1      -1.401  11.215  18.956  0.00  0.00    +0.000 NA
ATOM     24  C   UNL     1      -0.580  12.385  18.600  0.00  0.00    +0.000 C 
ATOM     25  C   UNL     1      -1.662  10.417  17.745  0.00  0.00    +0.000 C 
ENDBRANCH  22  23
ENDBRANCH  21  22
ENDBRANCH  19  21
ENDBRANCH  12  17
BRANCH  11  26
ATOM     26  O   UNL     1       3.578   8.075  17.818  0.00  0.00    +0.000 OA
ATOM     27  H   UNL     1       4.433   8.491  17.951  0.00  0.00    +0.000 HD
ENDBRANCH  11  26
TORSDOF 5
ENDMDL
MODEL 5
REMARK VINA RESULT:      -6.8      3.534      8.026
REMARK  Name = 
REMARK  8 active torsions:
REMARK  status: ('A' for Active; 'I' for Inactive)
REMARK    1  A    between atoms: C_1  and  C_2
REMARK    2  A    between atoms: C_11  and  O_12
REMARK    3  A    between atoms: C_13  and  C_14
REMARK    4  A    between atoms: N_16  and  C_17
REMARK    5  A    between atoms: C_17  and  C_18
REMARK    6  A    between atoms: C_18  and  N_19
REMARK    7  A    between atoms: N_19  and  C_20
REMARK    8  A    between atoms: N_19  and  C_21
REMARK                            x       y       z     vdW  Elec       q    Type
REMARK                         _______ _______ _______ _____ _____    ______ ____
ROOT
ATOM      1  C   UNL     1       2.326  12.501  18.402  0.00  0.00    +0.000 C 
ATOM      2  C   UNL     1       0.998  11.738  18.323  0.00  0.00    +0.000 C 
ATOM      3  C   UNL     1      -0.183  12.517  18.898  0.00  0.00    +0.000 C 
ATOM      4  C   UNL     1      -0.158  12.587  20.413  0.00  0.00    +0.000 C 
ATOM      5  C   UNL     1       0.090  11.228  21.006  0.00  0.00    +0.000 A 
ATOM      6  C   UNL     1      -0.292  11.013  22.333  0.00  0.00    +0.000 A 
ATOM      7  C   UNL     1      -0.061   9.789  22.944  0.00  0.00    +0.000 A 
ATOM      8  F   UNL     1      -0.442   9.593  24.229  0.00  0.00    +0.000 F 
ATOM      9  C   UNL     1       0.582   8.770  22.244  0.00  0.00    +0.000 A 
ATOM     10  C   UNL     1       1.000   8.953  20.907  0.00  0.00    +0.000 A 
ATOM     11  C   UNL     1       1.704   7.943  20.191  0.00  0.00    +0.000 A 
ATOM     12  C   UNL     1       2.132   8.166  18.853  0.00  0.00    +0.000 A 
ATOM     13  C   UNL     1       1.833   9.429  18.274  0.00  0.00    +0.000 A 
ATOM     14  O   UNL     1       2.185   9.675  17.138  0.00  0.00    +0.000 OA
ATOM     15  N   UNL     1       1.161  10.417  18.977  0.00  0.00    +0.000 N 
ATOM     16  C   UNL     1       0.745  10.199  20.269  0.00  0.00    +0.000 A 
ENDROOT
BRANCH  12  17
ATOM     17  C   UNL     1       2.921   7.072  18.120  0.00  0.00    +0.000 C 
ATOM     18  O   UNL     1       2.550   5.911  18.234  0.00  0.00    +0.000 OA
ATOM     19  N   UNL     1       4.038   7.305  17.355  0.00  0.00    +0.000 N 
ATOM     20  H   UNL     1       4.413   8.237  17.197  0.00  0.00    +0.000 HD
BRANCH  19  21
ATOM     21  C   UNL     1       4.769   6.217  16.723  0.00  0.00    +0.000 C 
BRANCH  21  22
ATOM     22  C   UNL     1       6.222   6.134  17.240  0.00  0.00    +0.000 C 
BRANCH  22  23
ATOM     23  N   UNL     1       6.317   5.824  18.685  0.00  0.00    +0.000 NA
ATOM     24  C   UNL     1       5.599   4.589  19.044  0.00  0.00    +0.000 C 
ATOM     25  C   UNL     1       7.734   5.692  19.068  0.00  0.00    +0.000 C 
ENDBRANCH  22  23
ENDBRANCH  21  22
ENDBRANCH  19  21
ENDBRANCH  12  17
BRANCH  11  26
ATOM     26  O   UNL     1       2.004   6.757  20.776  0.00  0.00    +0.000 OA
ATOM     27  H   UNL     1       1.389   6.064  21.030  0.00  0.00    +0.000 HD
ENDBRANCH  11  26
TORSDOF 5
ENDMDL
MODEL 6
REMARK VINA RESULT:      -6.8      1.287      1.618
REMARK  Name = 
REMARK  8 active torsions:
REMARK  status: ('A' for Active; 'I' for Inactive)
REMARK    1  A    between atoms: C_1  and  C_2
REMARK    2  A    between atoms: C_11  and  O_12
REMARK    3  A    between atoms: C_13  and  C_14
REMARK    4  A    between atoms: N_16  and  C_17
REMARK    5  A    between atoms: C_17  and  C_18
REMARK    6  A    between atoms: C_18  and  N_19
REMARK    7  A    between atoms: N_19  and  C_20
REMARK    8  A    between atoms: N_19  and  C_21
REMARK                            x       y       z     vdW  Elec       q    Type
REMARK                         _______ _______ _______ _____ _____    ______ ____
ROOT
ATOM      1  C   UNL     1       2.990   2.848  20.968  0.00  0.00    +0.000 C 
ATOM      2  C   UNL     1       2.156   3.080  19.702  0.00  0.00    +0.000 C 
ATOM      3  C   UNL     1       2.346   1.994  18.645  0.00  0.00    +0.000 C 
ATOM      4  C   UNL     1       3.688   2.089  17.942  0.00  0.00    +0.000 C 
ATOM      5  C   UNL     1       3.958   3.501  17.499  0.00  0.00    +0.000 A 
ATOM      6  C   UNL     1       4.888   3.697  16.475  0.00  0.00    +0.000 A 
ATOM      7  C   UNL     1       5.202   4.979  16.044  0.00  0.00    +0.000 A 
ATOM      8  F   UNL     1       6.101   5.155  15.046  0.00  0.00    +0.000 F 
ATOM      9  C   UNL     1       4.611   6.084  16.653  0.00  0.00    +0.000 A 
ATOM     10  C   UNL     1       3.680   5.928  17.704  0.00  0.00    +0.000 A 
ATOM     11  C   UNL     1       3.103   7.045  18.373  0.00  0.00    +0.000 A 
ATOM     12  C   UNL     1       2.185   6.855  19.443  0.00  0.00    +0.000 A 
ATOM     13  C   UNL     1       1.880   5.517  19.812  0.00  0.00    +0.000 A 
ATOM     14  O   UNL     1       1.110   5.299  20.726  0.00  0.00    +0.000 OA
ATOM     15  N   UNL     1       2.453   4.431  19.169  0.00  0.00    +0.000 N 
ATOM     16  C   UNL     1       3.338   4.615  18.133  0.00  0.00    +0.000 A 
ENDROOT
BRANCH  12  17
ATOM     17  C   UNL     1       1.608   8.079  20.169  0.00  0.00    +0.000 C 
ATOM     18  O   UNL     1       1.621   8.088  21.393  0.00  0.00    +0.000 OA
ATOM     19  N   UNL     1       1.054   9.165  19.536  0.00  0.00    +0.000 N 
ATOM     20  H   UNL     1       1.009   9.248  18.523  0.00  0.00    +0.000 HD
BRANCH  19  21
ATOM     21  C   UNL     1       0.481  10.273  20.285  0.00  0.00    +0.000 C 
BRANCH  21  22
ATOM     22  C   UNL     1       1.147  11.615  19.911  0.00  0.00    +0.000 C 
BRANCH  22  23
ATOM     23  N   UNL     1       1.388  12.499  21.076  0.00  0.00    +0.000 NA
ATOM     24  C   UNL     1       2.348  13.574  20.776  0.00  0.00    +0.000 C 
ATOM     25  C   UNL     1       0.112  13.092  21.515  0.00  0.00    +0.000 C 
ENDBRANCH  22  23
ENDBRANCH  21  22
ENDBRANCH  19  21
ENDBRANCH  12  17
BRANCH  11  26
ATOM     26  O   UNL     1       3.434   8.312  18.022  0.00  0.00    +0.000 OA
ATOM     27  H   UNL     1       4.274   8.615  17.669  0.00  0.00    +0.000 HD
ENDBRANCH  11  26
TORSDOF 5
ENDMDL
MODEL 7
REMARK VINA RESULT:      -6.7      3.851      8.031
REMARK  Name = 
REMARK  8 active torsions:
REMARK  status: ('A' for Active; 'I' for Inactive)
REMARK    1  A    between atoms: C_1  and  C_2
REMARK    2  A    between atoms: C_11  and  O_12
REMARK    3  A    between atoms: C_13  and  C_14
REMARK    4  A    between atoms: N_16  and  C_17
REMARK    5  A    between atoms: C_17  and  C_18
REMARK    6  A    between atoms: C_18  and  N_19
REMARK    7  A    between atoms: N_19  and  C_20
REMARK    8  A    between atoms: N_19  and  C_21
REMARK                            x       y       z     vdW  Elec       q    Type
REMARK                         _______ _______ _______ _____ _____    ______ ____
ROOT
ATOM      1  C   UNL     1       1.687   2.566  18.715  0.00  0.00    +0.000 C 
ATOM      2  C   UNL     1       2.857   3.264  19.419  0.00  0.00    +0.000 C 
ATOM      3  C   UNL     1       2.471   3.889  20.758  0.00  0.00    +0.000 C 
ATOM      4  C   UNL     1       1.638   5.147  20.600  0.00  0.00    +0.000 C 
ATOM      5  C   UNL     1       2.258   6.074  19.590  0.00  0.00    +0.000 A 
ATOM      6  C   UNL     1       1.905   7.425  19.640  0.00  0.00    +0.000 A 
ATOM      7  C   UNL     1       2.421   8.322  18.716  0.00  0.00    +0.000 A 
ATOM      8  F   UNL     1       2.076   9.631  18.780  0.00  0.00    +0.000 F 
ATOM      9  C   UNL     1       3.276   7.875  17.710  0.00  0.00    +0.000 A 
ATOM     10  C   UNL     1       3.642   6.514  17.615  0.00  0.00    +0.000 A 
ATOM     11  C   UNL     1       4.473   6.027  16.566  0.00  0.00    +0.000 A 
ATOM     12  C   UNL     1       4.806   4.647  16.484  0.00  0.00    +0.000 A 
ATOM     13  C   UNL     1       4.273   3.787  17.481  0.00  0.00    +0.000 A 
ATOM     14  O   UNL     1       4.518   2.597  17.453  0.00  0.00    +0.000 OA
ATOM     15  N   UNL     1       3.453   4.259  18.495  0.00  0.00    +0.000 N 
ATOM     16  C   UNL     1       3.134   5.594  18.574  0.00  0.00    +0.000 A 
ENDROOT
BRANCH  12  17
ATOM     17  C   UNL     1       5.673   4.147  15.320  0.00  0.00    +0.000 C 
ATOM     18  O   UNL     1       6.840   3.854  15.547  0.00  0.00    +0.000 OA
ATOM     19  N   UNL     1       5.233   4.023  14.025  0.00  0.00    +0.000 N 
ATOM     20  H   UNL     1       4.278   4.234  13.745  0.00  0.00    +0.000 HD
BRANCH  19  21
ATOM     21  C   UNL     1       6.119   3.587  12.957  0.00  0.00    +0.000 C 
BRANCH  21  22
ATOM     22  C   UNL     1       5.366   2.754  11.898  0.00  0.00    +0.000 C 
BRANCH  22  23
ATOM     23  N   UNL     1       6.255   1.900  11.076  0.00  0.00    +0.000 NA
ATOM     24  C   UNL     1       7.680   2.199  11.294  0.00  0.00    +0.000 C 
ATOM     25  C   UNL     1       6.001   0.482  11.388  0.00  0.00    +0.000 C 
ENDBRANCH  22  23
ENDBRANCH  21  22
ENDBRANCH  19  21
ENDBRANCH  12  17
BRANCH  11  26
ATOM     26  O   UNL     1       4.945   6.864  15.608  0.00  0.00    +0.000 OA
ATOM     27  H   UNL     1       5.814   7.271  15.570  0.00  0.00    +0.000 HD
ENDBRANCH  11  26
TORSDOF 5
ENDMDL
MODEL 8
REMARK VINA RESULT:      -6.7      3.034      7.960
REMARK  Name = 
REMARK  8 active torsions:
REMARK  status: ('A' for Active; 'I' for Inactive)
REMARK    1  A    between atoms: C_1  and  C_2
REMARK    2  A    between atoms: C_11  and  O_12
REMARK    3  A    between atoms: C_13  and  C_14
REMARK    4  A    between atoms: N_16  and  C_17
REMARK    5  A    between atoms: C_17  and  C_18
REMARK    6  A    between atoms: C_18  and  N_19
REMARK    7  A    between atoms: N_19  and  C_20
REMARK    8  A    between atoms: N_19  and  C_21
REMARK                            x       y       z     vdW  Elec       q    Type
REMARK                         _______ _______ _______ _____ _____    ______ ____
ROOT
ATOM      1  C   UNL     1       2.223  12.266  18.246  0.00  0.00    +0.000 C 
ATOM      2  C   UNL     1       0.929  11.443  18.221  0.00  0.00    +0.000 C 
ATOM      3  C   UNL     1      -0.275  12.190  18.790  0.00  0.00    +0.000 C 
ATOM      4  C   UNL     1      -0.225  12.316  20.302  0.00  0.00    +0.000 C 
ATOM      5  C   UNL     1       0.094  10.991  20.937  0.00  0.00    +0.000 A 
ATOM      6  C   UNL     1      -0.254  10.808  22.278  0.00  0.00    +0.000 A 
ATOM      7  C   UNL     1       0.042   9.618  22.927  0.00  0.00    +0.000 A 
ATOM      8  F   UNL     1      -0.308   9.451  24.225  0.00  0.00    +0.000 F 
ATOM      9  C   UNL     1       0.717   8.603  22.251  0.00  0.00    +0.000 A 
ATOM     10  C   UNL     1       1.102   8.756  20.900  0.00  0.00    +0.000 A 
ATOM     11  C   UNL     1       1.837   7.752  20.206  0.00  0.00    +0.000 A 
ATOM     12  C   UNL     1       2.230   7.945  18.854  0.00  0.00    +0.000 A 
ATOM     13  C   UNL     1       1.865   9.172  18.237  0.00  0.00    +0.000 A 
ATOM     14  O   UNL     1       2.185   9.393  17.085  0.00  0.00    +0.000 OA
ATOM     15  N   UNL     1       1.162  10.155  18.917  0.00  0.00    +0.000 N 
ATOM     16  C   UNL     1       0.780   9.966  20.224  0.00  0.00    +0.000 A 
ENDROOT
BRANCH  12  17
ATOM     17  C   UNL     1       3.053   6.861  18.144  0.00  0.00    +0.000 C 
ATOM     18  O   UNL     1       4.097   7.189  17.596  0.00  0.00    +0.000 OA
ATOM     19  N   UNL     1       2.686   5.540  18.062  0.00  0.00    +0.000 N 
ATOM     20  H   UNL     1       1.840   5.175  18.494  0.00  0.00    +0.000 HD
BRANCH  19  21
ATOM     21  C   UNL     1       3.488   4.569  17.334  0.00  0.00    +0.000 C 
BRANCH  21  22
ATOM     22  C   UNL     1       4.360   3.724  18.286  0.00  0.00    +0.000 C 
BRANCH  22  23
ATOM     23  N   UNL     1       3.574   2.835  19.174  0.00  0.00    +0.000 NA
ATOM     24  C   UNL     1       2.786   1.845  18.421  0.00  0.00    +0.000 C 
ATOM     25  C   UNL     1       4.483   2.134  20.098  0.00  0.00    +0.000 C 
ENDBRANCH  22  23
ENDBRANCH  21  22
ENDBRANCH  19  21
ENDBRANCH  12  17
BRANCH  11  26
ATOM     26  O   UNL     1       2.199   6.602  20.828  0.00  0.00    +0.000 OA
ATOM     27  H   UNL     1       2.875   6.496  21.502  0.00  0.00    +0.000 HD
ENDBRANCH  11  26
TORSDOF 5
ENDMDL
MODEL 9
REMARK VINA RESULT:      -6.5      3.497      8.284
REMARK  Name = 
REMARK  8 active torsions:
REMARK  status: ('A' for Active; 'I' for Inactive)
REMARK    1  A    between atoms: C_1  and  C_2
REMARK    2  A    between atoms: C_11  and  O_12
REMARK    3  A    between atoms: C_13  and  C_14
REMARK    4  A    between atoms: N_16  and  C_17
REMARK    5  A    between atoms: C_17  and  C_18
REMARK    6  A    between atoms: C_18  and  N_19
REMARK    7  A    between atoms: N_19  and  C_20
REMARK    8  A    between atoms: N_19  and  C_21
REMARK                            x       y       z     vdW  Elec       q    Type
REMARK                         _______ _______ _______ _____ _____    ______ ____
ROOT
ATOM      1  C   UNL     1       2.533  11.999  18.099  0.00  0.00    +0.000 C 
ATOM      2  C   UNL     1       1.178  11.281  18.034  0.00  0.00    +0.000 C 
ATOM      3  C   UNL     1       0.005  12.166  18.451  0.00  0.00    +0.000 C 
ATOM      4  C   UNL     1      -0.042  12.409  19.948  0.00  0.00    +0.000 C 
ATOM      5  C   UNL     1       0.116  11.117  20.703  0.00  0.00    +0.000 A 
ATOM      6  C   UNL     1      -0.341  11.071  22.023  0.00  0.00    +0.000 A 
ATOM      7  C   UNL     1      -0.195   9.918  22.780  0.00  0.00    +0.000 A 
ATOM      8  F   UNL     1      -0.648   9.885  24.056  0.00  0.00    +0.000 F 
ATOM      9  C   UNL     1       0.438   8.802  22.235  0.00  0.00    +0.000 A 
ATOM     10  C   UNL     1       0.930   8.814  20.911  0.00  0.00    +0.000 A 
ATOM     11  C   UNL     1       1.624   7.703  20.353  0.00  0.00    +0.000 A 
ATOM     12  C   UNL     1       2.127   7.754  19.024  0.00  0.00    +0.000 A 
ATOM     13  C   UNL     1       1.914   8.953  18.291  0.00  0.00    +0.000 A 
ATOM     14  O   UNL     1       2.332   9.053  17.155  0.00  0.00    +0.000 OA
ATOM     15  N   UNL     1       1.250  10.039  18.840  0.00  0.00    +0.000 N 
ATOM     16  C   UNL     1       0.762   9.987  20.124  0.00  0.00    +0.000 A 
ENDROOT
BRANCH  12  17
ATOM     17  C   UNL     1       2.904   6.554  18.464  0.00  0.00    +0.000 C 
ATOM     18  O   UNL     1       2.320   5.485  18.350  0.00  0.00    +0.000 OA
ATOM     19  N   UNL     1       4.227   6.592  18.097  0.00  0.00    +0.000 N 
ATOM     20  H   UNL     1       4.789   7.439  18.148  0.00  0.00    +0.000 HD
BRANCH  19  21
ATOM     21  C   UNL     1       4.919   5.406  17.616  0.00  0.00    +0.000 C 
BRANCH  21  22
ATOM     22  C   UNL     1       5.166   5.471  16.093  0.00  0.00    +0.000 C 
BRANCH  22  23
ATOM     23  N   UNL     1       6.038   4.385  15.589  0.00  0.00    +0.000 NA
ATOM     24  C   UNL     1       6.358   4.538  14.160  0.00  0.00    +0.000 C 
ATOM     25  C   UNL     1       7.288   4.356  16.368  0.00  0.00    +0.000 C 
ENDBRANCH  22  23
ENDBRANCH  21  22
ENDBRANCH  19  21
ENDBRANCH  12  17
BRANCH  11  26
ATOM     26  O   UNL     1       1.842   6.581  21.084  0.00  0.00    +0.000 OA
ATOM     27  H   UNL     1       2.334   6.512  21.906  0.00  0.00    +0.000 HD
ENDBRANCH  11  26
TORSDOF 5
ENDMDL
