MODEL 1
REMARK VINA RESULT:      -5.8      0.000      0.000
REMARK  Name = 
REMARK  16 active torsions:
REMARK  status: ('A' for Active; 'I' for Inactive)
REMARK    1  A    between atoms: C_1  and  C_2
REMARK    2  A    between atoms: C_2  and  C_3
REMARK    3  A    between atoms: C_3  and  C_4
REMARK    4  A    between atoms: C_4  and  C_5
REMARK    5  A    between atoms: C_5  and  C_6
REMARK    6  A    between atoms: C_6  and  C_7
REMARK    7  A    between atoms: C_7  and  C_8
REMARK    8  A    between atoms: C_8  and  C_9
REMARK    9  A    between atoms: C_9  and  C_10
REMARK   10  A    between atoms: C_10  and  C_11
REMARK   11  A    between atoms: C_11  and  C_12
REMARK   12  A    between atoms: N_14  and  C_15
REMARK   13  A    between atoms: C_15  and  C_16
REMARK   14  A    between atoms: C_16  and  C_17
REMARK   15  A    between atoms: C_16  and  C_18
REMARK   16  A    between atoms: C_18  and  C_19
REMARK                            x       y       z     vdW  Elec       q    Type
REMARK                         _______ _______ _______ _____ _____    ______ ____
ROOT
ATOM      1  C   UNL     1       5.000   4.853  19.255  0.00  0.00    +0.000 C 
ENDROOT
BRANCH   1   2
ATOM      2  C   UNL     1       4.087   5.829  18.525  0.00  0.00    +0.000 C 
BRANCH   2   3
ATOM      3  C   UNL     1       3.010   5.065  17.758  0.00  0.00    +0.000 C 
BRANCH   3   4
ATOM      4  C   UNL     1       3.499   3.672  17.390  0.00  0.00    +0.000 C 
BRANCH   4   5
ATOM      5  C   UNL     1       2.497   2.617  17.839  0.00  0.00    +0.000 C 
BRANCH   5   6
ATOM      6  C   UNL     1       1.171   3.268  18.201  0.00  0.00    +0.000 C 
BRANCH   6   7
ATOM      7  C   UNL     1       0.803   2.958  19.647  0.00  0.00    +0.000 C 
BRANCH   7   8
ATOM      8  C   UNL     1       0.962   4.200  20.512  0.00  0.00    +0.000 C 
BRANCH   8  10
ATOM      9  C   UNL     1       2.656   2.640  21.488  0.00  0.00    +0.000 C 
ATOM     10  C   UNL     1       2.188   4.081  21.409  0.00  0.00    +0.000 C 
ENDBRANCH   8  10
ENDBRANCH   7   8
ENDBRANCH   6   7
ENDBRANCH   5   6
ENDBRANCH   4   5
ENDBRANCH   3   4
ENDBRANCH   2   3
ENDBRANCH   1   2
BRANCH   1  11
ATOM     11  C   UNL     1       6.453   5.327  19.294  0.00  0.00    +0.000 C 
BRANCH  11  12
ATOM     12  C   UNL     1       7.018   5.384  17.888  0.00  0.00    +0.000 C 
ATOM     13  O   UNL     1       7.700   6.318  17.472  0.00  0.00    +0.000 OA
ATOM     14  N   UNL     1       6.716   4.294  17.108  0.00  0.00    +0.000 N 
ATOM     15  H   UNL     1       6.205   3.518  17.507  0.00  0.00    +0.000 HD
BRANCH  14  16
ATOM     16  C   UNL     1       7.220   4.188  15.749  0.00  0.00    +0.000 C 
BRANCH  16  17
ATOM     17  C   UNL     1       6.123   4.372  14.682  0.00  0.00    +0.000 C 
ATOM     18  C   UNL     1       5.318   5.647  14.959  0.00  0.00    +0.000 C 
BRANCH  17  19
ATOM     19  C   UNL     1       6.757   4.406  13.275  0.00  0.00    +0.000 C 
ATOM     20  C   UNL     1       6.176   3.368  12.321  0.00  0.00    +0.000 C 
ENDBRANCH  17  19
ENDBRANCH  16  17
ENDBRANCH  14  16
ENDBRANCH  11  12
ENDBRANCH   1  11
TORSDOF 13
ENDMDL
MODEL 2
REMARK VINA RESULT:      -5.8      1.040      2.033
REMARK  Name = 
REMARK  16 active torsions:
REMARK  status: ('A' for Active; 'I' for Inactive)
REMARK    1  A    between atoms: C_1  and  C_2
REMARK    2  A    between atoms: C_2  and  C_3
REMARK    3  A    between atoms: C_3  and  C_4
REMARK    4  A    between atoms: C_4  and  C_5
REMARK    5  A    between atoms: C_5  and  C_6
REMARK    6  A    between atoms: C_6  and  C_7
REMARK    7  A    between atoms: C_7  and  C_8
REMARK    8  A    between atoms: C_8  and  C_9
REMARK    9  A    between atoms: C_9  and  C_10
REMARK   10  A    between atoms: C_10  and  C_11
REMARK   11  A    between atoms: C_11  and  C_12
REMARK   12  A    between atoms: N_14  and  C_15
REMARK   13  A    between atoms: C_15  and  C_16
REMARK   14  A    between atoms: C_16  and  C_17
REMARK   15  A    between atoms: C_16  and  C_18
REMARK   16  A    between atoms: C_18  and  C_19
REMARK                            x       y       z     vdW  Elec       q    Type
REMARK                         _______ _______ _______ _____ _____    ______ ____
ROOT
ATOM      1  C   UNL     1       6.733   5.221  18.765  0.00  0.00    +0.000 C 
ENDROOT
BRANCH   1   2
ATOM      2  C   UNL     1       5.471   4.470  19.167  0.00  0.00    +0.000 C 
BRANCH   2   3
ATOM      3  C   UNL     1       4.337   5.457  19.435  0.00  0.00    +0.000 C 
BRANCH   3   4
ATOM      4  C   UNL     1       3.614   5.806  18.143  0.00  0.00    +0.000 C 
BRANCH   4   5
ATOM      5  C   UNL     1       3.280   4.544  17.359  0.00  0.00    +0.000 C 
BRANCH   5   6
ATOM      6  C   UNL     1       1.848   4.112  17.639  0.00  0.00    +0.000 C 
BRANCH   6   7
ATOM      7  C   UNL     1       1.829   2.772  18.363  0.00  0.00    +0.000 C 
BRANCH   7   8
ATOM      8  C   UNL     1       0.746   2.764  19.432  0.00  0.00    +0.000 C 
BRANCH   8  10
ATOM      9  C   UNL     1       2.217   3.054  21.435  0.00  0.00    +0.000 C 
ATOM     10  C   UNL     1       1.122   3.679  20.590  0.00  0.00    +0.000 C 
ENDBRANCH   8  10
ENDBRANCH   7   8
ENDBRANCH   6   7
ENDBRANCH   5   6
ENDBRANCH   4   5
ENDBRANCH   3   4
ENDBRANCH   2   3
ENDBRANCH   1   2
BRANCH   1  11
ATOM     11  C   UNL     1       7.475   4.546  17.611  0.00  0.00    +0.000 C 
BRANCH  11  12
ATOM     12  C   UNL     1       7.006   5.118  16.288  0.00  0.00    +0.000 C 
ATOM     13  O   UNL     1       7.188   6.287  15.956  0.00  0.00    +0.000 OA
ATOM     14  N   UNL     1       6.363   4.218  15.473  0.00  0.00    +0.000 N 
ATOM     15  H   UNL     1       6.287   3.250  15.757  0.00  0.00    +0.000 HD
BRANCH  14  16
ATOM     16  C   UNL     1       5.889   4.610  14.156  0.00  0.00    +0.000 C 
BRANCH  16  17
ATOM     17  C   UNL     1       6.565   3.827  13.013  0.00  0.00    +0.000 C 
ATOM     18  C   UNL     1       5.521   3.028  12.225  0.00  0.00    +0.000 C 
BRANCH  17  19
ATOM     19  C   UNL     1       7.337   4.797  12.094  0.00  0.00    +0.000 C 
ATOM     20  C   UNL     1       8.375   5.636  12.830  0.00  0.00    +0.000 C 
ENDBRANCH  17  19
ENDBRANCH  16  17
ENDBRANCH  14  16
ENDBRANCH  11  12
ENDBRANCH   1  11
TORSDOF 13
ENDMDL
MODEL 3
REMARK VINA RESULT:      -5.8      1.721      3.176
REMARK  Name = 
REMARK  16 active torsions:
REMARK  status: ('A' for Active; 'I' for Inactive)
REMARK    1  A    between atoms: C_1  and  C_2
REMARK    2  A    between atoms: C_2  and  C_3
REMARK    3  A    between atoms: C_3  and  C_4
REMARK    4  A    between atoms: C_4  and  C_5
REMARK    5  A    between atoms: C_5  and  C_6
REMARK    6  A    between atoms: C_6  and  C_7
REMARK    7  A    between atoms: C_7  and  C_8
REMARK    8  A    between atoms: C_8  and  C_9
REMARK    9  A    between atoms: C_9  and  C_10
REMARK   10  A    between atoms: C_10  and  C_11
REMARK   11  A    between atoms: C_11  and  C_12
REMARK   12  A    between atoms: N_14  and  C_15
REMARK   13  A    between atoms: C_15  and  C_16
REMARK   14  A    between atoms: C_16  and  C_17
REMARK   15  A    between atoms: C_16  and  C_18
REMARK   16  A    between atoms: C_18  and  C_19
REMARK                            x       y       z     vdW  Elec       q    Type
REMARK                         _______ _______ _______ _____ _____    ______ ____
ROOT
ATOM      1  C   UNL     1       4.836   3.890  16.047  0.00  0.00    +0.000 C 
ENDROOT
BRANCH   1   2
ATOM      2  C   UNL     1       4.229   3.636  17.421  0.00  0.00    +0.000 C 
BRANCH   2   3
ATOM      3  C   UNL     1       5.130   4.220  18.507  0.00  0.00    +0.000 C 
BRANCH   3   4
ATOM      4  C   UNL     1       4.432   5.367  19.223  0.00  0.00    +0.000 C 
BRANCH   4   5
ATOM      5  C   UNL     1       2.958   5.415  18.844  0.00  0.00    +0.000 C 
BRANCH   5   6
ATOM      6  C   UNL     1       2.101   5.619  20.084  0.00  0.00    +0.000 C 
BRANCH   6   7
ATOM      7  C   UNL     1       2.446   4.582  21.146  0.00  0.00    +0.000 C 
BRANCH   7   8
ATOM      8  C   UNL     1       2.133   3.181  20.640  0.00  0.00    +0.000 C 
BRANCH   8  10
ATOM      9  C   UNL     1       0.818   2.338  18.687  0.00  0.00    +0.000 C 
ATOM     10  C   UNL     1       0.764   3.141  19.973  0.00  0.00    +0.000 C 
ENDBRANCH   8  10
ENDBRANCH   7   8
ENDBRANCH   6   7
ENDBRANCH   5   6
ENDBRANCH   4   5
ENDBRANCH   3   4
ENDBRANCH   2   3
ENDBRANCH   1   2
BRANCH   1  11
ATOM     11  C   UNL     1       6.263   4.431  16.128  0.00  0.00    +0.000 C 
BRANCH  11  12
ATOM     12  C   UNL     1       6.846   4.570  14.736  0.00  0.00    +0.000 C 
ATOM     13  O   UNL     1       7.719   5.386  14.448  0.00  0.00    +0.000 OA
ATOM     14  N   UNL     1       6.325   3.698  13.810  0.00  0.00    +0.000 N 
ATOM     15  H   UNL     1       5.652   3.002  14.101  0.00  0.00    +0.000 HD
BRANCH  14  16
ATOM     16  C   UNL     1       6.811   3.687  12.441  0.00  0.00    +0.000 C 
BRANCH  16  17
ATOM     17  C   UNL     1       5.837   3.007  11.459  0.00  0.00    +0.000 C 
ATOM     18  C   UNL     1       6.093   1.497  11.414  0.00  0.00    +0.000 C 
BRANCH  17  19
ATOM     19  C   UNL     1       4.379   3.315  11.865  0.00  0.00    +0.000 C 
ATOM     20  C   UNL     1       3.398   3.249  10.701  0.00  0.00    +0.000 C 
ENDBRANCH  17  19
ENDBRANCH  16  17
ENDBRANCH  14  16
ENDBRANCH  11  12
ENDBRANCH   1  11
TORSDOF 13
ENDMDL
MODEL 4
REMARK VINA RESULT:      -5.7      1.750      2.832
REMARK  Name = 
REMARK  16 active torsions:
REMARK  status: ('A' for Active; 'I' for Inactive)
REMARK    1  A    between atoms: C_1  and  C_2
REMARK    2  A    between atoms: C_2  and  C_3
REMARK    3  A    between atoms: C_3  and  C_4
REMARK    4  A    between atoms: C_4  and  C_5
REMARK    5  A    between atoms: C_5  and  C_6
REMARK    6  A    between atoms: C_6  and  C_7
REMARK    7  A    between atoms: C_7  and  C_8
REMARK    8  A    between atoms: C_8  and  C_9
REMARK    9  A    between atoms: C_9  and  C_10
REMARK   10  A    between atoms: C_10  and  C_11
REMARK   11  A    between atoms: C_11  and  C_12
REMARK   12  A    between atoms: N_14  and  C_15
REMARK   13  A    between atoms: C_15  and  C_16
REMARK   14  A    between atoms: C_16  and  C_17
REMARK   15  A    between atoms: C_16  and  C_18
REMARK   16  A    between atoms: C_18  and  C_19
REMARK                            x       y       z     vdW  Elec       q    Type
REMARK                         _______ _______ _______ _____ _____    ______ ____
ROOT
ATOM      1  C   UNL     1       4.886   4.528  16.136  0.00  0.00    +0.000 C 
ENDROOT
BRANCH   1   2
ATOM      2  C   UNL     1       4.497   5.714  17.009  0.00  0.00    +0.000 C 
BRANCH   2   3
ATOM      3  C   UNL     1       3.360   5.320  17.950  0.00  0.00    +0.000 C 
BRANCH   3   4
ATOM      4  C   UNL     1       2.613   4.109  17.412  0.00  0.00    +0.000 C 
BRANCH   4   5
ATOM      5  C   UNL     1       1.423   3.777  18.301  0.00  0.00    +0.000 C 
BRANCH   5   6
ATOM      6  C   UNL     1       1.401   4.690  19.518  0.00  0.00    +0.000 C 
BRANCH   6   7
ATOM      7  C   UNL     1       1.122   3.886  20.781  0.00  0.00    +0.000 C 
BRANCH   7   8
ATOM      8  C   UNL     1       1.738   2.498  20.672  0.00  0.00    +0.000 C 
BRANCH   8  10
ATOM      9  C   UNL     1       4.195   2.182  20.330  0.00  0.00    +0.000 C 
ATOM     10  C   UNL     1       3.103   2.458  21.347  0.00  0.00    +0.000 C 
ENDBRANCH   8  10
ENDBRANCH   7   8
ENDBRANCH   6   7
ENDBRANCH   5   6
ENDBRANCH   4   5
ENDBRANCH   3   4
ENDBRANCH   2   3
ENDBRANCH   1   2
BRANCH   1  11
ATOM     11  C   UNL     1       6.399   4.319  16.074  0.00  0.00    +0.000 C 
BRANCH  11  12
ATOM     12  C   UNL     1       6.893   4.522  14.655  0.00  0.00    +0.000 C 
ATOM     13  O   UNL     1       7.650   5.433  14.328  0.00  0.00    +0.000 OA
ATOM     14  N   UNL     1       6.433   3.594  13.752  0.00  0.00    +0.000 N 
ATOM     15  H   UNL     1       5.860   2.824  14.072  0.00  0.00    +0.000 HD
BRANCH  14  16
ATOM     16  C   UNL     1       6.850   3.637  12.361  0.00  0.00    +0.000 C 
BRANCH  16  17
ATOM     17  C   UNL     1       5.821   3.005  11.402  0.00  0.00    +0.000 C 
ATOM     18  C   UNL     1       5.922   1.476  11.443  0.00  0.00    +0.000 C 
BRANCH  17  19
ATOM     19  C   UNL     1       4.399   3.481  11.767  0.00  0.00    +0.000 C 
ATOM     20  C   UNL     1       3.378   3.253  10.658  0.00  0.00    +0.000 C 
ENDBRANCH  17  19
ENDBRANCH  16  17
ENDBRANCH  14  16
ENDBRANCH  11  12
ENDBRANCH   1  11
TORSDOF 13
ENDMDL
MODEL 5
REMARK VINA RESULT:      -5.7      2.167      7.016
REMARK  Name = 
REMARK  16 active torsions:
REMARK  status: ('A' for Active; 'I' for Inactive)
REMARK    1  A    between atoms: C_1  and  C_2
REMARK    2  A    between atoms: C_2  and  C_3
REMARK    3  A    between atoms: C_3  and  C_4
REMARK    4  A    between atoms: C_4  and  C_5
REMARK    5  A    between atoms: C_5  and  C_6
REMARK    6  A    between atoms: C_6  and  C_7
REMARK    7  A    between atoms: C_7  and  C_8
REMARK    8  A    between atoms: C_8  and  C_9
REMARK    9  A    between atoms: C_9  and  C_10
REMARK   10  A    between atoms: C_10  and  C_11
REMARK   11  A    between atoms: C_11  and  C_12
REMARK   12  A    between atoms: N_14  and  C_15
REMARK   13  A    between atoms: C_15  and  C_16
REMARK   14  A    between atoms: C_16  and  C_17
REMARK   15  A    between atoms: C_16  and  C_18
REMARK   16  A    between atoms: C_18  and  C_19
REMARK                            x       y       z     vdW  Elec       q    Type
REMARK                         _______ _______ _______ _____ _____    ______ ____
ROOT
ATOM      1  C   UNL     1       5.101   4.076  18.184  0.00  0.00    +0.000 C 
ENDROOT
BRANCH   1   2
ATOM      2  C   UNL     1       4.924   5.575  17.978  0.00  0.00    +0.000 C 
BRANCH   2   3
ATOM      3  C   UNL     1       6.288   6.251  17.859  0.00  0.00    +0.000 C 
BRANCH   3   4
ATOM      4  C   UNL     1       7.112   5.607  16.754  0.00  0.00    +0.000 C 
BRANCH   4   5
ATOM      5  C   UNL     1       6.370   5.675  15.426  0.00  0.00    +0.000 C 
BRANCH   5   6
ATOM      6  C   UNL     1       7.032   4.763  14.405  0.00  0.00    +0.000 C 
BRANCH   6   7
ATOM      7  C   UNL     1       6.013   3.796  13.816  0.00  0.00    +0.000 C 
BRANCH   7   8
ATOM      8  C   UNL     1       6.279   3.585  12.332  0.00  0.00    +0.000 C 
BRANCH   8  10
ATOM      9  C   UNL     1       4.069   3.272  11.205  0.00  0.00    +0.000 C 
ATOM     10  C   UNL     1       5.302   2.574  11.746  0.00  0.00    +0.000 C 
ENDBRANCH   8  10
ENDBRANCH   7   8
ENDBRANCH   6   7
ENDBRANCH   5   6
ENDBRANCH   4   5
ENDBRANCH   3   4
ENDBRANCH   2   3
ENDBRANCH   1   2
BRANCH   1  11
ATOM     11  C   UNL     1       4.346   3.249  17.143  0.00  0.00    +0.000 C 
BRANCH  11  12
ATOM     12  C   UNL     1       2.938   2.963  17.629  0.00  0.00    +0.000 C 
ATOM     13  O   UNL     1       1.931   3.270  16.996  0.00  0.00    +0.000 OA
ATOM     14  N   UNL     1       2.873   2.318  18.840  0.00  0.00    +0.000 N 
ATOM     15  H   UNL     1       3.726   2.028  19.300  0.00  0.00    +0.000 HD
BRANCH  14  16
ATOM     16  C   UNL     1       1.593   1.944  19.417  0.00  0.00    +0.000 C 
BRANCH  16  17
ATOM     17  C   UNL     1       1.231   2.768  20.669  0.00  0.00    +0.000 C 
ATOM     18  C   UNL     1       2.373   2.718  21.690  0.00  0.00    +0.000 C 
BRANCH  17  19
ATOM     19  C   UNL     1       0.904   4.222  20.266  0.00  0.00    +0.000 C 
ATOM     20  C   UNL     1       1.944   5.232  20.739  0.00  0.00    +0.000 C 
ENDBRANCH  17  19
ENDBRANCH  16  17
ENDBRANCH  14  16
ENDBRANCH  11  12
ENDBRANCH   1  11
TORSDOF 13
ENDMDL
MODEL 6
REMARK VINA RESULT:      -5.5      1.711      3.159
REMARK  Name = 
REMARK  16 active torsions:
REMARK  status: ('A' for Active; 'I' for Inactive)
REMARK    1  A    between atoms: C_1  and  C_2
REMARK    2  A    between atoms: C_2  and  C_3
REMARK    3  A    between atoms: C_3  and  C_4
REMARK    4  A    between atoms: C_4  and  C_5
REMARK    5  A    between atoms: C_5  and  C_6
REMARK    6  A    between atoms: C_6  and  C_7
REMARK    7  A    between atoms: C_7  and  C_8
REMARK    8  A    between atoms: C_8  and  C_9
REMARK    9  A    between atoms: C_9  and  C_10
REMARK   10  A    between atoms: C_10  and  C_11
REMARK   11  A    between atoms: C_11  and  C_12
REMARK   12  A    between atoms: N_14  and  C_15
REMARK   13  A    between atoms: C_15  and  C_16
REMARK   14  A    between atoms: C_16  and  C_17
REMARK   15  A    between atoms: C_16  and  C_18
REMARK   16  A    between atoms: C_18  and  C_19
REMARK                            x       y       z     vdW  Elec       q    Type
REMARK                         _______ _______ _______ _____ _____    ______ ____
ROOT
ATOM      1  C   UNL     1       4.416   4.182  16.407  0.00  0.00    +0.000 C 
ENDROOT
BRANCH   1   2
ATOM      2  C   UNL     1       3.290   4.732  17.272  0.00  0.00    +0.000 C 
BRANCH   2   3
ATOM      3  C   UNL     1       3.758   5.986  18.006  0.00  0.00    +0.000 C 
BRANCH   3   4
ATOM      4  C   UNL     1       3.710   5.776  19.512  0.00  0.00    +0.000 C 
BRANCH   4   5
ATOM      5  C   UNL     1       2.297   5.988  20.037  0.00  0.00    +0.000 C 
BRANCH   5   6
ATOM      6  C   UNL     1       1.924   4.883  21.014  0.00  0.00    +0.000 C 
BRANCH   6   7
ATOM      7  C   UNL     1       0.900   3.944  20.389  0.00  0.00    +0.000 C 
BRANCH   7   8
ATOM      8  C   UNL     1       1.441   2.522  20.347  0.00  0.00    +0.000 C 
BRANCH   8  10
ATOM      9  C   UNL     1       3.025   1.615  18.637  0.00  0.00    +0.000 C 
ATOM     10  C   UNL     1       1.595   2.045  18.909  0.00  0.00    +0.000 C 
ENDBRANCH   8  10
ENDBRANCH   7   8
ENDBRANCH   6   7
ENDBRANCH   5   6
ENDBRANCH   4   5
ENDBRANCH   3   4
ENDBRANCH   2   3
ENDBRANCH   1   2
BRANCH   1  11
ATOM     11  C   UNL     1       5.336   5.281  15.874  0.00  0.00    +0.000 C 
BRANCH  11  12
ATOM     12  C   UNL     1       6.358   4.688  14.925  0.00  0.00    +0.000 C 
ATOM     13  O   UNL     1       7.555   4.604  15.189  0.00  0.00    +0.000 OA
ATOM     14  N   UNL     1       5.838   4.235  13.736  0.00  0.00    +0.000 N 
ATOM     15  H   UNL     1       4.839   4.266  13.583  0.00  0.00    +0.000 HD
BRANCH  14  16
ATOM     16  C   UNL     1       6.690   3.607  12.741  0.00  0.00    +0.000 C 
BRANCH  16  17
ATOM     17  C   UNL     1       5.904   3.059  11.533  0.00  0.00    +0.000 C 
ATOM     18  C   UNL     1       6.365   1.636  11.199  0.00  0.00    +0.000 C 
BRANCH  17  19
ATOM     19  C   UNL     1       4.389   3.101  11.826  0.00  0.00    +0.000 C 
ATOM     20  C   UNL     1       3.543   3.442  10.605  0.00  0.00    +0.000 C 
ENDBRANCH  17  19
ENDBRANCH  16  17
ENDBRANCH  14  16
ENDBRANCH  11  12
ENDBRANCH   1  11
TORSDOF 13
ENDMDL
MODEL 7
REMARK VINA RESULT:      -5.5      1.903      3.789
REMARK  Name = 
REMARK  16 active torsions:
REMARK  status: ('A' for Active; 'I' for Inactive)
REMARK    1  A    between atoms: C_1  and  C_2
REMARK    2  A    between atoms: C_2  and  C_3
REMARK    3  A    between atoms: C_3  and  C_4
REMARK    4  A    between atoms: C_4  and  C_5
REMARK    5  A    between atoms: C_5  and  C_6
REMARK    6  A    between atoms: C_6  and  C_7
REMARK    7  A    between atoms: C_7  and  C_8
REMARK    8  A    between atoms: C_8  and  C_9
REMARK    9  A    between atoms: C_9  and  C_10
REMARK   10  A    between atoms: C_10  and  C_11
REMARK   11  A    between atoms: C_11  and  C_12
REMARK   12  A    between atoms: N_14  and  C_15
REMARK   13  A    between atoms: C_15  and  C_16
REMARK   14  A    between atoms: C_16  and  C_17
REMARK   15  A    between atoms: C_16  and  C_18
REMARK   16  A    between atoms: C_18  and  C_19
REMARK                            x       y       z     vdW  Elec       q    Type
REMARK                         _______ _______ _______ _____ _____    ______ ____
ROOT
ATOM      1  C   UNL     1       3.693   2.605  18.006  0.00  0.00    +0.000 C 
ENDROOT
BRANCH   1   2
ATOM      2  C   UNL     1       2.201   2.895  18.104  0.00  0.00    +0.000 C 
BRANCH   2   3
ATOM      3  C   UNL     1       1.623   2.249  19.362  0.00  0.00    +0.000 C 
BRANCH   3   4
ATOM      4  C   UNL     1       1.077   3.309  20.306  0.00  0.00    +0.000 C 
BRANCH   4   5
ATOM      5  C   UNL     1       1.182   4.692  19.677  0.00  0.00    +0.000 C 
BRANCH   5   6
ATOM      6  C   UNL     1       1.652   5.707  20.708  0.00  0.00    +0.000 C 
BRANCH   6   7
ATOM      7  C   UNL     1       2.320   6.891  20.021  0.00  0.00    +0.000 C 
BRANCH   7   8
ATOM      8  C   UNL     1       2.398   6.658  18.519  0.00  0.00    +0.000 C 
BRANCH   8  10
ATOM      9  C   UNL     1       1.986   8.997  17.736  0.00  0.00    +0.000 C 
ATOM     10  C   UNL     1       2.996   7.868  17.814  0.00  0.00    +0.000 C 
ENDBRANCH   8  10
ENDBRANCH   7   8
ENDBRANCH   6   7
ENDBRANCH   5   6
ENDBRANCH   4   5
ENDBRANCH   3   4
ENDBRANCH   2   3
ENDBRANCH   1   2
BRANCH   1  11
ATOM     11  C   UNL     1       4.421   2.826  19.332  0.00  0.00    +0.000 C 
BRANCH  11  12
ATOM     12  C   UNL     1       5.307   4.053  19.238  0.00  0.00    +0.000 C 
ATOM     13  O   UNL     1       5.120   5.073  19.897  0.00  0.00    +0.000 OA
ATOM     14  N   UNL     1       6.356   3.932  18.358  0.00  0.00    +0.000 N 
ATOM     15  H   UNL     1       6.511   3.055  17.880  0.00  0.00    +0.000 HD
BRANCH  14  16
ATOM     16  C   UNL     1       7.313   5.012  18.188  0.00  0.00    +0.000 C 
BRANCH  16  17
ATOM     17  C   UNL     1       6.745   6.203  17.391  0.00  0.00    +0.000 C 
ATOM     18  C   UNL     1       7.656   7.427  17.540  0.00  0.00    +0.000 C 
BRANCH  17  19
ATOM     19  C   UNL     1       6.574   5.812  15.908  0.00  0.00    +0.000 C 
ATOM     20  C   UNL     1       5.141   5.449  15.537  0.00  0.00    +0.000 C 
ENDBRANCH  17  19
ENDBRANCH  16  17
ENDBRANCH  14  16
ENDBRANCH  11  12
ENDBRANCH   1  11
TORSDOF 13
ENDMDL
MODEL 8
REMARK VINA RESULT:      -5.4      2.573      4.462
REMARK  Name = 
REMARK  16 active torsions:
REMARK  status: ('A' for Active; 'I' for Inactive)
REMARK    1  A    between atoms: C_1  and  C_2
REMARK    2  A    between atoms: C_2  and  C_3
REMARK    3  A    between atoms: C_3  and  C_4
REMARK    4  A    between atoms: C_4  and  C_5
REMARK    5  A    between atoms: C_5  and  C_6
REMARK    6  A    between atoms: C_6  and  C_7
REMARK    7  A    between atoms: C_7  and  C_8
REMARK    8  A    between atoms: C_8  and  C_9
REMARK    9  A    between atoms: C_9  and  C_10
REMARK   10  A    between atoms: C_10  and  C_11
REMARK   11  A    between atoms: C_11  and  C_12
REMARK   12  A    between atoms: N_14  and  C_15
REMARK   13  A    between atoms: C_15  and  C_16
REMARK   14  A    between atoms: C_16  and  C_17
REMARK   15  A    between atoms: C_16  and  C_18
REMARK   16  A    between atoms: C_18  and  C_19
REMARK                            x       y       z     vdW  Elec       q    Type
REMARK                         _______ _______ _______ _____ _____    ______ ____
ROOT
ATOM      1  C   UNL     1       2.555   1.781  19.333  0.00  0.00    +0.000 C 
ENDROOT
BRANCH   1   2
ATOM      2  C   UNL     1       1.169   2.169  18.836  0.00  0.00    +0.000 C 
BRANCH   2   3
ATOM      3  C   UNL     1       0.924   3.656  19.078  0.00  0.00    +0.000 C 
BRANCH   3   4
ATOM      4  C   UNL     1       1.051   3.987  20.557  0.00  0.00    +0.000 C 
BRANCH   4   5
ATOM      5  C   UNL     1       2.110   5.060  20.776  0.00  0.00    +0.000 C 
BRANCH   5   6
ATOM      6  C   UNL     1       2.258   5.918  19.528  0.00  0.00    +0.000 C 
BRANCH   6   7
ATOM      7  C   UNL     1       2.138   7.395  19.881  0.00  0.00    +0.000 C 
BRANCH   7   8
ATOM      8  C   UNL     1       1.243   7.577  21.098  0.00  0.00    +0.000 C 
BRANCH   8  10
ATOM      9  C   UNL     1       0.266   9.313  22.610  0.00  0.00    +0.000 C 
ATOM     10  C   UNL     1       0.769   9.021  21.209  0.00  0.00    +0.000 C 
ENDBRANCH   8  10
ENDBRANCH   7   8
ENDBRANCH   6   7
ENDBRANCH   5   6
ENDBRANCH   4   5
ENDBRANCH   3   4
ENDBRANCH   2   3
ENDBRANCH   1   2
BRANCH   1  11
ATOM     11  C   UNL     1       3.587   1.724  18.207  0.00  0.00    +0.000 C 
BRANCH  11  12
ATOM     12  C   UNL     1       4.132   3.112  17.931  0.00  0.00    +0.000 C 
ATOM     13  O   UNL     1       3.781   3.797  16.974  0.00  0.00    +0.000 OA
ATOM     14  N   UNL     1       5.053   3.556  18.850  0.00  0.00    +0.000 N 
ATOM     15  H   UNL     1       5.270   2.987  19.657  0.00  0.00    +0.000 HD
BRANCH  14  16
ATOM     16  C   UNL     1       5.636   4.882  18.739  0.00  0.00    +0.000 C 
BRANCH  16  17
ATOM     17  C   UNL     1       7.123   4.856  18.334  0.00  0.00    +0.000 C 
ATOM     18  C   UNL     1       7.261   4.635  16.824  0.00  0.00    +0.000 C 
BRANCH  17  19
ATOM     19  C   UNL     1       7.812   6.167  18.772  0.00  0.00    +0.000 C 
ATOM     20  C   UNL     1       7.662   7.299  17.763  0.00  0.00    +0.000 C 
ENDBRANCH  17  19
ENDBRANCH  16  17
ENDBRANCH  14  16
ENDBRANCH  11  12
ENDBRANCH   1  11
TORSDOF 13
ENDMDL
MODEL 9
REMARK VINA RESULT:      -5.4      1.197      2.181
REMARK  Name = 
REMARK  16 active torsions:
REMARK  status: ('A' for Active; 'I' for Inactive)
REMARK    1  A    between atoms: C_1  and  C_2
REMARK    2  A    between atoms: C_2  and  C_3
REMARK    3  A    between atoms: C_3  and  C_4
REMARK    4  A    between atoms: C_4  and  C_5
REMARK    5  A    between atoms: C_5  and  C_6
REMARK    6  A    between atoms: C_6  and  C_7
REMARK    7  A    between atoms: C_7  and  C_8
REMARK    8  A    between atoms: C_8  and  C_9
REMARK    9  A    between atoms: C_9  and  C_10
REMARK   10  A    between atoms: C_10  and  C_11
REMARK   11  A    between atoms: C_11  and  C_12
REMARK   12  A    between atoms: N_14  and  C_15
REMARK   13  A    between atoms: C_15  and  C_16
REMARK   14  A    between atoms: C_16  and  C_17
REMARK   15  A    between atoms: C_16  and  C_18
REMARK   16  A    between atoms: C_18  and  C_19
REMARK                            x       y       z     vdW  Elec       q    Type
REMARK                         _______ _______ _______ _____ _____    ______ ____
ROOT
ATOM      1  C   UNL     1       7.052   5.618  17.954  0.00  0.00    +0.000 C 
ENDROOT
BRANCH   1   2
ATOM      2  C   UNL     1       5.750   5.423  18.719  0.00  0.00    +0.000 C 
BRANCH   2   3
ATOM      3  C   UNL     1       4.590   6.045  17.945  0.00  0.00    +0.000 C 
BRANCH   3   4
ATOM      4  C   UNL     1       3.370   5.138  17.986  0.00  0.00    +0.000 C 
BRANCH   4   5
ATOM      5  C   UNL     1       3.772   3.690  17.740  0.00  0.00    +0.000 C 
BRANCH   5   6
ATOM      6  C   UNL     1       2.581   2.767  17.951  0.00  0.00    +0.000 C 
BRANCH   6   7
ATOM      7  C   UNL     1       1.325   3.579  18.242  0.00  0.00    +0.000 C 
BRANCH   7   8
ATOM      8  C   UNL     1       0.750   3.196  19.598  0.00  0.00    +0.000 C 
BRANCH   8  10
ATOM      9  C   UNL     1       2.126   3.220  21.686  0.00  0.00    +0.000 C 
ATOM     10  C   UNL     1       1.781   2.444  20.430  0.00  0.00    +0.000 C 
ENDBRANCH   8  10
ENDBRANCH   7   8
ENDBRANCH   6   7
ENDBRANCH   5   6
ENDBRANCH   4   5
ENDBRANCH   3   4
ENDBRANCH   2   3
ENDBRANCH   1   2
BRANCH   1  11
ATOM     11  C   UNL     1       7.344   4.467  16.991  0.00  0.00    +0.000 C 
BRANCH  11  12
ATOM     12  C   UNL     1       7.004   4.879  15.572  0.00  0.00    +0.000 C 
ATOM     13  O   UNL     1       7.653   5.706  14.936  0.00  0.00    +0.000 OA
ATOM     14  N   UNL     1       5.909   4.242  15.040  0.00  0.00    +0.000 N 
ATOM     15  H   UNL     1       5.439   3.523  15.573  0.00  0.00    +0.000 HD
BRANCH  14  16
ATOM     16  C   UNL     1       5.483   4.506  13.676  0.00  0.00    +0.000 C 
BRANCH  16  17
ATOM     17  C   UNL     1       5.743   3.322  12.722  0.00  0.00    +0.000 C 
ATOM     18  C   UNL     1       4.598   3.190  11.712  0.00  0.00    +0.000 C 
BRANCH  17  19
ATOM     19  C   UNL     1       7.099   3.508  12.009  0.00  0.00    +0.000 C 
ATOM     20  C   UNL     1       7.480   4.969  11.798  0.00  0.00    +0.000 C 
ENDBRANCH  17  19
ENDBRANCH  16  17
ENDBRANCH  14  16
ENDBRANCH  11  12
ENDBRANCH   1  11
TORSDOF 13
ENDMDL
