MODEL 1
REMARK VINA RESULT:      -8.3      0.000      0.000
REMARK  Name = 
REMARK  7 active torsions:
REMARK  status: ('A' for Active; 'I' for Inactive)
REMARK    1  A    between atoms: C_1  and  O_2
REMARK    2  A    between atoms: O_2  and  C_3
REMARK    3  A    between atoms: C_6  and  C_7
REMARK    4  A    between atoms: C_7  and  C_8
REMARK    5  A    between atoms: C_10  and  C_11
REMARK    6  A    between atoms: C_15  and  C_17
REMARK    7  A    between atoms: C_20  and  N_21
REMARK                            x       y       z     vdW  Elec       q    Type
REMARK                         _______ _______ _______ _____ _____    ______ ____
ROOT
ATOM      1  C   UNL     1       1.976   8.523  18.559  0.00  0.00    +0.000 A 
ATOM      2  C   UNL     1       1.128   9.543  18.171  0.00  0.00    +0.000 A 
ATOM      3  C   UNL     1       0.484  10.224  19.181  0.00  0.00    +0.000 A 
ATOM      4  N   UNL     1       0.613   9.861  20.471  0.00  0.00    +0.000 NA
ATOM      5  C   UNL     1       1.393   8.816  20.750  0.00  0.00    +0.000 A 
ATOM      6  N   UNL     1       1.502   8.447  22.074  0.00  0.00    +0.000 N 
ATOM      7  N   UNL     1       2.112   8.147  19.850  0.00  0.00    +0.000 NA
ATOM      8  H   UNL     1       1.293   9.238  22.666  0.00  0.00    +0.000 HD
ATOM      9  H   UNL     1       2.384   7.977  22.223  0.00  0.00    +0.000 HD
ENDROOT
BRANCH   3  10
ATOM     10  C   UNL     1      -0.388  11.422  18.856  0.00  0.00    +0.000 C 
ATOM     11  C   UNL     1       0.198  12.750  19.369  0.00  0.00    +0.000 C 
ATOM     12  C   UNL     1       0.018  12.960  20.873  0.00  0.00    +0.000 C 
ATOM     13  N   UNL     1      -1.373  12.744  21.275  0.00  0.00    +0.000 N 
ATOM     14  C   UNL     1      -2.013  13.739  22.023  0.00  0.00    +0.000 C 
ATOM     15  O   UNL     1      -1.509  14.839  22.247  0.00  0.00    +0.000 OA
ATOM     16  C   UNL     1      -1.934  11.453  20.866  0.00  0.00    +0.000 C 
ATOM     17  C   UNL     1      -1.813  11.227  19.368  0.00  0.00    +0.000 C 
BRANCH  14  18
ATOM     18  C   UNL     1      -3.389  13.506  22.557  0.00  0.00    +0.000 A 
ATOM     19  C   UNL     1      -3.625  13.168  23.891  0.00  0.00    +0.000 A 
ATOM     20  C   UNL     1      -4.905  12.819  24.321  0.00  0.00    +0.000 A 
ATOM     21  C   UNL     1      -5.982  12.943  23.436  0.00  0.00    +0.000 A 
ATOM     22  C   UNL     1      -5.779  13.392  22.125  0.00  0.00    +0.000 A 
ATOM     23  C   UNL     1      -4.476  13.658  21.682  0.00  0.00    +0.000 A 
BRANCH  21  24
ATOM     24  N   UNL     1      -7.331  12.620  23.910  0.00  0.00    +0.000 N 
ATOM     25  O   UNL     1      -7.823  11.537  23.561  0.00  0.00    +0.000 OA
ATOM     26  O   UNL     1      -7.904  13.454  24.633  0.00  0.00    +0.000 OA
ENDBRANCH  21  24
ENDBRANCH  14  18
ENDBRANCH   3  10
BRANCH   1  27
ATOM     27  C   UNL     1       2.862   7.851  17.539  0.00  0.00    +0.000 C 
BRANCH  27  31
ATOM     28  C   UNL     1       3.901   3.792  18.591  0.00  0.00    +0.000 A 
ATOM     29  C   UNL     1       4.890   4.770  18.488  0.00  0.00    +0.000 A 
ATOM     30  C   UNL     1       4.561   6.076  18.121  0.00  0.00    +0.000 A 
ATOM     31  C   UNL     1       3.234   6.420  17.832  0.00  0.00    +0.000 A 
ATOM     32  C   UNL     1       2.251   5.422  17.898  0.00  0.00    +0.000 A 
ATOM     33  C   UNL     1       2.583   4.116  18.275  0.00  0.00    +0.000 A 
BRANCH  28  35
ATOM     34  C   UNL     1       3.564   1.455  18.520  0.00  0.00    +0.000 C 
ATOM     35  O   UNL     1       4.344   2.555  18.975  0.00  0.00    +0.000 OA
ENDBRANCH  28  35
ENDBRANCH  27  31
ENDBRANCH   1  27
TORSDOF 6
ENDMDL
MODEL 2
REMARK VINA RESULT:      -8.1      3.739     11.685
REMARK  Name = 
REMARK  7 active torsions:
REMARK  status: ('A' for Active; 'I' for Inactive)
REMARK    1  A    between atoms: C_1  and  O_2
REMARK    2  A    between atoms: O_2  and  C_3
REMARK    3  A    between atoms: C_6  and  C_7
REMARK    4  A    between atoms: C_7  and  C_8
REMARK    5  A    between atoms: C_10  and  C_11
REMARK    6  A    between atoms: C_15  and  C_17
REMARK    7  A    between atoms: C_20  and  N_21
REMARK                            x       y       z     vdW  Elec       q    Type
REMARK                         _______ _______ _______ _____ _____    ______ ____
ROOT
ATOM      1  C   UNL     1       1.087   9.361  19.221  0.00  0.00    +0.000 A 
ATOM      2  C   UNL     1       1.419   8.088  18.801  0.00  0.00    +0.000 A 
ATOM      3  C   UNL     1       1.675   7.162  19.789  0.00  0.00    +0.000 A 
ATOM      4  N   UNL     1       1.679   7.502  21.092  0.00  0.00    +0.000 NA
ATOM      5  C   UNL     1       1.422   8.772  21.405  0.00  0.00    +0.000 A 
ATOM      6  N   UNL     1       1.445   9.109  22.742  0.00  0.00    +0.000 N 
ATOM      7  N   UNL     1       1.090   9.716  20.525  0.00  0.00    +0.000 NA
ATOM      8  H   UNL     1       1.273   8.287  23.303  0.00  0.00    +0.000 HD
ATOM      9  H   UNL     1       0.851   9.910  22.900  0.00  0.00    +0.000 HD
ENDROOT
BRANCH   3  10
ATOM     10  C   UNL     1       1.950   5.715  19.424  0.00  0.00    +0.000 C 
ATOM     11  C   UNL     1       3.093   5.094  20.248  0.00  0.00    +0.000 C 
ATOM     12  C   UNL     1       4.485   5.529  19.788  0.00  0.00    +0.000 C 
ATOM     13  N   UNL     1       4.646   5.353  18.344  0.00  0.00    +0.000 N 
ATOM     14  C   UNL     1       5.756   4.640  17.878  0.00  0.00    +0.000 C 
ATOM     15  O   UNL     1       6.531   4.043  18.624  0.00  0.00    +0.000 OA
ATOM     16  C   UNL     1       3.612   6.001  17.531  0.00  0.00    +0.000 C 
ATOM     17  C   UNL     1       2.214   5.559  17.929  0.00  0.00    +0.000 C 
BRANCH  14  18
ATOM     18  C   UNL     1       6.022   4.543  16.411  0.00  0.00    +0.000 A 
ATOM     19  C   UNL     1       5.237   3.761  15.561  0.00  0.00    +0.000 A 
ATOM     20  C   UNL     1       5.598   3.582  14.225  0.00  0.00    +0.000 A 
ATOM     21  C   UNL     1       6.678   4.302  13.705  0.00  0.00    +0.000 A 
ATOM     22  C   UNL     1       7.406   5.181  14.517  0.00  0.00    +0.000 A 
ATOM     23  C   UNL     1       7.085   5.288  15.877  0.00  0.00    +0.000 A 
BRANCH  21  24
ATOM     24  N   UNL     1       7.021   4.145  12.288  0.00  0.00    +0.000 N 
ATOM     25  O   UNL     1       6.671   3.099  11.722  0.00  0.00    +0.000 OA
ATOM     26  O   UNL     1       7.643   5.069  11.738  0.00  0.00    +0.000 OA
ENDBRANCH  21  24
ENDBRANCH  14  18
ENDBRANCH   3  10
BRANCH   1  27
ATOM     27  C   UNL     1       0.610  10.384  18.219  0.00  0.00    +0.000 C 
BRANCH  27  31
ATOM     28  C   UNL     1      -3.638  11.026  17.768  0.00  0.00    +0.000 A 
ATOM     29  C   UNL     1      -2.911  11.754  18.710  0.00  0.00    +0.000 A 
ATOM     30  C   UNL     1      -1.543  11.529  18.878  0.00  0.00    +0.000 A 
ATOM     31  C   UNL     1      -0.884  10.555  18.115  0.00  0.00    +0.000 A 
ATOM     32  C   UNL     1      -1.630   9.799  17.199  0.00  0.00    +0.000 A 
ATOM     33  C   UNL     1      -2.999  10.033  17.028  0.00  0.00    +0.000 A 
BRANCH  28  35
ATOM     34  C   UNL     1      -5.430  12.295  18.640  0.00  0.00    +0.000 C 
ATOM     35  O   UNL     1      -4.966  11.347  17.685  0.00  0.00    +0.000 OA
ENDBRANCH  28  35
ENDBRANCH  27  31
ENDBRANCH   1  27
TORSDOF 6
ENDMDL
MODEL 3
REMARK VINA RESULT:      -8.1      0.506      1.079
REMARK  Name = 
REMARK  7 active torsions:
REMARK  status: ('A' for Active; 'I' for Inactive)
REMARK    1  A    between atoms: C_1  and  O_2
REMARK    2  A    between atoms: O_2  and  C_3
REMARK    3  A    between atoms: C_6  and  C_7
REMARK    4  A    between atoms: C_7  and  C_8
REMARK    5  A    between atoms: C_10  and  C_11
REMARK    6  A    between atoms: C_15  and  C_17
REMARK    7  A    between atoms: C_20  and  N_21
REMARK                            x       y       z     vdW  Elec       q    Type
REMARK                         _______ _______ _______ _____ _____    ______ ____
ROOT
ATOM      1  C   UNL     1       2.067   8.611  18.400  0.00  0.00    +0.000 A 
ATOM      2  C   UNL     1       1.225   9.638  18.020  0.00  0.00    +0.000 A 
ATOM      3  C   UNL     1       0.472  10.217  19.018  0.00  0.00    +0.000 A 
ATOM      4  N   UNL     1       0.497   9.751  20.282  0.00  0.00    +0.000 NA
ATOM      5  C   UNL     1       1.282   8.706  20.545  0.00  0.00    +0.000 A 
ATOM      6  N   UNL     1       1.285   8.230  21.839  0.00  0.00    +0.000 N 
ATOM      7  N   UNL     1       2.099   8.132  19.663  0.00  0.00    +0.000 NA
ATOM      8  H   UNL     1       1.000   8.964  22.472  0.00  0.00    +0.000 HD
ATOM      9  H   UNL     1       2.164   7.771  22.029  0.00  0.00    +0.000 HD
ENDROOT
BRANCH   3  10
ATOM     10  C   UNL     1      -0.406  11.416  18.713  0.00  0.00    +0.000 C 
ATOM     11  C   UNL     1       0.216  12.748  19.171  0.00  0.00    +0.000 C 
ATOM     12  C   UNL     1       0.111  12.988  20.678  0.00  0.00    +0.000 C 
ATOM     13  N   UNL     1      -1.260  12.793  21.151  0.00  0.00    +0.000 N 
ATOM     14  C   UNL     1      -1.855  13.807  21.910  0.00  0.00    +0.000 C 
ATOM     15  O   UNL     1      -1.332  14.906  22.088  0.00  0.00    +0.000 OA
ATOM     16  C   UNL     1      -1.851  11.499  20.795  0.00  0.00    +0.000 C 
ATOM     17  C   UNL     1      -1.805  11.244  19.298  0.00  0.00    +0.000 C 
BRANCH  14  18
ATOM     18  C   UNL     1      -3.205  13.596  22.515  0.00  0.00    +0.000 A 
ATOM     19  C   UNL     1      -3.377  13.013  23.772  0.00  0.00    +0.000 A 
ATOM     20  C   UNL     1      -4.653  12.702  24.243  0.00  0.00    +0.000 A 
ATOM     21  C   UNL     1      -5.772  13.105  23.506  0.00  0.00    +0.000 A 
ATOM     22  C   UNL     1      -5.618  13.795  22.297  0.00  0.00    +0.000 A 
ATOM     23  C   UNL     1      -4.331  14.026  21.794  0.00  0.00    +0.000 A 
BRANCH  21  24
ATOM     24  N   UNL     1      -7.109  12.817  24.031  0.00  0.00    +0.000 N 
ATOM     25  O   UNL     1      -7.754  13.756  24.520  0.00  0.00    +0.000 OA
ATOM     26  O   UNL     1      -7.520  11.645  23.958  0.00  0.00    +0.000 OA
ENDBRANCH  21  24
ENDBRANCH  14  18
ENDBRANCH   3  10
BRANCH   1  27
ATOM     27  C   UNL     1       3.060   8.048  17.413  0.00  0.00    +0.000 C 
BRANCH  27  31
ATOM     28  C   UNL     1       3.834   3.801  17.599  0.00  0.00    +0.000 A 
ATOM     29  C   UNL     1       2.616   4.316  18.042  0.00  0.00    +0.000 A 
ATOM     30  C   UNL     1       2.374   5.692  18.010  0.00  0.00    +0.000 A 
ATOM     31  C   UNL     1       3.358   6.575  17.548  0.00  0.00    +0.000 A 
ATOM     32  C   UNL     1       4.595   6.053  17.142  0.00  0.00    +0.000 A 
ATOM     33  C   UNL     1       4.831   4.674  17.168  0.00  0.00    +0.000 A 
BRANCH  28  35
ATOM     34  C   UNL     1       2.894   1.767  18.348  0.00  0.00    +0.000 C 
ATOM     35  O   UNL     1       3.947   2.438  17.664  0.00  0.00    +0.000 OA
ENDBRANCH  28  35
ENDBRANCH  27  31
ENDBRANCH   1  27
TORSDOF 6
ENDMDL
MODEL 4
REMARK VINA RESULT:      -8.1      2.614     10.846
REMARK  Name = 
REMARK  7 active torsions:
REMARK  status: ('A' for Active; 'I' for Inactive)
REMARK    1  A    between atoms: C_1  and  O_2
REMARK    2  A    between atoms: O_2  and  C_3
REMARK    3  A    between atoms: C_6  and  C_7
REMARK    4  A    between atoms: C_7  and  C_8
REMARK    5  A    between atoms: C_10  and  C_11
REMARK    6  A    between atoms: C_15  and  C_17
REMARK    7  A    between atoms: C_20  and  N_21
REMARK                            x       y       z     vdW  Elec       q    Type
REMARK                         _______ _______ _______ _____ _____    ______ ____
ROOT
ATOM      1  C   UNL     1       0.500  13.251  20.419  0.00  0.00    +0.000 A 
ATOM      2  C   UNL     1      -0.050  12.029  20.085  0.00  0.00    +0.000 A 
ATOM      3  C   UNL     1       0.588  11.319  19.090  0.00  0.00    +0.000 A 
ATOM      4  N   UNL     1       1.644  11.828  18.426  0.00  0.00    +0.000 NA
ATOM      5  C   UNL     1       2.062  13.048  18.763  0.00  0.00    +0.000 A 
ATOM      6  N   UNL     1       3.134  13.562  18.063  0.00  0.00    +0.000 N 
ATOM      7  N   UNL     1       1.557  13.774  19.759  0.00  0.00    +0.000 NA
ATOM      8  H   UNL     1       3.680  12.807  17.674  0.00  0.00    +0.000 HD
ATOM      9  H   UNL     1       3.620  14.237  18.636  0.00  0.00    +0.000 HD
ENDROOT
BRANCH   3  10
ATOM     10  C   UNL     1       0.115   9.925  18.725  0.00  0.00    +0.000 C 
ATOM     11  C   UNL     1       0.094   8.963  19.927  0.00  0.00    +0.000 C 
ATOM     12  C   UNL     1       1.478   8.447  20.323  0.00  0.00    +0.000 C 
ATOM     13  N   UNL     1       2.197   7.915  19.164  0.00  0.00    +0.000 N 
ATOM     14  C   UNL     1       2.740   6.628  19.249  0.00  0.00    +0.000 C 
ATOM     15  O   UNL     1       2.531   5.873  20.198  0.00  0.00    +0.000 OA
ATOM     16  C   UNL     1       2.300   8.840  18.032  0.00  0.00    +0.000 C 
ATOM     17  C   UNL     1       0.938   9.341  17.580  0.00  0.00    +0.000 C 
BRANCH  14  18
ATOM     18  C   UNL     1       3.585   6.097  18.137  0.00  0.00    +0.000 A 
ATOM     19  C   UNL     1       3.457   4.790  17.662  0.00  0.00    +0.000 A 
ATOM     20  C   UNL     1       4.355   4.284  16.722  0.00  0.00    +0.000 A 
ATOM     21  C   UNL     1       5.305   5.140  16.152  0.00  0.00    +0.000 A 
ATOM     22  C   UNL     1       5.370   6.486  16.533  0.00  0.00    +0.000 A 
ATOM     23  C   UNL     1       4.518   6.959  17.540  0.00  0.00    +0.000 A 
BRANCH  21  24
ATOM     24  N   UNL     1       6.213   4.613  15.130  0.00  0.00    +0.000 N 
ATOM     25  O   UNL     1       5.712   4.140  14.100  0.00  0.00    +0.000 OA
ATOM     26  O   UNL     1       7.434   4.670  15.357  0.00  0.00    +0.000 OA
ENDBRANCH  21  24
ENDBRANCH  14  18
ENDBRANCH   3  10
BRANCH   1  27
ATOM     27  C   UNL     1      -0.018  14.007  21.619  0.00  0.00    +0.000 C 
BRANCH  27  31
ATOM     28  C   UNL     1      -4.003  12.805  22.779  0.00  0.00    +0.000 A 
ATOM     29  C   UNL     1      -3.813  13.674  21.704  0.00  0.00    +0.000 A 
ATOM     30  C   UNL     1      -2.528  14.086  21.344  0.00  0.00    +0.000 A 
ATOM     31  C   UNL     1      -1.412  13.648  22.069  0.00  0.00    +0.000 A 
ATOM     32  C   UNL     1      -1.615  12.808  23.174  0.00  0.00    +0.000 A 
ATOM     33  C   UNL     1      -2.903  12.389  23.526  0.00  0.00    +0.000 A 
BRANCH  28  35
ATOM     34  C   UNL     1      -6.284  13.242  22.348  0.00  0.00    +0.000 C 
ATOM     35  O   UNL     1      -5.305  12.460  23.023  0.00  0.00    +0.000 OA
ENDBRANCH  28  35
ENDBRANCH  27  31
ENDBRANCH   1  27
TORSDOF 6
ENDMDL
MODEL 5
REMARK VINA RESULT:      -8.0      3.772     11.492
REMARK  Name = 
REMARK  7 active torsions:
REMARK  status: ('A' for Active; 'I' for Inactive)
REMARK    1  A    between atoms: C_1  and  O_2
REMARK    2  A    between atoms: O_2  and  C_3
REMARK    3  A    between atoms: C_6  and  C_7
REMARK    4  A    between atoms: C_7  and  C_8
REMARK    5  A    between atoms: C_10  and  C_11
REMARK    6  A    between atoms: C_15  and  C_17
REMARK    7  A    between atoms: C_20  and  N_21
REMARK                            x       y       z     vdW  Elec       q    Type
REMARK                         _______ _______ _______ _____ _____    ______ ____
ROOT
ATOM      1  C   UNL     1       1.008   9.826  19.643  0.00  0.00    +0.000 A 
ATOM      2  C   UNL     1       1.205   8.593  19.051  0.00  0.00    +0.000 A 
ATOM      3  C   UNL     1       1.444   7.535  19.901  0.00  0.00    +0.000 A 
ATOM      4  N   UNL     1       1.559   7.709  21.231  0.00  0.00    +0.000 NA
ATOM      5  C   UNL     1       1.430   8.947  21.711  0.00  0.00    +0.000 A 
ATOM      6  N   UNL     1       1.567   9.112  23.073  0.00  0.00    +0.000 N 
ATOM      7  N   UNL     1       1.124  10.015  20.976  0.00  0.00    +0.000 NA
ATOM      8  H   UNL     1       1.361   8.242  23.544  0.00  0.00    +0.000 HD
ATOM      9  H   UNL     1       1.052   9.930  23.368  0.00  0.00    +0.000 HD
ENDROOT
BRANCH   3  10
ATOM     10  C   UNL     1       1.573   6.128  19.348  0.00  0.00    +0.000 C 
ATOM     11  C   UNL     1       2.479   5.226  20.205  0.00  0.00    +0.000 C 
ATOM     12  C   UNL     1       3.972   5.495  20.011  0.00  0.00    +0.000 C 
ATOM     13  N   UNL     1       4.330   5.500  18.592  0.00  0.00    +0.000 N 
ATOM     14  C   UNL     1       5.392   4.692  18.169  0.00  0.00    +0.000 C 
ATOM     15  O   UNL     1       5.953   3.882  18.905  0.00  0.00    +0.000 OA
ATOM     16  C   UNL     1       3.533   6.409  17.764  0.00  0.00    +0.000 C 
ATOM     17  C   UNL     1       2.043   6.142  17.896  0.00  0.00    +0.000 C 
BRANCH  14  18
ATOM     18  C   UNL     1       5.867   4.760  16.754  0.00  0.00    +0.000 A 
ATOM     19  C   UNL     1       5.242   4.057  15.722  0.00  0.00    +0.000 A 
ATOM     20  C   UNL     1       5.795   4.031  14.442  0.00  0.00    +0.000 A 
ATOM     21  C   UNL     1       6.910   4.828  14.161  0.00  0.00    +0.000 A 
ATOM     22  C   UNL     1       7.480   5.631  15.157  0.00  0.00    +0.000 A 
ATOM     23  C   UNL     1       6.966   5.582  16.460  0.00  0.00    +0.000 A 
BRANCH  21  24
ATOM     24  N   UNL     1       7.456   4.832  12.801  0.00  0.00    +0.000 N 
ATOM     25  O   UNL     1       8.297   5.697  12.518  0.00  0.00    +0.000 OA
ATOM     26  O   UNL     1       7.042   3.966  12.010  0.00  0.00    +0.000 OA
ENDBRANCH  21  24
ENDBRANCH  14  18
ENDBRANCH   3  10
BRANCH   1  27
ATOM     27  C   UNL     1       0.556  10.999  18.808  0.00  0.00    +0.000 C 
BRANCH  27  31
ATOM     28  C   UNL     1      -3.662  10.889  17.878  0.00  0.00    +0.000 A 
ATOM     29  C   UNL     1      -2.771  10.046  17.214  0.00  0.00    +0.000 A 
ATOM     30  C   UNL     1      -1.403  10.099  17.492  0.00  0.00    +0.000 A 
ATOM     31  C   UNL     1      -0.904  11.013  18.430  0.00  0.00    +0.000 A 
ATOM     32  C   UNL     1      -1.800  11.885  19.064  0.00  0.00    +0.000 A 
ATOM     33  C   UNL     1      -3.171  11.823  18.789  0.00  0.00    +0.000 A 
BRANCH  28  35
ATOM     34  C   UNL     1      -5.919  11.015  18.561  0.00  0.00    +0.000 C 
ATOM     35  O   UNL     1      -4.977  10.733  17.533  0.00  0.00    +0.000 OA
ENDBRANCH  28  35
ENDBRANCH  27  31
ENDBRANCH   1  27
TORSDOF 6
ENDMDL
MODEL 6
REMARK VINA RESULT:      -7.9      3.697     11.790
REMARK  Name = 
REMARK  7 active torsions:
REMARK  status: ('A' for Active; 'I' for Inactive)
REMARK    1  A    between atoms: C_1  and  O_2
REMARK    2  A    between atoms: O_2  and  C_3
REMARK    3  A    between atoms: C_6  and  C_7
REMARK    4  A    between atoms: C_7  and  C_8
REMARK    5  A    between atoms: C_10  and  C_11
REMARK    6  A    between atoms: C_15  and  C_17
REMARK    7  A    between atoms: C_20  and  N_21
REMARK                            x       y       z     vdW  Elec       q    Type
REMARK                         _______ _______ _______ _____ _____    ______ ____
ROOT
ATOM      1  C   UNL     1       1.281   9.083  18.916  0.00  0.00    +0.000 A 
ATOM      2  C   UNL     1       1.715   7.822  18.556  0.00  0.00    +0.000 A 
ATOM      3  C   UNL     1       1.921   6.926  19.583  0.00  0.00    +0.000 A 
ATOM      4  N   UNL     1       1.783   7.287  20.873  0.00  0.00    +0.000 NA
ATOM      5  C   UNL     1       1.434   8.548  21.133  0.00  0.00    +0.000 A 
ATOM      6  N   UNL     1       1.312   8.907  22.459  0.00  0.00    +0.000 N 
ATOM      7  N   UNL     1       1.142   9.459  20.206  0.00  0.00    +0.000 NA
ATOM      8  H   UNL     1       1.127   8.086  23.018  0.00  0.00    +0.000 HD
ATOM      9  H   UNL     1       0.666   9.679  22.543  0.00  0.00    +0.000 HD
ENDROOT
BRANCH   3  10
ATOM     10  C   UNL     1       2.301   5.490  19.277  0.00  0.00    +0.000 C 
ATOM     11  C   UNL     1       3.488   4.989  20.120  0.00  0.00    +0.000 C 
ATOM     12  C   UNL     1       4.844   5.506  19.638  0.00  0.00    +0.000 C 
ATOM     13  N   UNL     1       5.015   5.283  18.201  0.00  0.00    +0.000 N 
ATOM     14  C   UNL     1       6.175   4.635  17.760  0.00  0.00    +0.000 C 
ATOM     15  O   UNL     1       6.992   4.127  18.527  0.00  0.00    +0.000 OA
ATOM     16  C   UNL     1       3.936   5.819  17.367  0.00  0.00    +0.000 C 
ATOM     17  C   UNL     1       2.574   5.292  17.788  0.00  0.00    +0.000 C 
BRANCH  14  18
ATOM     18  C   UNL     1       6.445   4.498  16.297  0.00  0.00    +0.000 A 
ATOM     19  C   UNL     1       7.402   5.273  15.639  0.00  0.00    +0.000 A 
ATOM     20  C   UNL     1       7.529   5.220  14.251  0.00  0.00    +0.000 A 
ATOM     21  C   UNL     1       6.784   4.280  13.531  0.00  0.00    +0.000 A 
ATOM     22  C   UNL     1       5.904   3.412  14.190  0.00  0.00    +0.000 A 
ATOM     23  C   UNL     1       5.723   3.535  15.575  0.00  0.00    +0.000 A 
BRANCH  21  24
ATOM     24  N   UNL     1       6.959   4.197  12.078  0.00  0.00    +0.000 N 
ATOM     25  O   UNL     1       7.385   5.201  11.489  0.00  0.00    +0.000 OA
ATOM     26  O   UNL     1       6.668   3.124  11.522  0.00  0.00    +0.000 OA
ENDBRANCH  21  24
ENDBRANCH  14  18
ENDBRANCH   3  10
BRANCH   1  27
ATOM     27  C   UNL     1       0.853  10.064  17.852  0.00  0.00    +0.000 C 
BRANCH  27  31
ATOM     28  C   UNL     1      -3.183  11.501  18.412  0.00  0.00    +0.000 A 
ATOM     29  C   UNL     1      -2.936  10.381  17.618  0.00  0.00    +0.000 A 
ATOM     30  C   UNL     1      -1.630   9.930  17.412  0.00  0.00    +0.000 A 
ATOM     31  C   UNL     1      -0.547  10.609  17.986  0.00  0.00    +0.000 A 
ATOM     32  C   UNL     1      -0.800  11.757  18.749  0.00  0.00    +0.000 A 
ATOM     33  C   UNL     1      -2.110  12.200  18.961  0.00  0.00    +0.000 A 
BRANCH  28  35
ATOM     34  C   UNL     1      -5.433  10.797  18.260  0.00  0.00    +0.000 C 
ATOM     35  O   UNL     1      -4.503  11.834  18.552  0.00  0.00    +0.000 OA
ENDBRANCH  28  35
ENDBRANCH  27  31
ENDBRANCH   1  27
TORSDOF 6
ENDMDL
MODEL 7
REMARK VINA RESULT:      -7.9      2.672     10.882
REMARK  Name = 
REMARK  7 active torsions:
REMARK  status: ('A' for Active; 'I' for Inactive)
REMARK    1  A    between atoms: C_1  and  O_2
REMARK    2  A    between atoms: O_2  and  C_3
REMARK    3  A    between atoms: C_6  and  C_7
REMARK    4  A    between atoms: C_7  and  C_8
REMARK    5  A    between atoms: C_10  and  C_11
REMARK    6  A    between atoms: C_15  and  C_17
REMARK    7  A    between atoms: C_20  and  N_21
REMARK                            x       y       z     vdW  Elec       q    Type
REMARK                         _______ _______ _______ _____ _____    ______ ____
ROOT
ATOM      1  C   UNL     1       0.758  13.304  20.632  0.00  0.00    +0.000 A 
ATOM      2  C   UNL     1       0.158  12.106  20.296  0.00  0.00    +0.000 A 
ATOM      3  C   UNL     1       0.700  11.426  19.227  0.00  0.00    +0.000 A 
ATOM      4  N   UNL     1       1.710  11.943  18.500  0.00  0.00    +0.000 NA
ATOM      5  C   UNL     1       2.179  13.141  18.849  0.00  0.00    +0.000 A 
ATOM      6  N   UNL     1       3.201  13.665  18.086  0.00  0.00    +0.000 N 
ATOM      7  N   UNL     1       1.769  13.835  19.910  0.00  0.00    +0.000 NA
ATOM      8  H   UNL     1       3.699  12.916  17.625  0.00  0.00    +0.000 HD
ATOM      9  H   UNL     1       3.745  14.307  18.644  0.00  0.00    +0.000 HD
ENDROOT
BRANCH   3  10
ATOM     10  C   UNL     1       0.172  10.056  18.847  0.00  0.00    +0.000 C 
ATOM     11  C   UNL     1       0.129   9.077  20.034  0.00  0.00    +0.000 C 
ATOM     12  C   UNL     1       1.498   8.504  20.406  0.00  0.00    +0.000 C 
ATOM     13  N   UNL     1       2.183   7.964  19.231  0.00  0.00    +0.000 N 
ATOM     14  C   UNL     1       2.679   6.657  19.290  0.00  0.00    +0.000 C 
ATOM     15  O   UNL     1       2.454   5.896  20.230  0.00  0.00    +0.000 OA
ATOM     16  C   UNL     1       2.307   8.902  18.111  0.00  0.00    +0.000 C 
ATOM     17  C   UNL     1       0.959   9.460  17.683  0.00  0.00    +0.000 C 
BRANCH  14  18
ATOM     18  C   UNL     1       3.490   6.112  18.159  0.00  0.00    +0.000 A 
ATOM     19  C   UNL     1       3.349   4.799  17.705  0.00  0.00    +0.000 A 
ATOM     20  C   UNL     1       4.219   4.282  16.744  0.00  0.00    +0.000 A 
ATOM     21  C   UNL     1       5.151   5.130  16.136  0.00  0.00    +0.000 A 
ATOM     22  C   UNL     1       5.227   6.481  16.499  0.00  0.00    +0.000 A 
ATOM     23  C   UNL     1       4.405   6.967  17.525  0.00  0.00    +0.000 A 
BRANCH  21  24
ATOM     24  N   UNL     1       6.028   4.590  15.094  0.00  0.00    +0.000 N 
ATOM     25  O   UNL     1       6.693   5.393  14.425  0.00  0.00    +0.000 OA
ATOM     26  O   UNL     1       6.052   3.356  14.941  0.00  0.00    +0.000 OA
ENDBRANCH  21  24
ENDBRANCH  14  18
ENDBRANCH   3  10
BRANCH   1  27
ATOM     27  C   UNL     1       0.352  14.019  21.898  0.00  0.00    +0.000 C 
BRANCH  27  31
ATOM     28  C   UNL     1      -3.729  13.652  23.271  0.00  0.00    +0.000 A 
ATOM     29  C   UNL     1      -2.785  12.677  23.594  0.00  0.00    +0.000 A 
ATOM     30  C   UNL     1      -1.472  12.778  23.128  0.00  0.00    +0.000 A 
ATOM     31  C   UNL     1      -1.089  13.853  22.314  0.00  0.00    +0.000 A 
ATOM     32  C   UNL     1      -2.052  14.807  21.961  0.00  0.00    +0.000 A 
ATOM     33  C   UNL     1      -3.365  14.707  22.437  0.00  0.00    +0.000 A 
BRANCH  28  35
ATOM     34  C   UNL     1      -5.096  12.344  24.684  0.00  0.00    +0.000 C 
ATOM     35  O   UNL     1      -4.975  13.452  23.800  0.00  0.00    +0.000 OA
ENDBRANCH  28  35
ENDBRANCH  27  31
ENDBRANCH   1  27
TORSDOF 6
ENDMDL
MODEL 8
REMARK VINA RESULT:      -7.8      3.346      8.858
REMARK  Name = 
REMARK  7 active torsions:
REMARK  status: ('A' for Active; 'I' for Inactive)
REMARK    1  A    between atoms: C_1  and  O_2
REMARK    2  A    between atoms: O_2  and  C_3
REMARK    3  A    between atoms: C_6  and  C_7
REMARK    4  A    between atoms: C_7  and  C_8
REMARK    5  A    between atoms: C_10  and  C_11
REMARK    6  A    between atoms: C_15  and  C_17
REMARK    7  A    between atoms: C_20  and  N_21
REMARK                            x       y       z     vdW  Elec       q    Type
REMARK                         _______ _______ _______ _____ _____    ______ ____
ROOT
ATOM      1  C   UNL     1      -4.521  12.940  21.590  0.00  0.00    +0.000 A 
ATOM      2  C   UNL     1      -3.140  12.932  21.621  0.00  0.00    +0.000 A 
ATOM      3  C   UNL     1      -2.554  12.524  22.799  0.00  0.00    +0.000 A 
ATOM      4  N   UNL     1      -3.289  12.226  23.888  0.00  0.00    +0.000 NA
ATOM      5  C   UNL     1      -4.615  12.334  23.792  0.00  0.00    +0.000 A 
ATOM      6  N   UNL     1      -5.354  12.042  24.919  0.00  0.00    +0.000 N 
ATOM      7  N   UNL     1      -5.271  12.647  22.675  0.00  0.00    +0.000 NA
ATOM      8  H   UNL     1      -4.826  11.427  25.522  0.00  0.00    +0.000 HD
ATOM      9  H   UNL     1      -6.279  11.740  24.649  0.00  0.00    +0.000 HD
ENDROOT
BRANCH   3  10
ATOM     10  C   UNL     1      -1.046  12.388  22.894  0.00  0.00    +0.000 C 
ATOM     11  C   UNL     1      -0.295  13.364  21.971  0.00  0.00    +0.000 C 
ATOM     12  C   UNL     1      -0.293  12.941  20.502  0.00  0.00    +0.000 C 
ATOM     13  N   UNL     1       0.137  11.550  20.351  0.00  0.00    +0.000 N 
ATOM     14  C   UNL     1       1.167  11.265  19.447  0.00  0.00    +0.000 C 
ATOM     15  O   UNL     1       1.816  12.138  18.872  0.00  0.00    +0.000 OA
ATOM     16  C   UNL     1      -0.614  10.587  21.161  0.00  0.00    +0.000 C 
ATOM     17  C   UNL     1      -0.601  10.950  22.637  0.00  0.00    +0.000 C 
BRANCH  14  18
ATOM     18  C   UNL     1       1.552   9.847  19.174  0.00  0.00    +0.000 A 
ATOM     19  C   UNL     1       1.473   8.851  20.151  0.00  0.00    +0.000 A 
ATOM     20  C   UNL     1       1.973   7.572  19.904  0.00  0.00    +0.000 A 
ATOM     21  C   UNL     1       2.430   7.252  18.621  0.00  0.00    +0.000 A 
ATOM     22  C   UNL     1       2.407   8.207  17.597  0.00  0.00    +0.000 A 
ATOM     23  C   UNL     1       1.982   9.512  17.881  0.00  0.00    +0.000 A 
BRANCH  21  24
ATOM     24  N   UNL     1       2.909   5.892  18.357  0.00  0.00    +0.000 N 
ATOM     25  O   UNL     1       2.063   4.992  18.250  0.00  0.00    +0.000 OA
ATOM     26  O   UNL     1       4.136   5.720  18.258  0.00  0.00    +0.000 OA
ENDBRANCH  21  24
ENDBRANCH  14  18
ENDBRANCH   3  10
BRANCH   1  27
ATOM     27  C   UNL     1      -5.243  13.191  20.289  0.00  0.00    +0.000 C 
BRANCH  27  31
ATOM     28  C   UNL     1      -3.926  10.718  17.000  0.00  0.00    +0.000 A 
ATOM     29  C   UNL     1      -3.048  11.046  18.033  0.00  0.00    +0.000 A 
ATOM     30  C   UNL     1      -3.462  11.868  19.083  0.00  0.00    +0.000 A 
ATOM     31  C   UNL     1      -4.762  12.391  19.105  0.00  0.00    +0.000 A 
ATOM     32  C   UNL     1      -5.626  12.091  18.043  0.00  0.00    +0.000 A 
ATOM     33  C   UNL     1      -5.210  11.259  16.997  0.00  0.00    +0.000 A 
BRANCH  28  35
ATOM     34  C   UNL     1      -3.119  10.511  14.790  0.00  0.00    +0.000 C 
ATOM     35  O   UNL     1      -3.410   9.893  16.038  0.00  0.00    +0.000 OA
ENDBRANCH  28  35
ENDBRANCH  27  31
ENDBRANCH   1  27
TORSDOF 6
ENDMDL
MODEL 9
REMARK VINA RESULT:      -7.8      0.866      1.331
REMARK  Name = 
REMARK  7 active torsions:
REMARK  status: ('A' for Active; 'I' for Inactive)
REMARK    1  A    between atoms: C_1  and  O_2
REMARK    2  A    between atoms: O_2  and  C_3
REMARK    3  A    between atoms: C_6  and  C_7
REMARK    4  A    between atoms: C_7  and  C_8
REMARK    5  A    between atoms: C_10  and  C_11
REMARK    6  A    between atoms: C_15  and  C_17
REMARK    7  A    between atoms: C_20  and  N_21
REMARK                            x       y       z     vdW  Elec       q    Type
REMARK                         _______ _______ _______ _____ _____    ______ ____
ROOT
ATOM      1  C   UNL     1       2.125   8.267  18.558  0.00  0.00    +0.000 A 
ATOM      2  C   UNL     1       1.378   9.317  18.060  0.00  0.00    +0.000 A 
ATOM      3  C   UNL     1       0.686  10.070  18.984  0.00  0.00    +0.000 A 
ATOM      4  N   UNL     1       0.676   9.750  20.292  0.00  0.00    +0.000 NA
ATOM      5  C   UNL     1       1.365   8.674  20.675  0.00  0.00    +0.000 A 
ATOM      6  N   UNL     1       1.333   8.349  22.015  0.00  0.00    +0.000 N 
ATOM      7  N   UNL     1       2.121   7.933  19.867  0.00  0.00    +0.000 NA
ATOM      8  H   UNL     1       1.119   9.173  22.559  0.00  0.00    +0.000 HD
ATOM      9  H   UNL     1       2.168   7.837  22.259  0.00  0.00    +0.000 HD
ENDROOT
BRANCH   3  10
ATOM     10  C   UNL     1      -0.081  11.303  18.542  0.00  0.00    +0.000 C 
ATOM     11  C   UNL     1       0.633  12.617  18.903  0.00  0.00    +0.000 C 
ATOM     12  C   UNL     1       0.502  13.001  20.378  0.00  0.00    +0.000 C 
ATOM     13  N   UNL     1      -0.894  12.957  20.814  0.00  0.00    +0.000 N 
ATOM     14  C   UNL     1      -1.427  14.080  21.459  0.00  0.00    +0.000 C 
ATOM     15  O   UNL     1      -0.821  15.146  21.559  0.00  0.00    +0.000 OA
ATOM     16  C   UNL     1      -1.577  11.687  20.552  0.00  0.00    +0.000 C 
ATOM     17  C   UNL     1      -1.507  11.294  19.086  0.00  0.00    +0.000 C 
BRANCH  14  18
ATOM     18  C   UNL     1      -2.808  14.032  22.028  0.00  0.00    +0.000 A 
ATOM     19  C   UNL     1      -3.917  14.521  21.336  0.00  0.00    +0.000 A 
ATOM     20  C   UNL     1      -5.167  14.590  21.953  0.00  0.00    +0.000 A 
ATOM     21  C   UNL     1      -5.333  14.035  23.227  0.00  0.00    +0.000 A 
ATOM     22  C   UNL     1      -4.254  13.434  23.888  0.00  0.00    +0.000 A 
ATOM     23  C   UNL     1      -2.986  13.449  23.292  0.00  0.00    +0.000 A 
BRANCH  21  24
ATOM     24  N   UNL     1      -6.660  14.068  23.848  0.00  0.00    +0.000 N 
ATOM     25  O   UNL     1      -7.233  15.164  23.931  0.00  0.00    +0.000 OA
ATOM     26  O   UNL     1      -7.133  12.993  24.257  0.00  0.00    +0.000 OA
ENDBRANCH  21  24
ENDBRANCH  14  18
ENDBRANCH   3  10
BRANCH   1  27
ATOM     27  C   UNL     1       3.058   7.508  17.645  0.00  0.00    +0.000 C 
BRANCH  27  31
ATOM     28  C   UNL     1       3.486   3.347  18.728  0.00  0.00    +0.000 A 
ATOM     29  C   UNL     1       4.571   4.219  18.830  0.00  0.00    +0.000 A 
ATOM     30  C   UNL     1       4.443   5.558  18.454  0.00  0.00    +0.000 A 
ATOM     31  C   UNL     1       3.228   6.041  17.952  0.00  0.00    +0.000 A 
ATOM     32  C   UNL     1       2.154   5.150  17.814  0.00  0.00    +0.000 A 
ATOM     33  C   UNL     1       2.283   3.811  18.200  0.00  0.00    +0.000 A 
BRANCH  28  35
ATOM     34  C   UNL     1       4.602   1.936  20.259  0.00  0.00    +0.000 C 
ATOM     35  O   UNL     1       3.730   2.066  19.142  0.00  0.00    +0.000 OA
ENDBRANCH  28  35
ENDBRANCH  27  31
ENDBRANCH   1  27
TORSDOF 6
ENDMDL
