MODEL 1
REMARK VINA RESULT:      -6.8      0.000      0.000
REMARK  Name = 
REMARK  5 active torsions:
REMARK  status: ('A' for Active; 'I' for Inactive)
REMARK    1  A    between atoms: C_1  and  C_2
REMARK    2  A    between atoms: C_2  and  S_3
REMARK    3  A    between atoms: S_3  and  C_4
REMARK    4  A    between atoms: C_7  and  C_8
REMARK    5  A    between atoms: N_15  and  C_16
REMARK                            x       y       z     vdW  Elec       q    Type
REMARK                         _______ _______ _______ _____ _____    ______ ____
ROOT
ATOM      1  C   UNL     1       6.242   5.537  18.036  0.00  0.00    +0.000 A 
ATOM      2  N   UNL     1       6.733   4.553  18.744  0.00  0.00    +0.000 NA
ATOM      3  N   UNL     1       5.671   3.889  19.309  0.00  0.00    +0.000 NA
ATOM      4  C   UNL     1       4.542   4.458  18.924  0.00  0.00    +0.000 A 
ATOM      5  N   UNL     1       4.875   5.560  18.152  0.00  0.00    +0.000 N 
ATOM      6  C   UNL     1       4.011   6.569  17.598  0.00  0.00    +0.000 C 
ENDROOT
BRANCH   4   7
ATOM      7  C   UNL     1       3.199   3.969  19.256  0.00  0.00    +0.000 A 
ATOM      8  C   UNL     1       2.595   4.239  20.495  0.00  0.00    +0.000 A 
ATOM      9  C   UNL     1       1.319   3.757  20.799  0.00  0.00    +0.000 A 
ATOM     10  C   UNL     1       0.596   3.043  19.852  0.00  0.00    +0.000 A 
ATOM     11  C   UNL     1       1.153   2.808  18.596  0.00  0.00    +0.000 A 
ATOM     12  C   UNL     1       2.443   3.264  18.310  0.00  0.00    +0.000 A 
ATOM     13  F   UNL     1       2.941   2.992  17.097  0.00  0.00    +0.000 F 
ENDBRANCH   4   7
BRANCH   1  14
ATOM     14  S   UNL     1       7.135   6.657  17.066  0.00  0.00    +0.000 S 
BRANCH  14  16
ATOM     15  C   UNL     1       8.255   8.965  18.022  0.00  0.00    +0.000 C 
ATOM     16  C   UNL     1       8.129   7.486  18.344  0.00  0.00    +0.000 C 
ENDBRANCH  14  16
ENDBRANCH   1  14
TORSDOF 3
ENDMDL
MODEL 2
REMARK VINA RESULT:      -6.5      1.157      1.623
REMARK  Name = 
REMARK  5 active torsions:
REMARK  status: ('A' for Active; 'I' for Inactive)
REMARK    1  A    between atoms: C_1  and  C_2
REMARK    2  A    between atoms: C_2  and  S_3
REMARK    3  A    between atoms: S_3  and  C_4
REMARK    4  A    between atoms: C_7  and  C_8
REMARK    5  A    between atoms: N_15  and  C_16
REMARK                            x       y       z     vdW  Elec       q    Type
REMARK                         _______ _______ _______ _____ _____    ______ ____
ROOT
ATOM      1  C   UNL     1       6.224   5.463  18.020  0.00  0.00    +0.000 A 
ATOM      2  N   UNL     1       6.687   4.506  18.780  0.00  0.00    +0.000 NA
ATOM      3  N   UNL     1       5.604   3.836  19.297  0.00  0.00    +0.000 NA
ATOM      4  C   UNL     1       4.491   4.374  18.831  0.00  0.00    +0.000 A 
ATOM      5  N   UNL     1       4.852   5.463  18.053  0.00  0.00    +0.000 N 
ATOM      6  C   UNL     1       4.006   6.442  17.421  0.00  0.00    +0.000 C 
ENDROOT
BRANCH   4   7
ATOM      7  C   UNL     1       3.140   3.869  19.093  0.00  0.00    +0.000 A 
ATOM      8  C   UNL     1       2.636   2.725  18.452  0.00  0.00    +0.000 A 
ATOM      9  C   UNL     1       1.343   2.262  18.708  0.00  0.00    +0.000 A 
ATOM     10  C   UNL     1       0.543   2.898  19.649  0.00  0.00    +0.000 A 
ATOM     11  C   UNL     1       1.040   4.005  20.336  0.00  0.00    +0.000 A 
ATOM     12  C   UNL     1       2.322   4.483  20.052  0.00  0.00    +0.000 A 
ATOM     13  F   UNL     1       2.743   5.562  20.725  0.00  0.00    +0.000 F 
ENDBRANCH   4   7
BRANCH   1  14
ATOM     14  S   UNL     1       7.155   6.576  17.078  0.00  0.00    +0.000 S 
BRANCH  14  16
ATOM     15  C   UNL     1       8.248   8.896  18.034  0.00  0.00    +0.000 C 
ATOM     16  C   UNL     1       8.082   7.429  18.389  0.00  0.00    +0.000 C 
ENDBRANCH  14  16
ENDBRANCH   1  14
TORSDOF 3
ENDMDL
MODEL 3
REMARK VINA RESULT:      -6.5      1.361      1.793
REMARK  Name = 
REMARK  5 active torsions:
REMARK  status: ('A' for Active; 'I' for Inactive)
REMARK    1  A    between atoms: C_1  and  C_2
REMARK    2  A    between atoms: C_2  and  S_3
REMARK    3  A    between atoms: S_3  and  C_4
REMARK    4  A    between atoms: C_7  and  C_8
REMARK    5  A    between atoms: N_15  and  C_16
REMARK                            x       y       z     vdW  Elec       q    Type
REMARK                         _______ _______ _______ _____ _____    ______ ____
ROOT
ATOM      1  C   UNL     1       6.159   5.214  17.871  0.00  0.00    +0.000 A 
ATOM      2  N   UNL     1       6.657   4.322  18.687  0.00  0.00    +0.000 NA
ATOM      3  N   UNL     1       5.603   3.742  19.350  0.00  0.00    +0.000 NA
ATOM      4  C   UNL     1       4.470   4.266  18.917  0.00  0.00    +0.000 A 
ATOM      5  N   UNL     1       4.794   5.260  18.007  0.00  0.00    +0.000 N 
ATOM      6  C   UNL     1       3.925   6.198  17.346  0.00  0.00    +0.000 C 
ENDROOT
BRANCH   4   7
ATOM      7  C   UNL     1       3.131   3.833  19.332  0.00  0.00    +0.000 A 
ATOM      8  C   UNL     1       2.504   4.349  20.477  0.00  0.00    +0.000 A 
ATOM      9  C   UNL     1       1.232   3.918  20.863  0.00  0.00    +0.000 A 
ATOM     10  C   UNL     1       0.536   3.002  20.084  0.00  0.00    +0.000 A 
ATOM     11  C   UNL     1       1.117   2.514  18.914  0.00  0.00    +0.000 A 
ATOM     12  C   UNL     1       2.402   2.924  18.552  0.00  0.00    +0.000 A 
ATOM     13  F   UNL     1       2.924   2.408  17.431  0.00  0.00    +0.000 F 
ENDBRANCH   4   7
BRANCH   1  14
ATOM     14  S   UNL     1       7.039   6.197  16.752  0.00  0.00    +0.000 S 
BRANCH  14  16
ATOM     15  C   UNL     1       5.969   4.772  14.674  0.00  0.00    +0.000 C 
ATOM     16  C   UNL     1       7.286   5.015  15.392  0.00  0.00    +0.000 C 
ENDBRANCH  14  16
ENDBRANCH   1  14
TORSDOF 3
ENDMDL
MODEL 4
REMARK VINA RESULT:      -6.5      2.462      5.665
REMARK  Name = 
REMARK  5 active torsions:
REMARK  status: ('A' for Active; 'I' for Inactive)
REMARK    1  A    between atoms: C_1  and  C_2
REMARK    2  A    between atoms: C_2  and  S_3
REMARK    3  A    between atoms: S_3  and  C_4
REMARK    4  A    between atoms: C_7  and  C_8
REMARK    5  A    between atoms: N_15  and  C_16
REMARK                            x       y       z     vdW  Elec       q    Type
REMARK                         _______ _______ _______ _____ _____    ______ ____
ROOT
ATOM      1  C   UNL     1       3.256   3.291  20.350  0.00  0.00    +0.000 A 
ATOM      2  N   UNL     1       4.144   2.380  20.050  0.00  0.00    +0.000 NA
ATOM      3  N   UNL     1       5.161   3.009  19.373  0.00  0.00    +0.000 NA
ATOM      4  C   UNL     1       4.897   4.301  19.287  0.00  0.00    +0.000 A 
ATOM      5  N   UNL     1       3.649   4.509  19.853  0.00  0.00    +0.000 N 
ATOM      6  C   UNL     1       2.868   5.716  19.900  0.00  0.00    +0.000 C 
ENDROOT
BRANCH   4   7
ATOM      7  C   UNL     1       5.797   5.306  18.710  0.00  0.00    +0.000 A 
ATOM      8  C   UNL     1       7.059   5.578  19.263  0.00  0.00    +0.000 A 
ATOM      9  C   UNL     1       7.901   6.545  18.706  0.00  0.00    +0.000 A 
ATOM     10  C   UNL     1       7.524   7.221  17.553  0.00  0.00    +0.000 A 
ATOM     11  C   UNL     1       6.298   6.930  16.955  0.00  0.00    +0.000 A 
ATOM     12  C   UNL     1       5.447   5.987  17.536  0.00  0.00    +0.000 A 
ATOM     13  F   UNL     1       4.272   5.760  16.935  0.00  0.00    +0.000 F 
ENDBRANCH   4   7
BRANCH   1  14
ATOM     14  S   UNL     1       1.799   3.056  21.254  0.00  0.00    +0.000 S 
BRANCH  14  16
ATOM     15  C   UNL     1       0.961   2.268  18.770  0.00  0.00    +0.000 C 
ATOM     16  C   UNL     1       0.562   3.169  19.926  0.00  0.00    +0.000 C 
ENDBRANCH  14  16
ENDBRANCH   1  14
TORSDOF 3
ENDMDL
MODEL 5
REMARK VINA RESULT:      -6.4      2.603      5.718
REMARK  Name = 
REMARK  5 active torsions:
REMARK  status: ('A' for Active; 'I' for Inactive)
REMARK    1  A    between atoms: C_1  and  C_2
REMARK    2  A    between atoms: C_2  and  S_3
REMARK    3  A    between atoms: S_3  and  C_4
REMARK    4  A    between atoms: C_7  and  C_8
REMARK    5  A    between atoms: N_15  and  C_16
REMARK                            x       y       z     vdW  Elec       q    Type
REMARK                         _______ _______ _______ _____ _____    ______ ____
ROOT
ATOM      1  C   UNL     1       2.565   3.820  18.399  0.00  0.00    +0.000 A 
ATOM      2  N   UNL     1       3.181   3.101  17.497  0.00  0.00    +0.000 NA
ATOM      3  N   UNL     1       4.388   3.707  17.247  0.00  0.00    +0.000 NA
ATOM      4  C   UNL     1       4.510   4.776  18.014  0.00  0.00    +0.000 A 
ATOM      5  N   UNL     1       3.328   4.913  18.725  0.00  0.00    +0.000 N 
ATOM      6  C   UNL     1       2.920   5.978  19.603  0.00  0.00    +0.000 C 
ENDROOT
BRANCH   4   7
ATOM      7  C   UNL     1       5.704   5.625  18.088  0.00  0.00    +0.000 A 
ATOM      8  C   UNL     1       6.753   5.357  18.983  0.00  0.00    +0.000 A 
ATOM      9  C   UNL     1       7.879   6.182  19.047  0.00  0.00    +0.000 A 
ATOM     10  C   UNL     1       8.008   7.260  18.180  0.00  0.00    +0.000 A 
ATOM     11  C   UNL     1       7.004   7.516  17.247  0.00  0.00    +0.000 A 
ATOM     12  C   UNL     1       5.865   6.707  17.211  0.00  0.00    +0.000 A 
ATOM     13  F   UNL     1       4.920   7.009  16.311  0.00  0.00    +0.000 F 
ENDBRANCH   4   7
BRANCH   1  14
ATOM     14  S   UNL     1       1.030   3.480  19.121  0.00  0.00    +0.000 S 
BRANCH  14  16
ATOM     15  C   UNL     1       1.978   3.160  21.668  0.00  0.00    +0.000 C 
ATOM     16  C   UNL     1       1.533   2.356  20.459  0.00  0.00    +0.000 C 
ENDBRANCH  14  16
ENDBRANCH   1  14
TORSDOF 3
ENDMDL
MODEL 6
REMARK VINA RESULT:      -6.2      1.630      1.935
REMARK  Name = 
REMARK  5 active torsions:
REMARK  status: ('A' for Active; 'I' for Inactive)
REMARK    1  A    between atoms: C_1  and  C_2
REMARK    2  A    between atoms: C_2  and  S_3
REMARK    3  A    between atoms: S_3  and  C_4
REMARK    4  A    between atoms: C_7  and  C_8
REMARK    5  A    between atoms: N_15  and  C_16
REMARK                            x       y       z     vdW  Elec       q    Type
REMARK                         _______ _______ _______ _____ _____    ______ ____
ROOT
ATOM      1  C   UNL     1       5.720   4.654  16.992  0.00  0.00    +0.000 A 
ATOM      2  N   UNL     1       4.977   3.943  16.185  0.00  0.00    +0.000 NA
ATOM      3  N   UNL     1       3.953   3.414  16.933  0.00  0.00    +0.000 NA
ATOM      4  C   UNL     1       4.065   3.825  18.184  0.00  0.00    +0.000 A 
ATOM      5  N   UNL     1       5.226   4.576  18.271  0.00  0.00    +0.000 N 
ATOM      6  C   UNL     1       5.849   5.145  19.437  0.00  0.00    +0.000 C 
ENDROOT
BRANCH   4   7
ATOM      7  C   UNL     1       3.102   3.536  19.252  0.00  0.00    +0.000 A 
ATOM      8  C   UNL     1       3.454   2.787  20.387  0.00  0.00    +0.000 A 
ATOM      9  C   UNL     1       2.521   2.513  21.391  0.00  0.00    +0.000 A 
ATOM     10  C   UNL     1       1.233   3.027  21.311  0.00  0.00    +0.000 A 
ATOM     11  C   UNL     1       0.876   3.817  20.219  0.00  0.00    +0.000 A 
ATOM     12  C   UNL     1       1.803   4.060  19.202  0.00  0.00    +0.000 A 
ATOM     13  F   UNL     1       1.402   4.807  18.165  0.00  0.00    +0.000 F 
ENDBRANCH   4   7
BRANCH   1  14
ATOM     14  S   UNL     1       7.112   5.587  16.563  0.00  0.00    +0.000 S 
BRANCH  14  16
ATOM     15  C   UNL     1       7.799   8.011  17.633  0.00  0.00    +0.000 C 
ATOM     16  C   UNL     1       6.594   7.236  17.126  0.00  0.00    +0.000 C 
ENDBRANCH  14  16
ENDBRANCH   1  14
TORSDOF 3
ENDMDL
MODEL 7
REMARK VINA RESULT:      -6.2      1.484      2.092
REMARK  Name = 
REMARK  5 active torsions:
REMARK  status: ('A' for Active; 'I' for Inactive)
REMARK    1  A    between atoms: C_1  and  C_2
REMARK    2  A    between atoms: C_2  and  S_3
REMARK    3  A    between atoms: S_3  and  C_4
REMARK    4  A    between atoms: C_7  and  C_8
REMARK    5  A    between atoms: N_15  and  C_16
REMARK                            x       y       z     vdW  Elec       q    Type
REMARK                         _______ _______ _______ _____ _____    ______ ____
ROOT
ATOM      1  C   UNL     1       4.785   6.408  17.222  0.00  0.00    +0.000 A 
ATOM      2  N   UNL     1       3.931   7.346  17.541  0.00  0.00    +0.000 NA
ATOM      3  N   UNL     1       2.975   6.771  18.343  0.00  0.00    +0.000 NA
ATOM      4  C   UNL     1       3.266   5.494  18.526  0.00  0.00    +0.000 A 
ATOM      5  N   UNL     1       4.391   5.212  17.768  0.00  0.00    +0.000 N 
ATOM      6  C   UNL     1       5.031   3.944  17.538  0.00  0.00    +0.000 C 
ENDROOT
BRANCH   4   7
ATOM      7  C   UNL     1       2.520   4.580  19.397  0.00  0.00    +0.000 A 
ATOM      8  C   UNL     1       2.789   4.477  20.772  0.00  0.00    +0.000 A 
ATOM      9  C   UNL     1       2.075   3.594  21.586  0.00  0.00    +0.000 A 
ATOM     10  C   UNL     1       1.040   2.835  21.057  0.00  0.00    +0.000 A 
ATOM     11  C   UNL     1       0.718   2.958  19.706  0.00  0.00    +0.000 A 
ATOM     12  C   UNL     1       1.458   3.818  18.890  0.00  0.00    +0.000 A 
ATOM     13  F   UNL     1       1.123   3.883  17.594  0.00  0.00    +0.000 F 
ENDBRANCH   4   7
BRANCH   1  14
ATOM     14  S   UNL     1       6.220   6.597  16.274  0.00  0.00    +0.000 S 
BRANCH  14  16
ATOM     15  C   UNL     1       7.731   6.342  18.542  0.00  0.00    +0.000 C 
ATOM     16  C   UNL     1       7.327   7.365  17.495  0.00  0.00    +0.000 C 
ENDBRANCH  14  16
ENDBRANCH   1  14
TORSDOF 3
ENDMDL
MODEL 8
REMARK VINA RESULT:      -6.2      1.777      2.357
REMARK  Name = 
REMARK  5 active torsions:
REMARK  status: ('A' for Active; 'I' for Inactive)
REMARK    1  A    between atoms: C_1  and  C_2
REMARK    2  A    between atoms: C_2  and  S_3
REMARK    3  A    between atoms: S_3  and  C_4
REMARK    4  A    between atoms: C_7  and  C_8
REMARK    5  A    between atoms: N_15  and  C_16
REMARK                            x       y       z     vdW  Elec       q    Type
REMARK                         _______ _______ _______ _____ _____    ______ ____
ROOT
ATOM      1  C   UNL     1       6.110   5.209  17.978  0.00  0.00    +0.000 A 
ATOM      2  N   UNL     1       6.566   4.280  18.778  0.00  0.00    +0.000 NA
ATOM      3  N   UNL     1       5.479   3.658  19.342  0.00  0.00    +0.000 NA
ATOM      4  C   UNL     1       4.370   4.195  18.866  0.00  0.00    +0.000 A 
ATOM      5  N   UNL     1       4.739   5.238  18.031  0.00  0.00    +0.000 N 
ATOM      6  C   UNL     1       3.903   6.202  17.366  0.00  0.00    +0.000 C 
ENDROOT
BRANCH   4   7
ATOM      7  C   UNL     1       3.012   3.730  19.172  0.00  0.00    +0.000 A 
ATOM      8  C   UNL     1       2.433   2.638  18.506  0.00  0.00    +0.000 A 
ATOM      9  C   UNL     1       1.135   2.214  18.805  0.00  0.00    +0.000 A 
ATOM     10  C   UNL     1       0.408   2.836  19.811  0.00  0.00    +0.000 A 
ATOM     11  C   UNL     1       0.982   3.889  20.522  0.00  0.00    +0.000 A 
ATOM     12  C   UNL     1       2.268   4.330  20.197  0.00  0.00    +0.000 A 
ATOM     13  F   UNL     1       2.764   5.360  20.896  0.00  0.00    +0.000 F 
ENDBRANCH   4   7
BRANCH   1  14
ATOM     14  S   UNL     1       7.048   6.256  16.970  0.00  0.00    +0.000 S 
BRANCH  14  16
ATOM     15  C   UNL     1       6.138   4.920  14.761  0.00  0.00    +0.000 C 
ATOM     16  C   UNL     1       7.401   5.146  15.574  0.00  0.00    +0.000 C 
ENDBRANCH  14  16
ENDBRANCH   1  14
TORSDOF 3
ENDMDL
MODEL 9
REMARK VINA RESULT:      -6.2      3.088      5.764
REMARK  Name = 
REMARK  5 active torsions:
REMARK  status: ('A' for Active; 'I' for Inactive)
REMARK    1  A    between atoms: C_1  and  C_2
REMARK    2  A    between atoms: C_2  and  S_3
REMARK    3  A    between atoms: S_3  and  C_4
REMARK    4  A    between atoms: C_7  and  C_8
REMARK    5  A    between atoms: N_15  and  C_16
REMARK                            x       y       z     vdW  Elec       q    Type
REMARK                         _______ _______ _______ _____ _____    ______ ____
ROOT
ATOM      1  C   UNL     1       1.859   3.998  18.851  0.00  0.00    +0.000 A 
ATOM      2  N   UNL     1       1.604   3.076  17.959  0.00  0.00    +0.000 NA
ATOM      3  N   UNL     1       2.618   3.114  17.033  0.00  0.00    +0.000 NA
ATOM      4  C   UNL     1       3.495   4.040  17.379  0.00  0.00    +0.000 A 
ATOM      5  N   UNL     1       3.006   4.671  18.512  0.00  0.00    +0.000 N 
ATOM      6  C   UNL     1       3.531   5.818  19.205  0.00  0.00    +0.000 C 
ENDROOT
BRANCH   4   7
ATOM      7  C   UNL     1       4.755   4.308  16.677  0.00  0.00    +0.000 A 
ATOM      8  C   UNL     1       4.789   4.655  15.317  0.00  0.00    +0.000 A 
ATOM      9  C   UNL     1       6.000   4.898  14.662  0.00  0.00    +0.000 A 
ATOM     10  C   UNL     1       7.198   4.851  15.363  0.00  0.00    +0.000 A 
ATOM     11  C   UNL     1       7.185   4.560  16.726  0.00  0.00    +0.000 A 
ATOM     12  C   UNL     1       5.974   4.286  17.368  0.00  0.00    +0.000 A 
ATOM     13  F   UNL     1       6.019   3.989  18.674  0.00  0.00    +0.000 F 
ENDBRANCH   4   7
BRANCH   1  14
ATOM     14  S   UNL     1       0.935   4.345  20.272  0.00  0.00    +0.000 S 
BRANCH  14  16
ATOM     15  C   UNL     1       2.710   2.649  21.483  0.00  0.00    +0.000 C 
ATOM     16  C   UNL     1       1.223   2.829  21.234  0.00  0.00    +0.000 C 
ENDBRANCH  14  16
ENDBRANCH   1  14
TORSDOF 3
ENDMDL
