MODEL 1
REMARK VINA RESULT:      -8.1      0.000      0.000
REMARK  Name = 
REMARK  14 active torsions:
REMARK  status: ('A' for Active; 'I' for Inactive)
REMARK    1  A    between atoms: C_1  and  N_2
REMARK    2  A    between atoms: N_2  and  C_3
REMARK    3  A    between atoms: C_3  and  C_4
REMARK    4  A    between atoms: C_4  and  N_5
REMARK    5  A    between atoms: N_5  and  C_6
REMARK    6  A    between atoms: N_5  and  C_16
REMARK    7  A    between atoms: C_8  and  O_9
REMARK    8  A    between atoms: O_9  and  C_10
REMARK    9  A    between atoms: C_12  and  O_13
REMARK   10  A    between atoms: O_13  and  C_14
REMARK   11  A    between atoms: C_22  and  C_23
REMARK   12  A    between atoms: N_26  and  C_27
REMARK   13  A    between atoms: C_27  and  C_28
REMARK   14  A    between atoms: C_27  and  C_29
REMARK                            x       y       z     vdW  Elec       q    Type
REMARK                         _______ _______ _______ _____ _____    ______ ____
ROOT
ATOM      1  C   UNL     1       2.635   5.557  18.439  0.00  0.00    +0.000 A 
ATOM      2  C   UNL     1       2.269   5.327  19.780  0.00  0.00    +0.000 A 
ATOM      3  C   UNL     1       1.829   6.342  20.600  0.00  0.00    +0.000 A 
ATOM      4  C   UNL     1       1.712   7.636  20.135  0.00  0.00    +0.000 A 
ATOM      5  N   UNL     1       1.362   8.591  21.009  0.00  0.00    +0.000 NA
ATOM      6  C   UNL     1       1.237   9.879  20.646  0.00  0.00    +0.000 A 
ATOM      7  C   UNL     1       1.415  10.263  19.308  0.00  0.00    +0.000 A 
ATOM      8  N   UNL     1       1.787   9.288  18.394  0.00  0.00    +0.000 NA
ATOM      9  C   UNL     1       1.973   7.962  18.784  0.00  0.00    +0.000 A 
ATOM     10  C   UNL     1       2.436   6.897  17.926  0.00  0.00    +0.000 A 
ENDROOT
BRANCH   7  11
ATOM     11  C   UNL     1       1.161  11.739  19.006  0.00  0.00    +0.000 A 
ATOM     12  C   UNL     1       0.004  12.401  18.604  0.00  0.00    +0.000 A 
ATOM     13  N   UNL     1       0.261  13.733  18.481  0.00  0.00    +0.000 NA
ATOM     14  N   UNL     1       1.534  13.945  18.791  0.00  0.00    +0.000 N 
ATOM     15  C   UNL     1       2.105  12.770  19.118  0.00  0.00    +0.000 A 
BRANCH  14  16
ATOM     16  C   UNL     1       2.245  15.249  18.742  0.00  0.00    +0.000 C 
ATOM     17  C   UNL     1       3.331  15.229  17.664  0.00  0.00    +0.000 C 
ATOM     18  C   UNL     1       1.309  16.448  18.508  0.00  0.00    +0.000 C 
ENDBRANCH  14  16
ENDBRANCH   7  11
BRANCH   1  19
ATOM     19  N   UNL     1       3.254   4.465  17.674  0.00  0.00    +0.000 N 
BRANCH  19  20
ATOM     20  C   UNL     1       4.630   4.516  17.213  0.00  0.00    +0.000 A 
ATOM     21  C   UNL     1       5.686   4.603  18.140  0.00  0.00    +0.000 A 
ATOM     22  C   UNL     1       7.019   4.711  17.727  0.00  0.00    +0.000 A 
ATOM     23  C   UNL     1       7.322   4.699  16.355  0.00  0.00    +0.000 A 
ATOM     24  C   UNL     1       6.309   4.629  15.402  0.00  0.00    +0.000 A 
ATOM     25  C   UNL     1       4.969   4.569  15.830  0.00  0.00    +0.000 A 
BRANCH  22  26
ATOM     26  O   UNL     1       7.979   4.852  18.677  0.00  0.00    +0.000 OA
ATOM     27  C   UNL     1       7.868   5.619  19.819  0.00  0.00    +0.000 C 
ENDBRANCH  22  26
BRANCH  24  28
ATOM     28  O   UNL     1       6.680   4.621  14.094  0.00  0.00    +0.000 OA
ATOM     29  C   UNL     1       6.285   3.719  13.127  0.00  0.00    +0.000 C 
ENDBRANCH  24  28
ENDBRANCH  19  20
BRANCH  19  30
ATOM     30  C   UNL     1       2.419   3.303  17.266  0.00  0.00    +0.000 C 
BRANCH  30  31
ATOM     31  C   UNL     1       2.880   1.973  17.894  0.00  0.00    +0.000 C 
BRANCH  31  33
ATOM     32  C   UNL     1       0.679   2.287  18.835  0.00  0.00    +0.000 C 
ATOM     33  N   UNL     1       1.933   1.541  18.936  0.00  0.00    +0.000 NA
ATOM     34  H   UNL     1       1.710   0.526  18.801  0.00  0.00    +0.000 HD
ENDBRANCH  31  33
ENDBRANCH  30  31
ENDBRANCH  19  30
ENDBRANCH   1  19
TORSDOF 9
ENDMDL
MODEL 2
REMARK VINA RESULT:      -8.0      1.122      2.374
REMARK  Name = 
REMARK  14 active torsions:
REMARK  status: ('A' for Active; 'I' for Inactive)
REMARK    1  A    between atoms: C_1  and  N_2
REMARK    2  A    between atoms: N_2  and  C_3
REMARK    3  A    between atoms: C_3  and  C_4
REMARK    4  A    between atoms: C_4  and  N_5
REMARK    5  A    between atoms: N_5  and  C_6
REMARK    6  A    between atoms: N_5  and  C_16
REMARK    7  A    between atoms: C_8  and  O_9
REMARK    8  A    between atoms: O_9  and  C_10
REMARK    9  A    between atoms: C_12  and  O_13
REMARK   10  A    between atoms: O_13  and  C_14
REMARK   11  A    between atoms: C_22  and  C_23
REMARK   12  A    between atoms: N_26  and  C_27
REMARK   13  A    between atoms: C_27  and  C_28
REMARK   14  A    between atoms: C_27  and  C_29
REMARK                            x       y       z     vdW  Elec       q    Type
REMARK                         _______ _______ _______ _____ _____    ______ ____
ROOT
ATOM      1  C   UNL     1       3.153   5.337  18.988  0.00  0.00    +0.000 A 
ATOM      2  C   UNL     1       2.548   5.053  20.228  0.00  0.00    +0.000 A 
ATOM      3  C   UNL     1       1.808   5.992  20.912  0.00  0.00    +0.000 A 
ATOM      4  C   UNL     1       1.614   7.259  20.399  0.00  0.00    +0.000 A 
ATOM      5  N   UNL     1       0.958   8.151  21.156  0.00  0.00    +0.000 NA
ATOM      6  C   UNL     1       0.735   9.410  20.742  0.00  0.00    +0.000 A 
ATOM      7  C   UNL     1       1.136   9.821  19.462  0.00  0.00    +0.000 A 
ATOM      8  N   UNL     1       1.825   8.912  18.671  0.00  0.00    +0.000 NA
ATOM      9  C   UNL     1       2.106   7.624  19.125  0.00  0.00    +0.000 A 
ATOM     10  C   UNL     1       2.883   6.639  18.411  0.00  0.00    +0.000 A 
ENDROOT
BRANCH   7  11
ATOM     11  C   UNL     1       0.750  11.248  19.076  0.00  0.00    +0.000 A 
ATOM     12  C   UNL     1      -0.459  11.776  18.630  0.00  0.00    +0.000 A 
ATOM     13  N   UNL     1      -0.326  13.117  18.434  0.00  0.00    +0.000 NA
ATOM     14  N   UNL     1       0.919  13.464  18.739  0.00  0.00    +0.000 N 
ATOM     15  C   UNL     1       1.593  12.367  19.135  0.00  0.00    +0.000 A 
BRANCH  14  16
ATOM     16  C   UNL     1       1.506  14.824  18.621  0.00  0.00    +0.000 C 
ATOM     17  C   UNL     1       1.360  15.588  19.940  0.00  0.00    +0.000 C 
ATOM     18  C   UNL     1       2.983  14.818  18.191  0.00  0.00    +0.000 C 
ENDBRANCH  14  16
ENDBRANCH   7  11
BRANCH   1  19
ATOM     19  N   UNL     1       4.065   4.347  18.397  0.00  0.00    +0.000 N 
BRANCH  19  20
ATOM     20  C   UNL     1       5.044   4.694  17.384  0.00  0.00    +0.000 A 
ATOM     21  C   UNL     1       5.135   3.942  16.197  0.00  0.00    +0.000 A 
ATOM     22  C   UNL     1       6.106   4.216  15.226  0.00  0.00    +0.000 A 
ATOM     23  C   UNL     1       6.994   5.288  15.417  0.00  0.00    +0.000 A 
ATOM     24  C   UNL     1       6.951   6.049  16.582  0.00  0.00    +0.000 A 
ATOM     25  C   UNL     1       6.001   5.734  17.572  0.00  0.00    +0.000 A 
BRANCH  22  26
ATOM     26  O   UNL     1       6.171   3.410  14.135  0.00  0.00    +0.000 OA
ATOM     27  C   UNL     1       6.451   3.824  12.849  0.00  0.00    +0.000 C 
ENDBRANCH  22  26
BRANCH  24  28
ATOM     28  O   UNL     1       7.842   7.070  16.696  0.00  0.00    +0.000 OA
ATOM     29  C   UNL     1       7.791   8.117  17.592  0.00  0.00    +0.000 C 
ENDBRANCH  24  28
ENDBRANCH  19  20
BRANCH  19  30
ATOM     30  C   UNL     1       3.920   2.916  18.774  0.00  0.00    +0.000 C 
BRANCH  30  31
ATOM     31  C   UNL     1       2.869   2.167  17.930  0.00  0.00    +0.000 C 
BRANCH  31  33
ATOM     32  C   UNL     1       0.615   2.389  18.765  0.00  0.00    +0.000 C 
ATOM     33  N   UNL     1       1.834   1.581  18.798  0.00  0.00    +0.000 NA
ATOM     34  H   UNL     1       1.591   0.624  18.448  0.00  0.00    +0.000 HD
ENDBRANCH  31  33
ENDBRANCH  30  31
ENDBRANCH  19  30
ENDBRANCH   1  19
TORSDOF 9
ENDMDL
MODEL 3
REMARK VINA RESULT:      -7.9      2.715      3.528
REMARK  Name = 
REMARK  14 active torsions:
REMARK  status: ('A' for Active; 'I' for Inactive)
REMARK    1  A    between atoms: C_1  and  N_2
REMARK    2  A    between atoms: N_2  and  C_3
REMARK    3  A    between atoms: C_3  and  C_4
REMARK    4  A    between atoms: C_4  and  N_5
REMARK    5  A    between atoms: N_5  and  C_6
REMARK    6  A    between atoms: N_5  and  C_16
REMARK    7  A    between atoms: C_8  and  O_9
REMARK    8  A    between atoms: O_9  and  C_10
REMARK    9  A    between atoms: C_12  and  O_13
REMARK   10  A    between atoms: O_13  and  C_14
REMARK   11  A    between atoms: C_22  and  C_23
REMARK   12  A    between atoms: N_26  and  C_27
REMARK   13  A    between atoms: C_27  and  C_28
REMARK   14  A    between atoms: C_27  and  C_29
REMARK                            x       y       z     vdW  Elec       q    Type
REMARK                         _______ _______ _______ _____ _____    ______ ____
ROOT
ATOM      1  C   UNL     1       2.571   7.034  19.214  0.00  0.00    +0.000 A 
ATOM      2  C   UNL     1       2.733   7.777  18.027  0.00  0.00    +0.000 A 
ATOM      3  C   UNL     1       2.102   8.984  17.830  0.00  0.00    +0.000 A 
ATOM      4  C   UNL     1       1.286   9.530  18.801  0.00  0.00    +0.000 A 
ATOM      5  N   UNL     1       0.633  10.664  18.510  0.00  0.00    +0.000 NA
ATOM      6  C   UNL     1      -0.191  11.259  19.389  0.00  0.00    +0.000 A 
ATOM      7  C   UNL     1      -0.351  10.736  20.682  0.00  0.00    +0.000 A 
ATOM      8  N   UNL     1       0.311   9.557  20.994  0.00  0.00    +0.000 NA
ATOM      9  C   UNL     1       1.120   8.911  20.060  0.00  0.00    +0.000 A 
ATOM     10  C   UNL     1       1.782   7.644  20.265  0.00  0.00    +0.000 A 
ENDROOT
BRANCH   7  11
ATOM     11  C   UNL     1      -1.246  11.548  21.616  0.00  0.00    +0.000 A 
ATOM     12  C   UNL     1      -1.405  11.496  22.998  0.00  0.00    +0.000 A 
ATOM     13  N   UNL     1      -2.306  12.439  23.389  0.00  0.00    +0.000 NA
ATOM     14  N   UNL     1      -2.726  13.090  22.311  0.00  0.00    +0.000 N 
ATOM     15  C   UNL     1      -2.105  12.586  21.227  0.00  0.00    +0.000 A 
BRANCH  14  16
ATOM     16  C   UNL     1      -3.749  14.167  22.277  0.00  0.00    +0.000 C 
ATOM     17  C   UNL     1      -3.601  15.087  23.493  0.00  0.00    +0.000 C 
ATOM     18  C   UNL     1      -3.712  15.007  20.989  0.00  0.00    +0.000 C 
ENDBRANCH  14  16
ENDBRANCH   7  11
BRANCH   1  19
ATOM     19  N   UNL     1       3.138   5.680  19.289  0.00  0.00    +0.000 N 
BRANCH  19  20
ATOM     20  C   UNL     1       4.254   5.254  18.465  0.00  0.00    +0.000 A 
ATOM     21  C   UNL     1       5.556   5.209  19.000  0.00  0.00    +0.000 A 
ATOM     22  C   UNL     1       6.661   4.857  18.216  0.00  0.00    +0.000 A 
ATOM     23  C   UNL     1       6.471   4.505  16.869  0.00  0.00    +0.000 A 
ATOM     24  C   UNL     1       5.204   4.550  16.293  0.00  0.00    +0.000 A 
ATOM     25  C   UNL     1       4.107   4.951  17.080  0.00  0.00    +0.000 A 
BRANCH  22  26
ATOM     26  O   UNL     1       7.893   4.894  18.785  0.00  0.00    +0.000 OA
ATOM     27  C   UNL     1       8.262   5.699  19.844  0.00  0.00    +0.000 C 
ENDBRANCH  22  26
BRANCH  24  28
ATOM     28  O   UNL     1       5.099   4.195  14.985  0.00  0.00    +0.000 OA
ATOM     29  C   UNL     1       6.115   4.160  14.052  0.00  0.00    +0.000 C 
ENDBRANCH  24  28
ENDBRANCH  19  20
BRANCH  19  30
ATOM     30  C   UNL     1       2.489   4.671  20.168  0.00  0.00    +0.000 C 
BRANCH  30  31
ATOM     31  C   UNL     1       1.286   3.971  19.506  0.00  0.00    +0.000 C 
BRANCH  31  33
ATOM     32  C   UNL     1       1.550   2.757  21.576  0.00  0.00    +0.000 C 
ATOM     33  N   UNL     1       0.661   3.024  20.445  0.00  0.00    +0.000 NA
ATOM     34  H   UNL     1      -0.219   3.447  20.827  0.00  0.00    +0.000 HD
ENDBRANCH  31  33
ENDBRANCH  30  31
ENDBRANCH  19  30
ENDBRANCH   1  19
TORSDOF 9
ENDMDL
MODEL 4
REMARK VINA RESULT:      -7.8      3.534      9.329
REMARK  Name = 
REMARK  14 active torsions:
REMARK  status: ('A' for Active; 'I' for Inactive)
REMARK    1  A    between atoms: C_1  and  N_2
REMARK    2  A    between atoms: N_2  and  C_3
REMARK    3  A    between atoms: C_3  and  C_4
REMARK    4  A    between atoms: C_4  and  N_5
REMARK    5  A    between atoms: N_5  and  C_6
REMARK    6  A    between atoms: N_5  and  C_16
REMARK    7  A    between atoms: C_8  and  O_9
REMARK    8  A    between atoms: O_9  and  C_10
REMARK    9  A    between atoms: C_12  and  O_13
REMARK   10  A    between atoms: O_13  and  C_14
REMARK   11  A    between atoms: C_22  and  C_23
REMARK   12  A    between atoms: N_26  and  C_27
REMARK   13  A    between atoms: C_27  and  C_28
REMARK   14  A    between atoms: C_27  and  C_29
REMARK                            x       y       z     vdW  Elec       q    Type
REMARK                         _______ _______ _______ _____ _____    ______ ____
ROOT
ATOM      1  C   UNL     1       1.625   7.808  20.357  0.00  0.00    +0.000 A 
ATOM      2  C   UNL     1       1.301   6.547  20.897  0.00  0.00    +0.000 A 
ATOM      3  C   UNL     1       1.806   5.377  20.375  0.00  0.00    +0.000 A 
ATOM      4  C   UNL     1       2.672   5.391  19.300  0.00  0.00    +0.000 A 
ATOM      5  N   UNL     1       3.058   4.214  18.786  0.00  0.00    +0.000 NA
ATOM      6  C   UNL     1       3.888   4.132  17.734  0.00  0.00    +0.000 A 
ATOM      7  C   UNL     1       4.434   5.294  17.164  0.00  0.00    +0.000 A 
ATOM      8  N   UNL     1       4.036   6.519  17.679  0.00  0.00    +0.000 NA
ATOM      9  C   UNL     1       3.129   6.603  18.735  0.00  0.00    +0.000 A 
ATOM     10  C   UNL     1       2.597   7.828  19.282  0.00  0.00    +0.000 A 
ENDROOT
BRANCH   7  11
ATOM     11  C   UNL     1       5.430   5.067  16.029  0.00  0.00    +0.000 A 
ATOM     12  C   UNL     1       6.736   5.519  15.859  0.00  0.00    +0.000 A 
ATOM     13  N   UNL     1       7.237   5.035  14.689  0.00  0.00    +0.000 NA
ATOM     14  N   UNL     1       6.303   4.290  14.109  0.00  0.00    +0.000 N 
ATOM     15  C   UNL     1       5.205   4.282  14.890  0.00  0.00    +0.000 A 
BRANCH  14  16
ATOM     16  C   UNL     1       6.413   3.612  12.792  0.00  0.00    +0.000 C 
ATOM     17  C   UNL     1       5.028   3.430  12.164  0.00  0.00    +0.000 C 
ATOM     18  C   UNL     1       7.336   4.343  11.801  0.00  0.00    +0.000 C 
ENDBRANCH  14  16
ENDBRANCH   7  11
BRANCH   1  19
ATOM     19  N   UNL     1       0.920   8.998  20.854  0.00  0.00    +0.000 N 
BRANCH  19  20
ATOM     20  C   UNL     1       0.287   9.957  19.968  0.00  0.00    +0.000 A 
ATOM     21  C   UNL     1      -0.885   9.610  19.268  0.00  0.00    +0.000 A 
ATOM     22  C   UNL     1      -1.488  10.493  18.363  0.00  0.00    +0.000 A 
ATOM     23  C   UNL     1      -0.936  11.771  18.169  0.00  0.00    +0.000 A 
ATOM     24  C   UNL     1       0.230  12.151  18.829  0.00  0.00    +0.000 A 
ATOM     25  C   UNL     1       0.853  11.237  19.700  0.00  0.00    +0.000 A 
BRANCH  22  26
ATOM     26  O   UNL     1      -2.580  10.066  17.679  0.00  0.00    +0.000 OA
ATOM     27  C   UNL     1      -3.664  10.848  17.333  0.00  0.00    +0.000 C 
ENDBRANCH  22  26
BRANCH  24  28
ATOM     28  O   UNL     1       0.703  13.403  18.591  0.00  0.00    +0.000 OA
ATOM     29  C   UNL     1       0.205  14.586  19.096  0.00  0.00    +0.000 C 
ENDBRANCH  24  28
ENDBRANCH  19  20
BRANCH  19  30
ATOM     30  C   UNL     1       0.935   9.291  22.312  0.00  0.00    +0.000 C 
BRANCH  30  31
ATOM     31  C   UNL     1      -0.463   9.598  22.886  0.00  0.00    +0.000 C 
BRANCH  31  33
ATOM     32  C   UNL     1      -1.739  11.639  22.698  0.00  0.00    +0.000 C 
ATOM     33  N   UNL     1      -0.555  11.012  23.287  0.00  0.00    +0.000 NA
ATOM     34  H   UNL     1      -0.651  11.070  24.329  0.00  0.00    +0.000 HD
ENDBRANCH  31  33
ENDBRANCH  30  31
ENDBRANCH  19  30
ENDBRANCH   1  19
TORSDOF 9
ENDMDL
MODEL 5
REMARK VINA RESULT:      -7.7      3.537      9.465
REMARK  Name = 
REMARK  14 active torsions:
REMARK  status: ('A' for Active; 'I' for Inactive)
REMARK    1  A    between atoms: C_1  and  N_2
REMARK    2  A    between atoms: N_2  and  C_3
REMARK    3  A    between atoms: C_3  and  C_4
REMARK    4  A    between atoms: C_4  and  N_5
REMARK    5  A    between atoms: N_5  and  C_6
REMARK    6  A    between atoms: N_5  and  C_16
REMARK    7  A    between atoms: C_8  and  O_9
REMARK    8  A    between atoms: O_9  and  C_10
REMARK    9  A    between atoms: C_12  and  O_13
REMARK   10  A    between atoms: O_13  and  C_14
REMARK   11  A    between atoms: C_22  and  C_23
REMARK   12  A    between atoms: N_26  and  C_27
REMARK   13  A    between atoms: C_27  and  C_28
REMARK   14  A    between atoms: C_27  and  C_29
REMARK                            x       y       z     vdW  Elec       q    Type
REMARK                         _______ _______ _______ _____ _____    ______ ____
ROOT
ATOM      1  C   UNL     1       0.461  10.678  19.236  0.00  0.00    +0.000 A 
ATOM      2  C   UNL     1       0.328  10.316  20.592  0.00  0.00    +0.000 A 
ATOM      3  C   UNL     1       0.776   9.106  21.072  0.00  0.00    +0.000 A 
ATOM      4  C   UNL     1       1.393   8.192  20.241  0.00  0.00    +0.000 A 
ATOM      5  N   UNL     1       1.725   6.998  20.753  0.00  0.00    +0.000 NA
ATOM      6  C   UNL     1       2.317   6.045  20.015  0.00  0.00    +0.000 A 
ATOM      7  C   UNL     1       2.665   6.292  18.678  0.00  0.00    +0.000 A 
ATOM      8  N   UNL     1       2.318   7.519  18.131  0.00  0.00    +0.000 NA
ATOM      9  C   UNL     1       1.652   8.486  18.883  0.00  0.00    +0.000 A 
ATOM     10  C   UNL     1       1.181   9.755  18.381  0.00  0.00    +0.000 A 
ENDROOT
BRANCH   7  11
ATOM     11  C   UNL     1       3.409   5.162  17.970  0.00  0.00    +0.000 A 
ATOM     12  C   UNL     1       3.215   3.784  18.000  0.00  0.00    +0.000 A 
ATOM     13  N   UNL     1       4.118   3.178  17.181  0.00  0.00    +0.000 NA
ATOM     14  N   UNL     1       4.878   4.115  16.628  0.00  0.00    +0.000 N 
ATOM     15  C   UNL     1       4.476   5.321  17.074  0.00  0.00    +0.000 A 
BRANCH  14  16
ATOM     16  C   UNL     1       6.021   3.890  15.706  0.00  0.00    +0.000 C 
ATOM     17  C   UNL     1       5.628   4.243  14.268  0.00  0.00    +0.000 C 
ATOM     18  C   UNL     1       7.288   4.669  16.099  0.00  0.00    +0.000 C 
ENDBRANCH  14  16
ENDBRANCH   7  11
BRANCH   1  19
ATOM     19  N   UNL     1      -0.187  11.908  18.761  0.00  0.00    +0.000 N 
BRANCH  19  20
ATOM     20  C   UNL     1       0.509  13.180  18.690  0.00  0.00    +0.000 A 
ATOM     21  C   UNL     1       1.914  13.217  18.600  0.00  0.00    +0.000 A 
ATOM     22  C   UNL     1       2.617  14.428  18.587  0.00  0.00    +0.000 A 
ATOM     23  C   UNL     1       1.910  15.641  18.631  0.00  0.00    +0.000 A 
ATOM     24  C   UNL     1       0.521  15.652  18.735  0.00  0.00    +0.000 A 
ATOM     25  C   UNL     1      -0.172  14.428  18.795  0.00  0.00    +0.000 A 
BRANCH  22  26
ATOM     26  O   UNL     1       3.974  14.383  18.560  0.00  0.00    +0.000 OA
ATOM     27  C   UNL     1       4.787  15.211  17.813  0.00  0.00    +0.000 C 
ENDBRANCH  22  26
BRANCH  24  28
ATOM     28  O   UNL     1      -0.093  16.865  18.772  0.00  0.00    +0.000 OA
ATOM     29  C   UNL     1      -0.414  17.663  17.693  0.00  0.00    +0.000 C 
ENDBRANCH  24  28
ENDBRANCH  19  20
BRANCH  19  30
ATOM     30  C   UNL     1      -1.637  11.881  18.430  0.00  0.00    +0.000 C 
BRANCH  30  31
ATOM     31  C   UNL     1      -1.996  10.837  17.354  0.00  0.00    +0.000 C 
BRANCH  31  33
ATOM     32  C   UNL     1      -3.108  10.583  15.226  0.00  0.00    +0.000 C 
ATOM     33  N   UNL     1      -2.378  11.504  16.097  0.00  0.00    +0.000 NA
ATOM     34  H   UNL     1      -3.014  12.308  16.313  0.00  0.00    +0.000 HD
ENDBRANCH  31  33
ENDBRANCH  30  31
ENDBRANCH  19  30
ENDBRANCH   1  19
TORSDOF 9
ENDMDL
MODEL 6
REMARK VINA RESULT:      -7.7      1.043      1.294
REMARK  Name = 
REMARK  14 active torsions:
REMARK  status: ('A' for Active; 'I' for Inactive)
REMARK    1  A    between atoms: C_1  and  N_2
REMARK    2  A    between atoms: N_2  and  C_3
REMARK    3  A    between atoms: C_3  and  C_4
REMARK    4  A    between atoms: C_4  and  N_5
REMARK    5  A    between atoms: N_5  and  C_6
REMARK    6  A    between atoms: N_5  and  C_16
REMARK    7  A    between atoms: C_8  and  O_9
REMARK    8  A    between atoms: O_9  and  C_10
REMARK    9  A    between atoms: C_12  and  O_13
REMARK   10  A    between atoms: O_13  and  C_14
REMARK   11  A    between atoms: C_22  and  C_23
REMARK   12  A    between atoms: N_26  and  C_27
REMARK   13  A    between atoms: C_27  and  C_28
REMARK   14  A    between atoms: C_27  and  C_29
REMARK                            x       y       z     vdW  Elec       q    Type
REMARK                         _______ _______ _______ _____ _____    ______ ____
ROOT
ATOM      1  C   UNL     1       2.624   5.984  18.436  0.00  0.00    +0.000 A 
ATOM      2  C   UNL     1       2.208   5.738  19.760  0.00  0.00    +0.000 A 
ATOM      3  C   UNL     1       1.701   6.735  20.563  0.00  0.00    +0.000 A 
ATOM      4  C   UNL     1       1.564   8.027  20.097  0.00  0.00    +0.000 A 
ATOM      5  N   UNL     1       1.147   8.967  20.957  0.00  0.00    +0.000 NA
ATOM      6  C   UNL     1       0.997  10.252  20.593  0.00  0.00    +0.000 A 
ATOM      7  C   UNL     1       1.220  10.647  19.265  0.00  0.00    +0.000 A 
ATOM      8  N   UNL     1       1.662   9.687  18.366  0.00  0.00    +0.000 NA
ATOM      9  C   UNL     1       1.872   8.367  18.760  0.00  0.00    +0.000 A 
ATOM     10  C   UNL     1       2.405   7.321  17.919  0.00  0.00    +0.000 A 
ENDROOT
BRANCH   7  11
ATOM     11  C   UNL     1       0.934  12.116  18.957  0.00  0.00    +0.000 A 
ATOM     12  C   UNL     1      -0.259  12.767  18.657  0.00  0.00    +0.000 A 
ATOM     13  N   UNL     1      -0.020  14.096  18.479  0.00  0.00    +0.000 NA
ATOM     14  N   UNL     1       1.277  14.316  18.656  0.00  0.00    +0.000 N 
ATOM     15  C   UNL     1       1.881  13.149  18.952  0.00  0.00    +0.000 A 
BRANCH  14  16
ATOM     16  C   UNL     1       1.976  15.619  18.508  0.00  0.00    +0.000 C 
ATOM     17  C   UNL     1       0.973  16.776  18.564  0.00  0.00    +0.000 C 
ATOM     18  C   UNL     1       3.079  15.845  19.556  0.00  0.00    +0.000 C 
ENDBRANCH  14  16
ENDBRANCH   7  11
BRANCH   1  19
ATOM     19  N   UNL     1       3.310   4.916  17.695  0.00  0.00    +0.000 N 
BRANCH  19  20
ATOM     20  C   UNL     1       4.664   5.059  17.193  0.00  0.00    +0.000 A 
ATOM     21  C   UNL     1       5.592   5.871  17.873  0.00  0.00    +0.000 A 
ATOM     22  C   UNL     1       6.888   6.075  17.383  0.00  0.00    +0.000 A 
ATOM     23  C   UNL     1       7.292   5.428  16.203  0.00  0.00    +0.000 A 
ATOM     24  C   UNL     1       6.404   4.627  15.490  0.00  0.00    +0.000 A 
ATOM     25  C   UNL     1       5.089   4.468  15.967  0.00  0.00    +0.000 A 
BRANCH  22  26
ATOM     26  O   UNL     1       7.707   6.920  18.060  0.00  0.00    +0.000 OA
ATOM     27  C   UNL     1       7.911   8.251  17.758  0.00  0.00    +0.000 C 
ENDBRANCH  22  26
BRANCH  24  28
ATOM     28  O   UNL     1       6.867   4.033  14.358  0.00  0.00    +0.000 OA
ATOM     29  C   UNL     1       6.154   3.780  13.204  0.00  0.00    +0.000 C 
ENDBRANCH  24  28
ENDBRANCH  19  20
BRANCH  19  30
ATOM     30  C   UNL     1       2.562   3.676  17.357  0.00  0.00    +0.000 C 
BRANCH  30  31
ATOM     31  C   UNL     1       3.209   2.399  17.930  0.00  0.00    +0.000 C 
BRANCH  31  33
ATOM     32  C   UNL     1       4.355   2.423  20.056  0.00  0.00    +0.000 C 
ATOM     33  N   UNL     1       3.051   2.354  19.394  0.00  0.00    +0.000 NA
ATOM     34  H   UNL     1       2.493   3.184  19.706  0.00  0.00    +0.000 HD
ENDBRANCH  31  33
ENDBRANCH  30  31
ENDBRANCH  19  30
ENDBRANCH   1  19
TORSDOF 9
ENDMDL
MODEL 7
REMARK VINA RESULT:      -7.7      1.089      1.275
REMARK  Name = 
REMARK  14 active torsions:
REMARK  status: ('A' for Active; 'I' for Inactive)
REMARK    1  A    between atoms: C_1  and  N_2
REMARK    2  A    between atoms: N_2  and  C_3
REMARK    3  A    between atoms: C_3  and  C_4
REMARK    4  A    between atoms: C_4  and  N_5
REMARK    5  A    between atoms: N_5  and  C_6
REMARK    6  A    between atoms: N_5  and  C_16
REMARK    7  A    between atoms: C_8  and  O_9
REMARK    8  A    between atoms: O_9  and  C_10
REMARK    9  A    between atoms: C_12  and  O_13
REMARK   10  A    between atoms: O_13  and  C_14
REMARK   11  A    between atoms: C_22  and  C_23
REMARK   12  A    between atoms: N_26  and  C_27
REMARK   13  A    between atoms: C_27  and  C_28
REMARK   14  A    between atoms: C_27  and  C_29
REMARK                            x       y       z     vdW  Elec       q    Type
REMARK                         _______ _______ _______ _____ _____    ______ ____
ROOT
ATOM      1  C   UNL     1       2.976   5.457  19.235  0.00  0.00    +0.000 A 
ATOM      2  C   UNL     1       2.300   5.198  20.444  0.00  0.00    +0.000 A 
ATOM      3  C   UNL     1       1.542   6.157  21.076  0.00  0.00    +0.000 A 
ATOM      4  C   UNL     1       1.398   7.421  20.540  0.00  0.00    +0.000 A 
ATOM      5  N   UNL     1       0.718   8.333  21.251  0.00  0.00    +0.000 NA
ATOM      6  C   UNL     1       0.539   9.591  20.812  0.00  0.00    +0.000 A 
ATOM      7  C   UNL     1       1.016   9.980  19.551  0.00  0.00    +0.000 A 
ATOM      8  N   UNL     1       1.729   9.050  18.809  0.00  0.00    +0.000 NA
ATOM      9  C   UNL     1       1.963   7.763  19.291  0.00  0.00    +0.000 A 
ATOM     10  C   UNL     1       2.759   6.756  18.630  0.00  0.00    +0.000 A 
ENDROOT
BRANCH   7  11
ATOM     11  C   UNL     1       0.676  11.408  19.129  0.00  0.00    +0.000 A 
ATOM     12  C   UNL     1      -0.493  11.948  18.599  0.00  0.00    +0.000 A 
ATOM     13  N   UNL     1      -0.329  13.286  18.402  0.00  0.00    +0.000 NA
ATOM     14  N   UNL     1       0.897  13.619  18.788  0.00  0.00    +0.000 N 
ATOM     15  C   UNL     1       1.528  12.516  19.237  0.00  0.00    +0.000 A 
BRANCH  14  16
ATOM     16  C   UNL     1       1.509  14.970  18.700  0.00  0.00    +0.000 C 
ATOM     17  C   UNL     1       1.587  15.615  20.087  0.00  0.00    +0.000 C 
ATOM     18  C   UNL     1       2.905  14.969  18.054  0.00  0.00    +0.000 C 
ENDBRANCH  14  16
ENDBRANCH   7  11
BRANCH   1  19
ATOM     19  N   UNL     1       3.900   4.444  18.705  0.00  0.00    +0.000 N 
BRANCH  19  20
ATOM     20  C   UNL     1       4.832   4.725  17.627  0.00  0.00    +0.000 A 
ATOM     21  C   UNL     1       5.969   5.521  17.862  0.00  0.00    +0.000 A 
ATOM     22  C   UNL     1       6.856   5.857  16.831  0.00  0.00    +0.000 A 
ATOM     23  C   UNL     1       6.631   5.363  15.535  0.00  0.00    +0.000 A 
ATOM     24  C   UNL     1       5.512   4.584  15.254  0.00  0.00    +0.000 A 
ATOM     25  C   UNL     1       4.602   4.293  16.289  0.00  0.00    +0.000 A 
BRANCH  22  26
ATOM     26  O   UNL     1       7.897   6.679  17.120  0.00  0.00    +0.000 OA
ATOM     27  C   UNL     1       7.791   7.990  17.538  0.00  0.00    +0.000 C 
ENDBRANCH  22  26
BRANCH  24  28
ATOM     28  O   UNL     1       5.362   4.142  13.977  0.00  0.00    +0.000 OA
ATOM     29  C   UNL     1       6.366   3.759  13.111  0.00  0.00    +0.000 C 
ENDBRANCH  24  28
ENDBRANCH  19  20
BRANCH  19  30
ATOM     30  C   UNL     1       3.818   3.051  19.217  0.00  0.00    +0.000 C 
BRANCH  30  31
ATOM     31  C   UNL     1       3.223   2.061  18.196  0.00  0.00    +0.000 C 
BRANCH  31  33
ATOM     32  C   UNL     1       0.898   2.427  18.735  0.00  0.00    +0.000 C 
ATOM     33  N   UNL     1       1.990   1.453  18.726  0.00  0.00    +0.000 NA
ATOM     34  H   UNL     1       1.702   0.659  18.106  0.00  0.00    +0.000 HD
ENDBRANCH  31  33
ENDBRANCH  30  31
ENDBRANCH  19  30
ENDBRANCH   1  19
TORSDOF 9
ENDMDL
MODEL 8
REMARK VINA RESULT:      -7.7      3.940      9.695
REMARK  Name = 
REMARK  14 active torsions:
REMARK  status: ('A' for Active; 'I' for Inactive)
REMARK    1  A    between atoms: C_1  and  N_2
REMARK    2  A    between atoms: N_2  and  C_3
REMARK    3  A    between atoms: C_3  and  C_4
REMARK    4  A    between atoms: C_4  and  N_5
REMARK    5  A    between atoms: N_5  and  C_6
REMARK    6  A    between atoms: N_5  and  C_16
REMARK    7  A    between atoms: C_8  and  O_9
REMARK    8  A    between atoms: O_9  and  C_10
REMARK    9  A    between atoms: C_12  and  O_13
REMARK   10  A    between atoms: O_13  and  C_14
REMARK   11  A    between atoms: C_22  and  C_23
REMARK   12  A    between atoms: N_26  and  C_27
REMARK   13  A    between atoms: C_27  and  C_28
REMARK   14  A    between atoms: C_27  and  C_29
REMARK                            x       y       z     vdW  Elec       q    Type
REMARK                         _______ _______ _______ _____ _____    ______ ____
ROOT
ATOM      1  C   UNL     1       1.375   9.476  19.127  0.00  0.00    +0.000 A 
ATOM      2  C   UNL     1       1.170   8.537  20.158  0.00  0.00    +0.000 A 
ATOM      3  C   UNL     1       1.778   7.302  20.152  0.00  0.00    +0.000 A 
ATOM      4  C   UNL     1       2.633   6.932  19.133  0.00  0.00    +0.000 A 
ATOM      5  N   UNL     1       3.122   5.683  19.143  0.00  0.00    +0.000 NA
ATOM      6  C   UNL     1       3.951   5.234  18.186  0.00  0.00    +0.000 A 
ATOM      7  C   UNL     1       4.385   6.089  17.160  0.00  0.00    +0.000 A 
ATOM      8  N   UNL     1       3.880   7.381  17.132  0.00  0.00    +0.000 NA
ATOM      9  C   UNL     1       2.975   7.827  18.094  0.00  0.00    +0.000 A 
ATOM     10  C   UNL     1       2.335   9.121  18.101  0.00  0.00    +0.000 A 
ENDROOT
BRANCH   7  11
ATOM     11  C   UNL     1       5.392   5.487  16.182  0.00  0.00    +0.000 A 
ATOM     12  C   UNL     1       6.784   5.478  16.199  0.00  0.00    +0.000 A 
ATOM     13  N   UNL     1       7.248   4.793  15.117  0.00  0.00    +0.000 NA
ATOM     14  N   UNL     1       6.207   4.364  14.414  0.00  0.00    +0.000 N 
ATOM     15  C   UNL     1       5.074   4.757  15.028  0.00  0.00    +0.000 A 
BRANCH  14  16
ATOM     16  C   UNL     1       6.260   3.616  13.131  0.00  0.00    +0.000 C 
ATOM     17  C   UNL     1       4.859   3.480  12.530  0.00  0.00    +0.000 C 
ATOM     18  C   UNL     1       7.206   4.245  12.094  0.00  0.00    +0.000 C 
ENDBRANCH  14  16
ENDBRANCH   7  11
BRANCH   1  19
ATOM     19  N   UNL     1       0.567  10.703  19.111  0.00  0.00    +0.000 N 
BRANCH  19  20
ATOM     20  C   UNL     1      -0.745  10.767  18.492  0.00  0.00    +0.000 A 
ATOM     21  C   UNL     1      -1.795  11.461  19.124  0.00  0.00    +0.000 A 
ATOM     22  C   UNL     1      -3.086  11.492  18.581  0.00  0.00    +0.000 A 
ATOM     23  C   UNL     1      -3.340  10.847  17.359  0.00  0.00    +0.000 A 
ATOM     24  C   UNL     1      -2.335  10.136  16.707  0.00  0.00    +0.000 A 
ATOM     25  C   UNL     1      -1.054  10.072  17.287  0.00  0.00    +0.000 A 
BRANCH  22  26
ATOM     26  O   UNL     1      -4.061  12.131  19.277  0.00  0.00    +0.000 OA
ATOM     27  C   UNL     1      -5.358  12.322  18.846  0.00  0.00    +0.000 C 
ENDBRANCH  22  26
BRANCH  24  28
ATOM     28  O   UNL     1      -2.657   9.538  15.529  0.00  0.00    +0.000 OA
ATOM     29  C   UNL     1      -3.434  10.065  14.518  0.00  0.00    +0.000 C 
ENDBRANCH  24  28
ENDBRANCH  19  20
BRANCH  19  30
ATOM     30  C   UNL     1       1.146  11.958  19.659  0.00  0.00    +0.000 C 
BRANCH  30  31
ATOM     31  C   UNL     1       2.098  12.670  18.677  0.00  0.00    +0.000 C 
BRANCH  31  33
ATOM     32  C   UNL     1       0.430  14.388  18.984  0.00  0.00    +0.000 C 
ATOM     33  N   UNL     1       1.831  14.118  18.660  0.00  0.00    +0.000 NA
ATOM     34  H   UNL     1       2.421  14.587  19.388  0.00  0.00    +0.000 HD
ENDBRANCH  31  33
ENDBRANCH  30  31
ENDBRANCH  19  30
ENDBRANCH   1  19
TORSDOF 9
ENDMDL
MODEL 9
REMARK VINA RESULT:      -7.6      2.388      3.072
REMARK  Name = 
REMARK  14 active torsions:
REMARK  status: ('A' for Active; 'I' for Inactive)
REMARK    1  A    between atoms: C_1  and  N_2
REMARK    2  A    between atoms: N_2  and  C_3
REMARK    3  A    between atoms: C_3  and  C_4
REMARK    4  A    between atoms: C_4  and  N_5
REMARK    5  A    between atoms: N_5  and  C_6
REMARK    6  A    between atoms: N_5  and  C_16
REMARK    7  A    between atoms: C_8  and  O_9
REMARK    8  A    between atoms: O_9  and  C_10
REMARK    9  A    between atoms: C_12  and  O_13
REMARK   10  A    between atoms: O_13  and  C_14
REMARK   11  A    between atoms: C_22  and  C_23
REMARK   12  A    between atoms: N_26  and  C_27
REMARK   13  A    between atoms: C_27  and  C_28
REMARK   14  A    between atoms: C_27  and  C_29
REMARK                            x       y       z     vdW  Elec       q    Type
REMARK                         _______ _______ _______ _____ _____    ______ ____
ROOT
ATOM      1  C   UNL     1       2.860   6.627  18.763  0.00  0.00    +0.000 A 
ATOM      2  C   UNL     1       2.937   7.440  17.614  0.00  0.00    +0.000 A 
ATOM      3  C   UNL     1       2.361   8.690  17.565  0.00  0.00    +0.000 A 
ATOM      4  C   UNL     1       1.690   9.210  18.653  0.00  0.00    +0.000 A 
ATOM      5  N   UNL     1       1.077  10.395  18.509  0.00  0.00    +0.000 NA
ATOM      6  C   UNL     1       0.391  10.970  19.510  0.00  0.00    +0.000 A 
ATOM      7  C   UNL     1       0.341  10.368  20.777  0.00  0.00    +0.000 A 
ATOM      8  N   UNL     1       0.961   9.138  20.939  0.00  0.00    +0.000 NA
ATOM      9  C   UNL     1       1.624   8.515  19.882  0.00  0.00    +0.000 A 
ATOM     10  C   UNL     1       2.227   7.204  19.932  0.00  0.00    +0.000 A 
ENDROOT
BRANCH   7  11
ATOM     11  C   UNL     1      -0.397  11.160  21.855  0.00  0.00    +0.000 A 
ATOM     12  C   UNL     1      -1.087  10.734  22.987  0.00  0.00    +0.000 A 
ATOM     13  N   UNL     1      -1.562  11.816  23.665  0.00  0.00    +0.000 NA
ATOM     14  N   UNL     1      -1.200  12.913  23.011  0.00  0.00    +0.000 N 
ATOM     15  C   UNL     1      -0.493  12.557  21.921  0.00  0.00    +0.000 A 
BRANCH  14  16
ATOM     16  C   UNL     1      -1.551  14.309  23.376  0.00  0.00    +0.000 C 
ATOM     17  C   UNL     1      -0.429  15.269  22.968  0.00  0.00    +0.000 C 
ATOM     18  C   UNL     1      -2.882  14.786  22.769  0.00  0.00    +0.000 C 
ENDBRANCH  14  16
ENDBRANCH   7  11
BRANCH   1  19
ATOM     19  N   UNL     1       3.349   5.243  18.689  0.00  0.00    +0.000 N 
BRANCH  19  20
ATOM     20  C   UNL     1       4.616   4.895  18.071  0.00  0.00    +0.000 A 
ATOM     21  C   UNL     1       5.826   5.120  18.756  0.00  0.00    +0.000 A 
ATOM     22  C   UNL     1       7.066   4.847  18.165  0.00  0.00    +0.000 A 
ATOM     23  C   UNL     1       7.112   4.303  16.870  0.00  0.00    +0.000 A 
ATOM     24  C   UNL     1       5.941   4.078  16.150  0.00  0.00    +0.000 A 
ATOM     25  C   UNL     1       4.703   4.401  16.737  0.00  0.00    +0.000 A 
BRANCH  22  26
ATOM     26  O   UNL     1       8.191   5.147  18.863  0.00  0.00    +0.000 OA
ATOM     27  C   UNL     1       8.228   5.603  20.165  0.00  0.00    +0.000 C 
ENDBRANCH  22  26
BRANCH  24  28
ATOM     28  O   UNL     1       6.066   3.549  14.904  0.00  0.00    +0.000 OA
ATOM     29  C   UNL     1       6.242   4.243  13.724  0.00  0.00    +0.000 C 
ENDBRANCH  24  28
ENDBRANCH  19  20
BRANCH  19  30
ATOM     30  C   UNL     1       2.478   4.141  19.175  0.00  0.00    +0.000 C 
BRANCH  30  31
ATOM     31  C   UNL     1       1.555   3.567  18.081  0.00  0.00    +0.000 C 
BRANCH  31  33
ATOM     32  C   UNL     1       2.967   1.694  18.657  0.00  0.00    +0.000 C 
ATOM     33  N   UNL     1       1.994   2.214  17.696  0.00  0.00    +0.000 NA
ATOM     34  H   UNL     1       1.168   1.569  17.700  0.00  0.00    +0.000 HD
ENDBRANCH  31  33
ENDBRANCH  30  31
ENDBRANCH  19  30
ENDBRANCH   1  19
TORSDOF 9
ENDMDL
