MODEL 1
REMARK VINA RESULT:      -8.8      0.000      0.000
REMARK  Name = 
REMARK  10 active torsions:
REMARK  status: ('A' for Active; 'I' for Inactive)
REMARK    1  A    between atoms: C_1  and  O_2
REMARK    2  A    between atoms: O_2  and  C_3
REMARK    3  A    between atoms: C_8  and  C_9
REMARK    4  A    between atoms: C_9  and  C_10
REMARK    5  A    between atoms: C_11  and  C_12
REMARK    6  A    between atoms: C_11  and  C_13
REMARK    7  A    between atoms: C_13  and  C_14
REMARK    8  A    between atoms: C_14  and  C_15
REMARK    9  A    between atoms: C_16  and  C_17
REMARK   10  A    between atoms: C_16  and  C_18
REMARK                            x       y       z     vdW  Elec       q    Type
REMARK                         _______ _______ _______ _____ _____    ______ ____
ROOT
ATOM      1  C   UNL     1       2.192   7.895  18.602  0.00  0.00    +0.000 A 
ATOM      2  C   UNL     1       1.911   9.103  17.962  0.00  0.00    +0.000 A 
ATOM      3  C   UNL     1       1.389  10.166  18.677  0.00  0.00    +0.000 A 
ATOM      4  C   UNL     1       1.058  10.015  20.026  0.00  0.00    +0.000 A 
ATOM      5  C   UNL     1       1.273   8.796  20.666  0.00  0.00    +0.000 A 
ATOM      6  C   UNL     1       1.883   7.726  19.976  0.00  0.00    +0.000 A 
ATOM      7  O   UNL     1       0.920   8.651  21.987  0.00  0.00    +0.000 OA
ATOM      8  C   UNL     1      -0.297   9.357  22.305  0.00  0.00    +0.000 C 
ATOM      9  C   UNL     1      -0.164  10.866  22.120  0.00  0.00    +0.000 C 
ATOM     10  C   UNL     1      -1.455  11.609  22.004  0.00  0.00    +0.000 A 
ATOM     11  C   UNL     1      -2.375  12.009  22.961  0.00  0.00    +0.000 A 
ATOM     12  C   UNL     1      -3.510  12.650  22.481  0.00  0.00    +0.000 A 
ATOM     13  C   UNL     1      -3.738  12.857  21.130  0.00  0.00    +0.000 A 
ATOM     14  C   UNL     1      -2.832  12.485  20.174  0.00  0.00    +0.000 A 
ATOM     15  C   UNL     1      -1.682  11.901  20.659  0.00  0.00    +0.000 A 
ATOM     16  O   UNL     1      -0.651  11.579  19.838  0.00  0.00    +0.000 OA
ATOM     17  C   UNL     1       0.418  11.171  20.727  0.00  0.00    +0.000 C 
ATOM     18  O   UNL     1      -4.919  13.478  20.877  0.00  0.00    +0.000 OA
ATOM     19  C   UNL     1      -5.409  13.671  22.216  0.00  0.00    +0.000 C 
ATOM     20  O   UNL     1      -4.527  13.151  23.237  0.00  0.00    +0.000 OA
ENDROOT
BRANCH   1  22
ATOM     21  C   UNL     1       4.057   7.055  17.407  0.00  0.00    +0.000 C 
ATOM     22  O   UNL     1       2.754   6.829  17.937  0.00  0.00    +0.000 OA
ENDBRANCH   1  22
BRANCH   6  23
ATOM     23  C   UNL     1       2.213   6.434  20.694  0.00  0.00    +0.000 C 
BRANCH  23  24
ATOM     24  C   UNL     1       1.332   5.269  20.316  0.00  0.00    +0.000 C 
ATOM     25  C   UNL     1       1.473   3.966  20.648  0.00  0.00    +0.000 C 
ATOM     26  C   UNL     1       2.549   3.449  21.569  0.00  0.00    +0.000 C 
BRANCH  25  27
ATOM     27  C   UNL     1       0.499   2.948  20.054  0.00  0.00    +0.000 C 
BRANCH  27  28
ATOM     28  C   UNL     1       0.826   2.481  18.626  0.00  0.00    +0.000 C 
BRANCH  28  29
ATOM     29  C   UNL     1       1.958   3.220  17.961  0.00  0.00    +0.000 C 
ATOM     30  C   UNL     1       3.210   2.730  17.862  0.00  0.00    +0.000 C 
ATOM     31  C   UNL     1       3.632   1.389  18.404  0.00  0.00    +0.000 C 
ATOM     32  C   UNL     1       4.311   3.503  17.190  0.00  0.00    +0.000 C 
ENDBRANCH  28  29
ENDBRANCH  27  28
ENDBRANCH  25  27
ENDBRANCH  23  24
ENDBRANCH   6  23
TORSDOF 6
ENDMDL
MODEL 2
REMARK VINA RESULT:      -8.2      3.379      6.500
REMARK  Name = 
REMARK  10 active torsions:
REMARK  status: ('A' for Active; 'I' for Inactive)
REMARK    1  A    between atoms: C_1  and  O_2
REMARK    2  A    between atoms: O_2  and  C_3
REMARK    3  A    between atoms: C_8  and  C_9
REMARK    4  A    between atoms: C_9  and  C_10
REMARK    5  A    between atoms: C_11  and  C_12
REMARK    6  A    between atoms: C_11  and  C_13
REMARK    7  A    between atoms: C_13  and  C_14
REMARK    8  A    between atoms: C_14  and  C_15
REMARK    9  A    between atoms: C_16  and  C_17
REMARK   10  A    between atoms: C_16  and  C_18
REMARK                            x       y       z     vdW  Elec       q    Type
REMARK                         _______ _______ _______ _____ _____    ______ ____
ROOT
ATOM      1  C   UNL     1       4.194   4.270  19.354  0.00  0.00    +0.000 A 
ATOM      2  C   UNL     1       3.109   4.392  20.224  0.00  0.00    +0.000 A 
ATOM      3  C   UNL     1       2.178   5.399  20.042  0.00  0.00    +0.000 A 
ATOM      4  C   UNL     1       2.360   6.355  19.039  0.00  0.00    +0.000 A 
ATOM      5  C   UNL     1       3.472   6.286  18.201  0.00  0.00    +0.000 A 
ATOM      6  C   UNL     1       4.387   5.218  18.317  0.00  0.00    +0.000 A 
ATOM      7  O   UNL     1       3.654   7.247  17.235  0.00  0.00    +0.000 OA
ATOM      8  C   UNL     1       3.248   8.557  17.686  0.00  0.00    +0.000 C 
ATOM      9  C   UNL     1       1.757   8.629  18.006  0.00  0.00    +0.000 C 
ATOM     10  C   UNL     1       1.348   9.777  18.869  0.00  0.00    +0.000 A 
ATOM     11  C   UNL     1       1.147  11.119  18.581  0.00  0.00    +0.000 A 
ATOM     12  C   UNL     1       0.811  11.928  19.659  0.00  0.00    +0.000 A 
ATOM     13  C   UNL     1       0.707  11.444  20.954  0.00  0.00    +0.000 A 
ATOM     14  C   UNL     1       0.884  10.120  21.252  0.00  0.00    +0.000 A 
ATOM     15  C   UNL     1       1.161   9.312  20.171  0.00  0.00    +0.000 A 
ATOM     16  O   UNL     1       1.255   7.965  20.299  0.00  0.00    +0.000 OA
ATOM     17  C   UNL     1       1.368   7.470  18.942  0.00  0.00    +0.000 C 
ATOM     18  O   UNL     1       0.395  12.406  21.859  0.00  0.00    +0.000 OA
ATOM     19  C   UNL     1       0.281  13.554  20.998  0.00  0.00    +0.000 C 
ATOM     20  O   UNL     1       0.542  13.262  19.606  0.00  0.00    +0.000 OA
ENDROOT
BRANCH   1  22
ATOM     21  C   UNL     1       4.661   2.091  20.155  0.00  0.00    +0.000 C 
ATOM     22  O   UNL     1       5.116   3.256  19.474  0.00  0.00    +0.000 OA
ENDBRANCH   1  22
BRANCH   6  23
ATOM     23  C   UNL     1       5.540   5.082  17.344  0.00  0.00    +0.000 C 
BRANCH  23  24
ATOM     24  C   UNL     1       6.330   6.350  17.132  0.00  0.00    +0.000 C 
ATOM     25  C   UNL     1       7.324   6.858  17.893  0.00  0.00    +0.000 C 
ATOM     26  C   UNL     1       7.892   6.160  19.102  0.00  0.00    +0.000 C 
BRANCH  25  27
ATOM     27  C   UNL     1       7.906   8.224  17.524  0.00  0.00    +0.000 C 
BRANCH  27  28
ATOM     28  C   UNL     1       8.643   8.952  18.660  0.00  0.00    +0.000 C 
BRANCH  28  29
ATOM     29  C   UNL     1       9.148  10.328  18.310  0.00  0.00    +0.000 C 
ATOM     30  C   UNL     1       9.497  11.249  19.230  0.00  0.00    +0.000 C 
ATOM     31  C   UNL     1       9.425  11.019  20.718  0.00  0.00    +0.000 C 
ATOM     32  C   UNL     1       9.995  12.612  18.836  0.00  0.00    +0.000 C 
ENDBRANCH  28  29
ENDBRANCH  27  28
ENDBRANCH  25  27
ENDBRANCH  23  24
ENDBRANCH   6  23
TORSDOF 6
ENDMDL
MODEL 3
REMARK VINA RESULT:      -8.2      2.671      9.492
REMARK  Name = 
REMARK  10 active torsions:
REMARK  status: ('A' for Active; 'I' for Inactive)
REMARK    1  A    between atoms: C_1  and  O_2
REMARK    2  A    between atoms: O_2  and  C_3
REMARK    3  A    between atoms: C_8  and  C_9
REMARK    4  A    between atoms: C_9  and  C_10
REMARK    5  A    between atoms: C_11  and  C_12
REMARK    6  A    between atoms: C_11  and  C_13
REMARK    7  A    between atoms: C_13  and  C_14
REMARK    8  A    between atoms: C_14  and  C_15
REMARK    9  A    between atoms: C_16  and  C_17
REMARK   10  A    between atoms: C_16  and  C_18
REMARK                            x       y       z     vdW  Elec       q    Type
REMARK                         _______ _______ _______ _____ _____    ______ ____
ROOT
ATOM      1  C   UNL     1      -0.963  11.015  21.428  0.00  0.00    +0.000 A 
ATOM      2  C   UNL     1      -0.416  10.130  22.359  0.00  0.00    +0.000 A 
ATOM      3  C   UNL     1       0.591   9.259  21.986  0.00  0.00    +0.000 A 
ATOM      4  C   UNL     1       1.014   9.196  20.655  0.00  0.00    +0.000 A 
ATOM      5  C   UNL     1       0.434  10.028  19.698  0.00  0.00    +0.000 A 
ATOM      6  C   UNL     1      -0.535  10.982  20.076  0.00  0.00    +0.000 A 
ATOM      7  O   UNL     1       0.839   9.940  18.387  0.00  0.00    +0.000 OA
ATOM      8  C   UNL     1       1.120   8.579  17.995  0.00  0.00    +0.000 C 
ATOM      9  C   UNL     1       2.277   7.971  18.783  0.00  0.00    +0.000 C 
ATOM     10  C   UNL     1       2.348   6.479  18.757  0.00  0.00    +0.000 A 
ATOM     11  C   UNL     1       2.805   5.596  17.790  0.00  0.00    +0.000 A 
ATOM     12  C   UNL     1       2.673   4.246  18.089  0.00  0.00    +0.000 A 
ATOM     13  C   UNL     1       2.095   3.793  19.264  0.00  0.00    +0.000 A 
ATOM     14  C   UNL     1       1.656   4.650  20.237  0.00  0.00    +0.000 A 
ATOM     15  C   UNL     1       1.841   5.987  19.960  0.00  0.00    +0.000 A 
ATOM     16  O   UNL     1       1.553   6.946  20.876  0.00  0.00    +0.000 OA
ATOM     17  C   UNL     1       2.046   8.177  20.291  0.00  0.00    +0.000 C 
ATOM     18  O   UNL     1       2.041   2.439  19.345  0.00  0.00    +0.000 OA
ATOM     19  C   UNL     1       2.675   2.074  18.105  0.00  0.00    +0.000 C 
ATOM     20  O   UNL     1       3.078   3.209  17.304  0.00  0.00    +0.000 OA
ENDROOT
BRANCH   1  22
ATOM     21  C   UNL     1      -2.358  11.892  23.129  0.00  0.00    +0.000 C 
ATOM     22  O   UNL     1      -1.934  11.927  21.769  0.00  0.00    +0.000 OA
ENDBRANCH   1  22
BRANCH   6  23
ATOM     23  C   UNL     1      -1.093  11.957  19.060  0.00  0.00    +0.000 C 
BRANCH  23  24
ATOM     24  C   UNL     1      -2.531  11.705  18.677  0.00  0.00    +0.000 C 
ATOM     25  C   UNL     1      -3.013  10.908  17.698  0.00  0.00    +0.000 C 
ATOM     26  C   UNL     1      -2.146  10.029  16.832  0.00  0.00    +0.000 C 
BRANCH  25  27
ATOM     27  C   UNL     1      -4.519  10.896  17.435  0.00  0.00    +0.000 C 
BRANCH  27  28
ATOM     28  C   UNL     1      -5.294  12.100  17.997  0.00  0.00    +0.000 C 
BRANCH  28  29
ATOM     29  C   UNL     1      -6.124  12.849  16.988  0.00  0.00    +0.000 C 
ATOM     30  C   UNL     1      -6.757  14.008  17.258  0.00  0.00    +0.000 C 
ATOM     31  C   UNL     1      -6.715  14.695  18.598  0.00  0.00    +0.000 C 
ATOM     32  C   UNL     1      -7.578  14.721  16.219  0.00  0.00    +0.000 C 
ENDBRANCH  28  29
ENDBRANCH  27  28
ENDBRANCH  25  27
ENDBRANCH  23  24
ENDBRANCH   6  23
TORSDOF 6
ENDMDL
MODEL 4
REMARK VINA RESULT:      -8.2      2.397      9.311
REMARK  Name = 
REMARK  10 active torsions:
REMARK  status: ('A' for Active; 'I' for Inactive)
REMARK    1  A    between atoms: C_1  and  O_2
REMARK    2  A    between atoms: O_2  and  C_3
REMARK    3  A    between atoms: C_8  and  C_9
REMARK    4  A    between atoms: C_9  and  C_10
REMARK    5  A    between atoms: C_11  and  C_12
REMARK    6  A    between atoms: C_11  and  C_13
REMARK    7  A    between atoms: C_13  and  C_14
REMARK    8  A    between atoms: C_14  and  C_15
REMARK    9  A    between atoms: C_16  and  C_17
REMARK   10  A    between atoms: C_16  and  C_18
REMARK                            x       y       z     vdW  Elec       q    Type
REMARK                         _______ _______ _______ _____ _____    ______ ____
ROOT
ATOM      1  C   UNL     1      -0.837  10.926  21.235  0.00  0.00    +0.000 A 
ATOM      2  C   UNL     1      -0.490   9.962  22.182  0.00  0.00    +0.000 A 
ATOM      3  C   UNL     1       0.488   9.025  21.899  0.00  0.00    +0.000 A 
ATOM      4  C   UNL     1       1.078   8.982  20.633  0.00  0.00    +0.000 A 
ATOM      5  C   UNL     1       0.699   9.897  19.653  0.00  0.00    +0.000 A 
ATOM      6  C   UNL     1      -0.236  10.913  19.950  0.00  0.00    +0.000 A 
ATOM      7  O   UNL     1       1.267   9.829  18.403  0.00  0.00    +0.000 OA
ATOM      8  C   UNL     1       1.491   8.467  17.981  0.00  0.00    +0.000 C 
ATOM      9  C   UNL     1       2.482   7.732  18.880  0.00  0.00    +0.000 C 
ATOM     10  C   UNL     1       2.439   6.242  18.787  0.00  0.00    +0.000 A 
ATOM     11  C   UNL     1       2.951   5.364  17.843  0.00  0.00    +0.000 A 
ATOM     12  C   UNL     1       2.676   4.018  18.053  0.00  0.00    +0.000 A 
ATOM     13  C   UNL     1       1.912   3.568  19.118  0.00  0.00    +0.000 A 
ATOM     14  C   UNL     1       1.415   4.418  20.067  0.00  0.00    +0.000 A 
ATOM     15  C   UNL     1       1.739   5.746  19.887  0.00  0.00    +0.000 A 
ATOM     16  O   UNL     1       1.406   6.687  20.805  0.00  0.00    +0.000 OA
ATOM     17  C   UNL     1       2.068   7.895  20.355  0.00  0.00    +0.000 C 
ATOM     18  O   UNL     1       1.743   2.221  19.121  0.00  0.00    +0.000 OA
ATOM     19  C   UNL     1       2.506   1.855  17.956  0.00  0.00    +0.000 C 
ATOM     20  O   UNL     1       3.099   2.984  17.274  0.00  0.00    +0.000 OA
ENDROOT
BRANCH   1  22
ATOM     21  C   UNL     1      -2.147  12.044  22.861  0.00  0.00    +0.000 C 
ATOM     22  O   UNL     1      -1.771  11.903  21.494  0.00  0.00    +0.000 OA
ENDBRANCH   1  22
BRANCH   6  23
ATOM     23  C   UNL     1      -0.575  11.972  18.922  0.00  0.00    +0.000 C 
BRANCH  23  24
ATOM     24  C   UNL     1      -2.015  11.966  18.472  0.00  0.00    +0.000 C 
ATOM     25  C   UNL     1      -2.617  11.138  17.591  0.00  0.00    +0.000 C 
ATOM     26  C   UNL     1      -1.927   9.967  16.937  0.00  0.00    +0.000 C 
BRANCH  25  27
ATOM     27  C   UNL     1      -4.077  11.398  17.217  0.00  0.00    +0.000 C 
BRANCH  27  28
ATOM     28  C   UNL     1      -5.114  10.919  18.246  0.00  0.00    +0.000 C 
BRANCH  28  29
ATOM     29  C   UNL     1      -5.624  11.985  19.180  0.00  0.00    +0.000 C 
ATOM     30  C   UNL     1      -6.592  12.864  18.849  0.00  0.00    +0.000 C 
ATOM     31  C   UNL     1      -7.281  12.888  17.509  0.00  0.00    +0.000 C 
ATOM     32  C   UNL     1      -7.069  13.915  19.813  0.00  0.00    +0.000 C 
ENDBRANCH  28  29
ENDBRANCH  27  28
ENDBRANCH  25  27
ENDBRANCH  23  24
ENDBRANCH   6  23
TORSDOF 6
ENDMDL
MODEL 5
REMARK VINA RESULT:      -7.9      3.199      5.091
REMARK  Name = 
REMARK  10 active torsions:
REMARK  status: ('A' for Active; 'I' for Inactive)
REMARK    1  A    between atoms: C_1  and  O_2
REMARK    2  A    between atoms: O_2  and  C_3
REMARK    3  A    between atoms: C_8  and  C_9
REMARK    4  A    between atoms: C_9  and  C_10
REMARK    5  A    between atoms: C_11  and  C_12
REMARK    6  A    between atoms: C_11  and  C_13
REMARK    7  A    between atoms: C_13  and  C_14
REMARK    8  A    between atoms: C_14  and  C_15
REMARK    9  A    between atoms: C_16  and  C_17
REMARK   10  A    between atoms: C_16  and  C_18
REMARK                            x       y       z     vdW  Elec       q    Type
REMARK                         _______ _______ _______ _____ _____    ______ ____
ROOT
ATOM      1  C   UNL     1       1.751   6.686  20.475  0.00  0.00    +0.000 A 
ATOM      2  C   UNL     1       1.090   7.500  21.396  0.00  0.00    +0.000 A 
ATOM      3  C   UNL     1       0.715   8.785  21.049  0.00  0.00    +0.000 A 
ATOM      4  C   UNL     1       1.068   9.312  19.803  0.00  0.00    +0.000 A 
ATOM      5  C   UNL     1       1.783   8.535  18.894  0.00  0.00    +0.000 A 
ATOM      6  C   UNL     1       2.102   7.193  19.197  0.00  0.00    +0.000 A 
ATOM      7  O   UNL     1       2.148   9.071  17.681  0.00  0.00    +0.000 OA
ATOM      8  C   UNL     1       2.513  10.463  17.790  0.00  0.00    +0.000 C 
ATOM      9  C   UNL     1       1.350  11.339  18.249  0.00  0.00    +0.000 C 
ATOM     10  C   UNL     1       1.738  12.674  18.796  0.00  0.00    +0.000 A 
ATOM     11  C   UNL     1       2.114  13.851  18.168  0.00  0.00    +0.000 A 
ATOM     12  C   UNL     1       2.460  14.904  19.006  0.00  0.00    +0.000 A 
ATOM     13  C   UNL     1       2.462  14.790  20.387  0.00  0.00    +0.000 A 
ATOM     14  C   UNL     1       2.076  13.642  21.024  0.00  0.00    +0.000 A 
ATOM     15  C   UNL     1       1.679  12.619  20.189  0.00  0.00    +0.000 A 
ATOM     16  O   UNL     1       1.170  11.462  20.680  0.00  0.00    +0.000 OA
ATOM     17  C   UNL     1       0.711  10.735  19.514  0.00  0.00    +0.000 C 
ATOM     18  O   UNL     1       2.857  15.927  21.015  0.00  0.00    +0.000 OA
ATOM     19  C   UNL     1       3.080  16.790  19.886  0.00  0.00    +0.000 C 
ATOM     20  O   UNL     1       2.832  16.153  18.611  0.00  0.00    +0.000 OA
ENDROOT
BRANCH   1  22
ATOM     21  C   UNL     1       1.086   4.414  20.540  0.00  0.00    +0.000 C 
ATOM     22  O   UNL     1       2.101   5.388  20.766  0.00  0.00    +0.000 OA
ENDBRANCH   1  22
BRANCH   6  23
ATOM     23  C   UNL     1       2.788   6.314  18.173  0.00  0.00    +0.000 C 
BRANCH  23  24
ATOM     24  C   UNL     1       4.289   6.243  18.318  0.00  0.00    +0.000 C 
ATOM     25  C   UNL     1       5.049   5.190  18.690  0.00  0.00    +0.000 C 
ATOM     26  C   UNL     1       4.496   3.813  18.961  0.00  0.00    +0.000 C 
BRANCH  25  27
ATOM     27  C   UNL     1       6.554   5.395  18.863  0.00  0.00    +0.000 C 
BRANCH  27  28
ATOM     28  C   UNL     1       7.327   5.712  17.572  0.00  0.00    +0.000 C 
BRANCH  28  29
ATOM     29  C   UNL     1       7.174   4.693  16.474  0.00  0.00    +0.000 C 
ATOM     30  C   UNL     1       6.361   4.859  15.412  0.00  0.00    +0.000 C 
ATOM     31  C   UNL     1       5.505   6.079  15.193  0.00  0.00    +0.000 C 
ATOM     32  C   UNL     1       6.238   3.813  14.339  0.00  0.00    +0.000 C 
ENDBRANCH  28  29
ENDBRANCH  27  28
ENDBRANCH  25  27
ENDBRANCH  23  24
ENDBRANCH   6  23
TORSDOF 6
ENDMDL
MODEL 6
REMARK VINA RESULT:      -7.8      1.356      2.042
REMARK  Name = 
REMARK  10 active torsions:
REMARK  status: ('A' for Active; 'I' for Inactive)
REMARK    1  A    between atoms: C_1  and  O_2
REMARK    2  A    between atoms: O_2  and  C_3
REMARK    3  A    between atoms: C_8  and  C_9
REMARK    4  A    between atoms: C_9  and  C_10
REMARK    5  A    between atoms: C_11  and  C_12
REMARK    6  A    between atoms: C_11  and  C_13
REMARK    7  A    between atoms: C_13  and  C_14
REMARK    8  A    between atoms: C_14  and  C_15
REMARK    9  A    between atoms: C_16  and  C_17
REMARK   10  A    between atoms: C_16  and  C_18
REMARK                            x       y       z     vdW  Elec       q    Type
REMARK                         _______ _______ _______ _____ _____    ______ ____
ROOT
ATOM      1  C   UNL     1       0.946   9.378  19.123  0.00  0.00    +0.000 A 
ATOM      2  C   UNL     1       0.239  10.392  18.473  0.00  0.00    +0.000 A 
ATOM      3  C   UNL     1      -0.423  11.360  19.206  0.00  0.00    +0.000 A 
ATOM      4  C   UNL     1      -0.463  11.286  20.601  0.00  0.00    +0.000 A 
ATOM      5  C   UNL     1       0.184  10.245  21.264  0.00  0.00    +0.000 A 
ATOM      6  C   UNL     1       0.935   9.295  20.539  0.00  0.00    +0.000 A 
ATOM      7  O   UNL     1       0.117  10.167  22.635  0.00  0.00    +0.000 OA
ATOM      8  C   UNL     1      -1.174  10.569  23.140  0.00  0.00    +0.000 C 
ATOM      9  C   UNL     1      -1.493  12.031  22.835  0.00  0.00    +0.000 C 
ATOM     10  C   UNL     1      -2.938  12.398  22.926  0.00  0.00    +0.000 A 
ATOM     11  C   UNL     1      -3.754  12.657  24.017  0.00  0.00    +0.000 A 
ATOM     12  C   UNL     1      -5.086  12.926  23.729  0.00  0.00    +0.000 A 
ATOM     13  C   UNL     1      -5.590  12.910  22.439  0.00  0.00    +0.000 A 
ATOM     14  C   UNL     1      -4.795  12.675  21.350  0.00  0.00    +0.000 A 
ATOM     15  C   UNL     1      -3.463  12.466  21.636  0.00  0.00    +0.000 A 
ATOM     16  O   UNL     1      -2.541  12.327  20.651  0.00  0.00    +0.000 OA
ATOM     17  C   UNL     1      -1.265  12.312  21.338  0.00  0.00    +0.000 C 
ATOM     18  O   UNL     1      -6.921  13.173  22.383  0.00  0.00    +0.000 OA
ATOM     19  C   UNL     1      -7.208  13.387  23.777  0.00  0.00    +0.000 C 
ATOM     20  O   UNL     1      -6.055  13.232  24.636  0.00  0.00    +0.000 OA
ENDROOT
BRANCH   1  22
ATOM     21  C   UNL     1       2.711   8.917  17.612  0.00  0.00    +0.000 C 
ATOM     22  O   UNL     1       1.655   8.423  18.431  0.00  0.00    +0.000 OA
ENDBRANCH   1  22
BRANCH   6  23
ATOM     23  C   UNL     1       1.724   8.223  21.260  0.00  0.00    +0.000 C 
BRANCH  23  24
ATOM     24  C   UNL     1       1.172   6.828  21.100  0.00  0.00    +0.000 C 
ATOM     25  C   UNL     1       1.762   5.749  20.539  0.00  0.00    +0.000 C 
ATOM     26  C   UNL     1       3.180   5.744  20.025  0.00  0.00    +0.000 C 
BRANCH  25  27
ATOM     27  C   UNL     1       0.953   4.459  20.400  0.00  0.00    +0.000 C 
BRANCH  27  28
ATOM     28  C   UNL     1       1.082   3.745  19.045  0.00  0.00    +0.000 C 
BRANCH  28  29
ATOM     29  C   UNL     1       1.961   2.522  19.052  0.00  0.00    +0.000 C 
ATOM     30  C   UNL     1       3.038   2.374  18.254  0.00  0.00    +0.000 C 
ATOM     31  C   UNL     1       3.493   3.409  17.259  0.00  0.00    +0.000 C 
ATOM     32  C   UNL     1       3.886   1.133  18.294  0.00  0.00    +0.000 C 
ENDBRANCH  28  29
ENDBRANCH  27  28
ENDBRANCH  25  27
ENDBRANCH  23  24
ENDBRANCH   6  23
TORSDOF 6
ENDMDL
MODEL 7
REMARK VINA RESULT:      -7.7      0.795      1.398
REMARK  Name = 
REMARK  10 active torsions:
REMARK  status: ('A' for Active; 'I' for Inactive)
REMARK    1  A    between atoms: C_1  and  O_2
REMARK    2  A    between atoms: O_2  and  C_3
REMARK    3  A    between atoms: C_8  and  C_9
REMARK    4  A    between atoms: C_9  and  C_10
REMARK    5  A    between atoms: C_11  and  C_12
REMARK    6  A    between atoms: C_11  and  C_13
REMARK    7  A    between atoms: C_13  and  C_14
REMARK    8  A    between atoms: C_14  and  C_15
REMARK    9  A    between atoms: C_16  and  C_17
REMARK   10  A    between atoms: C_16  and  C_18
REMARK                            x       y       z     vdW  Elec       q    Type
REMARK                         _______ _______ _______ _____ _____    ______ ____
ROOT
ATOM      1  C   UNL     1       2.190   8.096  18.473  0.00  0.00    +0.000 A 
ATOM      2  C   UNL     1       1.924   9.354  17.930  0.00  0.00    +0.000 A 
ATOM      3  C   UNL     1       1.402  10.360  18.722  0.00  0.00    +0.000 A 
ATOM      4  C   UNL     1       1.056  10.104  20.052  0.00  0.00    +0.000 A 
ATOM      5  C   UNL     1       1.256   8.836  20.594  0.00  0.00    +0.000 A 
ATOM      6  C   UNL     1       1.866   7.820  19.827  0.00  0.00    +0.000 A 
ATOM      7  O   UNL     1       0.888   8.588  21.896  0.00  0.00    +0.000 OA
ATOM      8  C   UNL     1      -0.328   9.276  22.258  0.00  0.00    +0.000 C 
ATOM      9  C   UNL     1      -0.182  10.794  22.195  0.00  0.00    +0.000 C 
ATOM     10  C   UNL     1      -1.467  11.553  22.126  0.00  0.00    +0.000 A 
ATOM     11  C   UNL     1      -2.394  11.883  23.103  0.00  0.00    +0.000 A 
ATOM     12  C   UNL     1      -3.520  12.569  22.665  0.00  0.00    +0.000 A 
ATOM     13  C   UNL     1      -3.732  12.885  21.333  0.00  0.00    +0.000 A 
ATOM     14  C   UNL     1      -2.819  12.584  20.359  0.00  0.00    +0.000 A 
ATOM     15  C   UNL     1      -1.677  11.954  20.807  0.00  0.00    +0.000 A 
ATOM     16  O   UNL     1      -0.640  11.691  19.973  0.00  0.00    +0.000 OA
ATOM     17  C   UNL     1       0.416  11.205  20.837  0.00  0.00    +0.000 C 
ATOM     18  O   UNL     1      -4.906  13.533  21.118  0.00  0.00    +0.000 OA
ATOM     19  C   UNL     1      -5.409  13.622  22.464  0.00  0.00    +0.000 C 
ATOM     20  O   UNL     1      -4.541  13.015  23.449  0.00  0.00    +0.000 OA
ENDROOT
BRANCH   1  22
ATOM     21  C   UNL     1       3.999   7.392  17.116  0.00  0.00    +0.000 C 
ATOM     22  O   UNL     1       2.752   7.083  17.731  0.00  0.00    +0.000 OA
ENDBRANCH   1  22
BRANCH   6  23
ATOM     23  C   UNL     1       2.179   6.473  20.442  0.00  0.00    +0.000 C 
BRANCH  23  24
ATOM     24  C   UNL     1       2.351   5.355  19.442  0.00  0.00    +0.000 C 
ATOM     25  C   UNL     1       1.851   4.101  19.490  0.00  0.00    +0.000 C 
ATOM     26  C   UNL     1       0.921   3.611  20.571  0.00  0.00    +0.000 C 
BRANCH  25  27
ATOM     27  C   UNL     1       2.253   3.108  18.397  0.00  0.00    +0.000 C 
BRANCH  27  28
ATOM     28  C   UNL     1       3.765   2.966  18.163  0.00  0.00    +0.000 C 
BRANCH  28  29
ATOM     29  C   UNL     1       4.252   3.470  16.829  0.00  0.00    +0.000 C 
ATOM     30  C   UNL     1       5.390   4.174  16.669  0.00  0.00    +0.000 C 
ATOM     31  C   UNL     1       6.313   4.545  17.801  0.00  0.00    +0.000 C 
ATOM     32  C   UNL     1       5.837   4.659  15.318  0.00  0.00    +0.000 C 
ENDBRANCH  28  29
ENDBRANCH  27  28
ENDBRANCH  25  27
ENDBRANCH  23  24
ENDBRANCH   6  23
TORSDOF 6
ENDMDL
MODEL 8
REMARK VINA RESULT:      -7.7      3.179      9.315
REMARK  Name = 
REMARK  10 active torsions:
REMARK  status: ('A' for Active; 'I' for Inactive)
REMARK    1  A    between atoms: C_1  and  O_2
REMARK    2  A    between atoms: O_2  and  C_3
REMARK    3  A    between atoms: C_8  and  C_9
REMARK    4  A    between atoms: C_9  and  C_10
REMARK    5  A    between atoms: C_11  and  C_12
REMARK    6  A    between atoms: C_11  and  C_13
REMARK    7  A    between atoms: C_13  and  C_14
REMARK    8  A    between atoms: C_14  and  C_15
REMARK    9  A    between atoms: C_16  and  C_17
REMARK   10  A    between atoms: C_16  and  C_18
REMARK                            x       y       z     vdW  Elec       q    Type
REMARK                         _______ _______ _______ _____ _____    ______ ____
ROOT
ATOM      1  C   UNL     1      -0.777  10.881  21.170  0.00  0.00    +0.000 A 
ATOM      2  C   UNL     1      -0.387   9.943  22.127  0.00  0.00    +0.000 A 
ATOM      3  C   UNL     1       0.599   9.018  21.836  0.00  0.00    +0.000 A 
ATOM      4  C   UNL     1       1.155   8.958  20.555  0.00  0.00    +0.000 A 
ATOM      5  C   UNL     1       0.732   9.845  19.568  0.00  0.00    +0.000 A 
ATOM      6  C   UNL     1      -0.212  10.851  19.869  0.00  0.00    +0.000 A 
ATOM      7  O   UNL     1       1.266   9.760  18.303  0.00  0.00    +0.000 OA
ATOM      8  C   UNL     1       1.503   8.393  17.904  0.00  0.00    +0.000 C 
ATOM      9  C   UNL     1       2.531   7.695  18.790  0.00  0.00    +0.000 C 
ATOM     10  C   UNL     1       2.512   6.203  18.729  0.00  0.00    +0.000 A 
ATOM     11  C   UNL     1       3.014   5.314  17.790  0.00  0.00    +0.000 A 
ATOM     12  C   UNL     1       2.769   3.969  18.035  0.00  0.00    +0.000 A 
ATOM     13  C   UNL     1       2.043   3.528  19.130  0.00  0.00    +0.000 A 
ATOM     14  C   UNL     1       1.557   4.390  20.076  0.00  0.00    +0.000 A 
ATOM     15  C   UNL     1       1.852   5.718  19.859  0.00  0.00    +0.000 A 
ATOM     16  O   UNL     1       1.528   6.673  20.766  0.00  0.00    +0.000 OA
ATOM     17  C   UNL     1       2.155   7.882  20.272  0.00  0.00    +0.000 C 
ATOM     18  O   UNL     1       1.898   2.179  19.166  0.00  0.00    +0.000 OA
ATOM     19  C   UNL     1       2.635   1.801  17.989  0.00  0.00    +0.000 C 
ATOM     20  O   UNL     1       3.189   2.925  17.267  0.00  0.00    +0.000 OA
ENDROOT
BRANCH   1  22
ATOM     21  C   UNL     1      -1.833  12.236  22.801  0.00  0.00    +0.000 C 
ATOM     22  O   UNL     1      -1.721  11.846  21.435  0.00  0.00    +0.000 OA
ENDBRANCH   1  22
BRANCH   6  23
ATOM     23  C   UNL     1      -0.599  11.882  18.830  0.00  0.00    +0.000 C 
BRANCH  23  24
ATOM     24  C   UNL     1      -0.035  13.260  19.077  0.00  0.00    +0.000 C 
ATOM     25  C   UNL     1       1.206  13.721  18.806  0.00  0.00    +0.000 C 
ATOM     26  C   UNL     1       2.264  12.912  18.099  0.00  0.00    +0.000 C 
BRANCH  25  27
ATOM     27  C   UNL     1       1.575  15.138  19.248  0.00  0.00    +0.000 C 
BRANCH  27  28
ATOM     28  C   UNL     1       2.893  15.683  18.673  0.00  0.00    +0.000 C 
BRANCH  28  29
ATOM     29  C   UNL     1       4.069  15.621  19.612  0.00  0.00    +0.000 C 
ATOM     30  C   UNL     1       5.285  15.164  19.252  0.00  0.00    +0.000 C 
ATOM     31  C   UNL     1       5.617  14.658  17.872  0.00  0.00    +0.000 C 
ATOM     32  C   UNL     1       6.432  15.118  20.224  0.00  0.00    +0.000 C 
ENDBRANCH  28  29
ENDBRANCH  27  28
ENDBRANCH  25  27
ENDBRANCH  23  24
ENDBRANCH   6  23
TORSDOF 6
ENDMDL
MODEL 9
REMARK VINA RESULT:      -7.7      2.841      4.907
REMARK  Name = 
REMARK  10 active torsions:
REMARK  status: ('A' for Active; 'I' for Inactive)
REMARK    1  A    between atoms: C_1  and  O_2
REMARK    2  A    between atoms: O_2  and  C_3
REMARK    3  A    between atoms: C_8  and  C_9
REMARK    4  A    between atoms: C_9  and  C_10
REMARK    5  A    between atoms: C_11  and  C_12
REMARK    6  A    between atoms: C_11  and  C_13
REMARK    7  A    between atoms: C_13  and  C_14
REMARK    8  A    between atoms: C_14  and  C_15
REMARK    9  A    between atoms: C_16  and  C_17
REMARK   10  A    between atoms: C_16  and  C_18
REMARK                            x       y       z     vdW  Elec       q    Type
REMARK                         _______ _______ _______ _____ _____    ______ ____
ROOT
ATOM      1  C   UNL     1       3.929   5.703  19.188  0.00  0.00    +0.000 A 
ATOM      2  C   UNL     1       2.967   5.592  20.194  0.00  0.00    +0.000 A 
ATOM      3  C   UNL     1       1.893   6.462  20.232  0.00  0.00    +0.000 A 
ATOM      4  C   UNL     1       1.802   7.512  19.315  0.00  0.00    +0.000 A 
ATOM      5  C   UNL     1       2.787   7.676  18.342  0.00  0.00    +0.000 A 
ATOM      6  C   UNL     1       3.846   6.750  18.235  0.00  0.00    +0.000 A 
ATOM      7  O   UNL     1       2.702   8.729  17.461  0.00  0.00    +0.000 OA
ATOM      8  C   UNL     1       2.188   9.923  18.088  0.00  0.00    +0.000 C 
ATOM      9  C   UNL     1       0.760   9.749  18.597  0.00  0.00    +0.000 C 
ATOM     10  C   UNL     1       0.321  10.750  19.615  0.00  0.00    +0.000 A 
ATOM     11  C   UNL     1      -0.097  12.066  19.490  0.00  0.00    +0.000 A 
ATOM     12  C   UNL     1      -0.388  12.727  20.676  0.00  0.00    +0.000 A 
ATOM     13  C   UNL     1      -0.245  12.130  21.919  0.00  0.00    +0.000 A 
ATOM     14  C   UNL     1       0.149  10.827  22.059  0.00  0.00    +0.000 A 
ATOM     15  C   UNL     1       0.381  10.159  20.877  0.00  0.00    +0.000 A 
ATOM     16  O   UNL     1       0.674   8.834  20.858  0.00  0.00    +0.000 OA
ATOM     17  C   UNL     1       0.664   8.473  19.454  0.00  0.00    +0.000 C 
ATOM     18  O   UNL     1      -0.557  12.959  22.948  0.00  0.00    +0.000 OA
ATOM     19  C   UNL     1      -0.944  14.143  22.227  0.00  0.00    +0.000 C 
ATOM     20  O   UNL     1      -0.840  14.006  20.791  0.00  0.00    +0.000 OA
ENDROOT
BRANCH   1  22
ATOM     21  C   UNL     1       4.671   3.456  19.298  0.00  0.00    +0.000 C 
ATOM     22  O   UNL     1       4.987   4.830  19.090  0.00  0.00    +0.000 OA
ENDBRANCH   1  22
BRANCH   6  23
ATOM     23  C   UNL     1       4.861   6.864  17.117  0.00  0.00    +0.000 C 
BRANCH  23  24
ATOM     24  C   UNL     1       4.923   5.663  16.205  0.00  0.00    +0.000 C 
ATOM     25  C   UNL     1       5.980   4.867  15.935  0.00  0.00    +0.000 C 
ATOM     26  C   UNL     1       7.327   5.009  16.599  0.00  0.00    +0.000 C 
BRANCH  25  27
ATOM     27  C   UNL     1       5.820   3.763  14.888  0.00  0.00    +0.000 C 
BRANCH  27  28
ATOM     28  C   UNL     1       6.241   4.145  13.460  0.00  0.00    +0.000 C 
BRANCH  28  29
ATOM     29  C   UNL     1       6.577   2.982  12.564  0.00  0.00    +0.000 C 
ATOM     30  C   UNL     1       5.726   2.481  11.645  0.00  0.00    +0.000 C 
ATOM     31  C   UNL     1       4.340   3.019  11.403  0.00  0.00    +0.000 C 
ATOM     32  C   UNL     1       6.103   1.316  10.772  0.00  0.00    +0.000 C 
ENDBRANCH  28  29
ENDBRANCH  27  28
ENDBRANCH  25  27
ENDBRANCH  23  24
ENDBRANCH   6  23
TORSDOF 6
ENDMDL
