MODEL 1
REMARK VINA RESULT:      -8.3      0.000      0.000
REMARK  Name = 
REMARK  5 active torsions:
REMARK  status: ('A' for Active; 'I' for Inactive)
REMARK    1  A    between atoms: C_1  and  C_2
REMARK    2  A    between atoms: C_7  and  N_8
REMARK    3  A    between atoms: C_12  and  S_13
REMARK    4  A    between atoms: S_13  and  C_14
REMARK    5  A    between atoms: C_14  and  C_15
REMARK                            x       y       z     vdW  Elec       q    Type
REMARK                         _______ _______ _______ _____ _____    ______ ____
ROOT
ATOM      1  N   UNL     1       9.366   9.585  19.246  0.00  0.00    +0.000 N 
ATOM      2  C   UNL     1       8.601   8.728  18.524  0.00  0.00    +0.000 A 
ATOM      3  N   UNL     1       7.870   8.902  17.438  0.00  0.00    +0.000 NA
ATOM      4  N   UNL     1       7.297   7.704  17.083  0.00  0.00    +0.000 NA
ATOM      5  C   UNL     1       7.676   6.823  17.971  0.00  0.00    +0.000 A 
ATOM      6  N   UNL     1       8.475   7.414  18.903  0.00  0.00    +0.000 N 
ATOM      7  H   UNL     1       9.872   9.249  20.054  0.00  0.00    +0.000 HD
ATOM      8  H   UNL     1       8.887   6.966  19.703  0.00  0.00    +0.000 HD
ENDROOT
BRANCH   1  15
ATOM      9  C   UNL     1       8.941  11.302  21.626  0.00  0.00    +0.000 C 
ATOM     10  C   UNL     1       9.131  11.836  20.232  0.00  0.00    +0.000 A 
ATOM     11  C   UNL     1       9.011  13.230  20.048  0.00  0.00    +0.000 A 
ATOM     12  C   UNL     1       9.205  13.811  18.799  0.00  0.00    +0.000 A 
ATOM     13  C   UNL     1       9.553  13.012  17.722  0.00  0.00    +0.000 A 
ATOM     14  C   UNL     1       9.655  11.628  17.886  0.00  0.00    +0.000 A 
ATOM     15  C   UNL     1       9.404  11.001  19.118  0.00  0.00    +0.000 A 
ENDBRANCH   1  15
BRANCH   5  16
ATOM     16  S   UNL     1       7.307   5.141  18.012  0.00  0.00    +0.000 S 
BRANCH  16  17
ATOM     17  C   UNL     1       6.049   5.154  19.326  0.00  0.00    +0.000 C 
BRANCH  17  18
ATOM     18  C   UNL     1       4.647   4.943  18.802  0.00  0.00    +0.000 A 
ATOM     19  C   UNL     1       3.744   6.019  18.726  0.00  0.00    +0.000 A 
ATOM     20  C   UNL     1       2.468   5.842  18.184  0.00  0.00    +0.000 A 
ATOM     21  C   UNL     1       2.085   4.588  17.720  0.00  0.00    +0.000 A 
ATOM     22  F   UNL     1       0.870   4.429  17.181  0.00  0.00    +0.000 F 
ATOM     23  C   UNL     1       2.959   3.513  17.813  0.00  0.00    +0.000 A 
ATOM     24  F   UNL     1       2.591   2.305  17.363  0.00  0.00    +0.000 F 
ATOM     25  C   UNL     1       4.235   3.679  18.352  0.00  0.00    +0.000 A 
ENDBRANCH  17  18
ENDBRANCH  16  17
ENDBRANCH   5  16
TORSDOF 4
ENDMDL
MODEL 2
REMARK VINA RESULT:      -8.3      0.786      1.422
REMARK  Name = 
REMARK  5 active torsions:
REMARK  status: ('A' for Active; 'I' for Inactive)
REMARK    1  A    between atoms: C_1  and  C_2
REMARK    2  A    between atoms: C_7  and  N_8
REMARK    3  A    between atoms: C_12  and  S_13
REMARK    4  A    between atoms: S_13  and  C_14
REMARK    5  A    between atoms: C_14  and  C_15
REMARK                            x       y       z     vdW  Elec       q    Type
REMARK                         _______ _______ _______ _____ _____    ______ ____
ROOT
ATOM      1  N   UNL     1       9.284   9.339  19.237  0.00  0.00    +0.000 N 
ATOM      2  C   UNL     1       8.508   8.536  18.465  0.00  0.00    +0.000 A 
ATOM      3  N   UNL     1       7.872   8.756  17.330  0.00  0.00    +0.000 NA
ATOM      4  N   UNL     1       7.235   7.602  16.939  0.00  0.00    +0.000 NA
ATOM      5  C   UNL     1       7.482   6.703  17.855  0.00  0.00    +0.000 A 
ATOM      6  N   UNL     1       8.255   7.239  18.839  0.00  0.00    +0.000 N 
ATOM      7  H   UNL     1       9.705   8.974  20.080  0.00  0.00    +0.000 HD
ATOM      8  H   UNL     1       8.575   6.769  19.668  0.00  0.00    +0.000 HD
ENDROOT
BRANCH   1  15
ATOM      9  C   UNL     1       8.901  11.098  21.594  0.00  0.00    +0.000 C 
ATOM     10  C   UNL     1       9.188  11.608  20.207  0.00  0.00    +0.000 A 
ATOM     11  C   UNL     1       9.187  13.005  20.015  0.00  0.00    +0.000 A 
ATOM     12  C   UNL     1       9.477  13.562  18.773  0.00  0.00    +0.000 A 
ATOM     13  C   UNL     1       9.804  12.732  17.714  0.00  0.00    +0.000 A 
ATOM     14  C   UNL     1       9.788  11.346  17.885  0.00  0.00    +0.000 A 
ATOM     15  C   UNL     1       9.439  10.747  19.107  0.00  0.00    +0.000 A 
ENDBRANCH   1  15
BRANCH   5  16
ATOM     16  S   UNL     1       6.983   5.054  17.875  0.00  0.00    +0.000 S 
BRANCH  16  17
ATOM     17  C   UNL     1       5.779   5.135  19.237  0.00  0.00    +0.000 C 
BRANCH  17  18
ATOM     18  C   UNL     1       4.526   4.335  18.963  0.00  0.00    +0.000 A 
ATOM     19  C   UNL     1       4.393   3.024  19.458  0.00  0.00    +0.000 A 
ATOM     20  C   UNL     1       3.212   2.304  19.261  0.00  0.00    +0.000 A 
ATOM     21  C   UNL     1       2.159   2.887  18.564  0.00  0.00    +0.000 A 
ATOM     22  F   UNL     1       1.021   2.201  18.397  0.00  0.00    +0.000 F 
ATOM     23  C   UNL     1       2.287   4.170  18.050  0.00  0.00    +0.000 A 
ATOM     24  F   UNL     1       1.271   4.733  17.381  0.00  0.00    +0.000 F 
ATOM     25  C   UNL     1       3.461   4.898  18.241  0.00  0.00    +0.000 A 
ENDBRANCH  17  18
ENDBRANCH  16  17
ENDBRANCH   5  16
TORSDOF 4
ENDMDL
MODEL 3
REMARK VINA RESULT:      -8.1      1.063      1.335
REMARK  Name = 
REMARK  5 active torsions:
REMARK  status: ('A' for Active; 'I' for Inactive)
REMARK    1  A    between atoms: C_1  and  C_2
REMARK    2  A    between atoms: C_7  and  N_8
REMARK    3  A    between atoms: C_12  and  S_13
REMARK    4  A    between atoms: S_13  and  C_14
REMARK    5  A    between atoms: C_14  and  C_15
REMARK                            x       y       z     vdW  Elec       q    Type
REMARK                         _______ _______ _______ _____ _____    ______ ____
ROOT
ATOM      1  N   UNL     1       9.343   9.375  19.203  0.00  0.00    +0.000 N 
ATOM      2  C   UNL     1       8.528   8.590  18.453  0.00  0.00    +0.000 A 
ATOM      3  N   UNL     1       7.892   8.815  17.318  0.00  0.00    +0.000 NA
ATOM      4  N   UNL     1       7.203   7.682  16.955  0.00  0.00    +0.000 NA
ATOM      5  C   UNL     1       7.420   6.791  17.886  0.00  0.00    +0.000 A 
ATOM      6  N   UNL     1       8.224   7.313  18.854  0.00  0.00    +0.000 N 
ATOM      7  H   UNL     1       9.755   9.008  20.049  0.00  0.00    +0.000 HD
ATOM      8  H   UNL     1       8.530   6.845  19.689  0.00  0.00    +0.000 HD
ENDROOT
BRANCH   1  15
ATOM      9  C   UNL     1       8.972  11.203  21.507  0.00  0.00    +0.000 C 
ATOM     10  C   UNL     1       9.313  11.668  20.117  0.00  0.00    +0.000 A 
ATOM     11  C   UNL     1       9.371  13.059  19.892  0.00  0.00    +0.000 A 
ATOM     12  C   UNL     1       9.713  13.575  18.646  0.00  0.00    +0.000 A 
ATOM     13  C   UNL     1      10.032  12.707  17.615  0.00  0.00    +0.000 A 
ATOM     14  C   UNL     1       9.959  11.327  17.818  0.00  0.00    +0.000 A 
ATOM     15  C   UNL     1       9.556  10.772  19.044  0.00  0.00    +0.000 A 
ENDBRANCH   1  15
BRANCH   5  16
ATOM     16  S   UNL     1       6.852   5.165  17.942  0.00  0.00    +0.000 S 
BRANCH  16  17
ATOM     17  C   UNL     1       5.671   5.320  19.318  0.00  0.00    +0.000 C 
BRANCH  17  18
ATOM     18  C   UNL     1       4.302   4.776  18.983  0.00  0.00    +0.000 A 
ATOM     19  C   UNL     1       4.035   4.255  17.703  0.00  0.00    +0.000 A 
ATOM     20  C   UNL     1       2.789   3.694  17.407  0.00  0.00    +0.000 A 
ATOM     21  C   UNL     1       1.803   3.655  18.386  0.00  0.00    +0.000 A 
ATOM     22  F   UNL     1       0.618   3.096  18.105  0.00  0.00    +0.000 F 
ATOM     23  C   UNL     1       2.046   4.188  19.645  0.00  0.00    +0.000 A 
ATOM     24  F   UNL     1       1.095   4.148  20.589  0.00  0.00    +0.000 F 
ATOM     25  C   UNL     1       3.285   4.750  19.951  0.00  0.00    +0.000 A 
ENDBRANCH  17  18
ENDBRANCH  16  17
ENDBRANCH   5  16
TORSDOF 4
ENDMDL
MODEL 4
REMARK VINA RESULT:      -8.1      1.560      2.193
REMARK  Name = 
REMARK  5 active torsions:
REMARK  status: ('A' for Active; 'I' for Inactive)
REMARK    1  A    between atoms: C_1  and  C_2
REMARK    2  A    between atoms: C_7  and  N_8
REMARK    3  A    between atoms: C_12  and  S_13
REMARK    4  A    between atoms: S_13  and  C_14
REMARK    5  A    between atoms: C_14  and  C_15
REMARK                            x       y       z     vdW  Elec       q    Type
REMARK                         _______ _______ _______ _____ _____    ______ ____
ROOT
ATOM      1  N   UNL     1       7.904   9.928  17.623  0.00  0.00    +0.000 N 
ATOM      2  C   UNL     1       7.830   8.586  17.810  0.00  0.00    +0.000 A 
ATOM      3  N   UNL     1       8.384   7.791  18.706  0.00  0.00    +0.000 NA
ATOM      4  N   UNL     1       7.975   6.499  18.477  0.00  0.00    +0.000 NA
ATOM      5  C   UNL     1       7.190   6.528  17.433  0.00  0.00    +0.000 A 
ATOM      6  N   UNL     1       7.081   7.803  16.966  0.00  0.00    +0.000 N 
ATOM      7  H   UNL     1       7.381  10.362  16.875  0.00  0.00    +0.000 HD
ATOM      8  H   UNL     1       6.552   8.100  16.165  0.00  0.00    +0.000 HD
ENDROOT
BRANCH   1  15
ATOM      9  C   UNL     1       7.769  12.832  17.042  0.00  0.00    +0.000 C 
ATOM     10  C   UNL     1       8.806  12.205  17.935  0.00  0.00    +0.000 A 
ATOM     11  C   UNL     1       9.816  13.045  18.448  0.00  0.00    +0.000 A 
ATOM     12  C   UNL     1      10.793  12.554  19.309  0.00  0.00    +0.000 A 
ATOM     13  C   UNL     1      10.756  11.224  19.694  0.00  0.00    +0.000 A 
ATOM     14  C   UNL     1       9.774  10.377  19.176  0.00  0.00    +0.000 A 
ATOM     15  C   UNL     1       8.809  10.823  18.256  0.00  0.00    +0.000 A 
ENDBRANCH   1  15
BRANCH   5  16
ATOM     16  S   UNL     1       6.343   5.211  16.714  0.00  0.00    +0.000 S 
BRANCH  16  17
ATOM     17  C   UNL     1       4.637   5.790  16.974  0.00  0.00    +0.000 C 
BRANCH  17  18
ATOM     18  C   UNL     1       3.725   4.712  17.511  0.00  0.00    +0.000 A 
ATOM     19  C   UNL     1       2.394   5.010  17.859  0.00  0.00    +0.000 A 
ATOM     20  C   UNL     1       1.529   4.004  18.296  0.00  0.00    +0.000 A 
ATOM     21  C   UNL     1       1.989   2.696  18.394  0.00  0.00    +0.000 A 
ATOM     22  F   UNL     1       1.149   1.731  18.792  0.00  0.00    +0.000 F 
ATOM     23  C   UNL     1       3.306   2.393  18.077  0.00  0.00    +0.000 A 
ATOM     24  F   UNL     1       3.749   1.130  18.170  0.00  0.00    +0.000 F 
ATOM     25  C   UNL     1       4.178   3.389  17.639  0.00  0.00    +0.000 A 
ENDBRANCH  17  18
ENDBRANCH  16  17
ENDBRANCH   5  16
TORSDOF 4
ENDMDL
MODEL 5
REMARK VINA RESULT:      -8.0      5.104      7.190
REMARK  Name = 
REMARK  5 active torsions:
REMARK  status: ('A' for Active; 'I' for Inactive)
REMARK    1  A    between atoms: C_1  and  C_2
REMARK    2  A    between atoms: C_7  and  N_8
REMARK    3  A    between atoms: C_12  and  S_13
REMARK    4  A    between atoms: S_13  and  C_14
REMARK    5  A    between atoms: C_14  and  C_15
REMARK                            x       y       z     vdW  Elec       q    Type
REMARK                         _______ _______ _______ _____ _____    ______ ____
ROOT
ATOM      1  N   UNL     1       2.138   7.812  20.265  0.00  0.00    +0.000 N 
ATOM      2  C   UNL     1       2.118   6.455  20.301  0.00  0.00    +0.000 A 
ATOM      3  N   UNL     1       1.171   5.598  20.636  0.00  0.00    +0.000 NA
ATOM      4  N   UNL     1       1.647   4.318  20.483  0.00  0.00    +0.000 NA
ATOM      5  C   UNL     1       2.883   4.418  20.071  0.00  0.00    +0.000 A 
ATOM      6  N   UNL     1       3.233   5.730  19.959  0.00  0.00    +0.000 N 
ATOM      7  H   UNL     1       2.970   8.295  19.956  0.00  0.00    +0.000 HD
ATOM      8  H   UNL     1       4.131   6.085  19.678  0.00  0.00    +0.000 HD
ENDROOT
BRANCH   1  15
ATOM      9  C   UNL     1       0.704   9.709  18.494  0.00  0.00    +0.000 C 
ATOM     10  C   UNL     1       0.515   9.651  19.986  0.00  0.00    +0.000 A 
ATOM     11  C   UNL     1      -0.329  10.617  20.572  0.00  0.00    +0.000 A 
ATOM     12  C   UNL     1      -0.586  10.615  21.940  0.00  0.00    +0.000 A 
ATOM     13  C   UNL     1      -0.029   9.629  22.736  0.00  0.00    +0.000 A 
ATOM     14  C   UNL     1       0.826   8.679  22.172  0.00  0.00    +0.000 A 
ATOM     15  C   UNL     1       1.158   8.688  20.806  0.00  0.00    +0.000 A 
ENDBRANCH   1  15
BRANCH   5  16
ATOM     16  S   UNL     1       3.966   3.142  19.664  0.00  0.00    +0.000 S 
BRANCH  16  17
ATOM     17  C   UNL     1       4.230   3.538  17.907  0.00  0.00    +0.000 C 
BRANCH  17  18
ATOM     18  C   UNL     1       5.238   4.645  17.698  0.00  0.00    +0.000 A 
ATOM     19  C   UNL     1       5.032   5.619  16.704  0.00  0.00    +0.000 A 
ATOM     20  C   UNL     1       5.929   6.680  16.548  0.00  0.00    +0.000 A 
ATOM     21  C   UNL     1       7.038   6.770  17.381  0.00  0.00    +0.000 A 
ATOM     22  F   UNL     1       7.883   7.801  17.242  0.00  0.00    +0.000 F 
ATOM     23  C   UNL     1       7.265   5.802  18.350  0.00  0.00    +0.000 A 
ATOM     24  F   UNL     1       8.334   5.891  19.154  0.00  0.00    +0.000 F 
ATOM     25  C   UNL     1       6.377   4.739  18.514  0.00  0.00    +0.000 A 
ENDBRANCH  17  18
ENDBRANCH  16  17
ENDBRANCH   5  16
TORSDOF 4
ENDMDL
MODEL 6
REMARK VINA RESULT:      -7.9      1.261      1.298
REMARK  Name = 
REMARK  5 active torsions:
REMARK  status: ('A' for Active; 'I' for Inactive)
REMARK    1  A    between atoms: C_1  and  C_2
REMARK    2  A    between atoms: C_7  and  N_8
REMARK    3  A    between atoms: C_12  and  S_13
REMARK    4  A    between atoms: S_13  and  C_14
REMARK    5  A    between atoms: C_14  and  C_15
REMARK                            x       y       z     vdW  Elec       q    Type
REMARK                         _______ _______ _______ _____ _____    ______ ____
ROOT
ATOM      1  N   UNL     1       9.334   9.620  19.239  0.00  0.00    +0.000 N 
ATOM      2  C   UNL     1       8.584   8.732  18.539  0.00  0.00    +0.000 A 
ATOM      3  N   UNL     1       7.847   8.867  17.451  0.00  0.00    +0.000 NA
ATOM      4  N   UNL     1       7.297   7.650  17.126  0.00  0.00    +0.000 NA
ATOM      5  C   UNL     1       7.695   6.798  18.033  0.00  0.00    +0.000 A 
ATOM      6  N   UNL     1       8.485   7.425  18.949  0.00  0.00    +0.000 N 
ATOM      7  H   UNL     1       9.849   9.314  20.052  0.00  0.00    +0.000 HD
ATOM      8  H   UNL     1       8.908   7.004  19.757  0.00  0.00    +0.000 HD
ENDROOT
BRANCH   1  15
ATOM      9  C   UNL     1       8.964  11.384  21.594  0.00  0.00    +0.000 C 
ATOM     10  C   UNL     1       9.096  11.890  20.182  0.00  0.00    +0.000 A 
ATOM     11  C   UNL     1       8.946  13.276  19.972  0.00  0.00    +0.000 A 
ATOM     12  C   UNL     1       9.087  13.832  18.704  0.00  0.00    +0.000 A 
ATOM     13  C   UNL     1       9.410  13.014  17.634  0.00  0.00    +0.000 A 
ATOM     14  C   UNL     1       9.540  11.637  17.825  0.00  0.00    +0.000 A 
ATOM     15  C   UNL     1       9.343  11.033  19.079  0.00  0.00    +0.000 A 
ENDBRANCH   1  15
BRANCH   5  16
ATOM     16  S   UNL     1       7.360   5.110  18.113  0.00  0.00    +0.000 S 
BRANCH  16  17
ATOM     17  C   UNL     1       5.762   5.093  17.243  0.00  0.00    +0.000 C 
BRANCH  17  18
ATOM     18  C   UNL     1       4.579   5.066  18.184  0.00  0.00    +0.000 A 
ATOM     19  C   UNL     1       3.663   6.134  18.209  0.00  0.00    +0.000 A 
ATOM     20  C   UNL     1       2.534   6.086  19.031  0.00  0.00    +0.000 A 
ATOM     21  C   UNL     1       2.317   4.974  19.837  0.00  0.00    +0.000 A 
ATOM     22  F   UNL     1       1.222   4.923  20.607  0.00  0.00    +0.000 F 
ATOM     23  C   UNL     1       3.227   3.925  19.840  0.00  0.00    +0.000 A 
ATOM     24  F   UNL     1       3.016   2.852  20.615  0.00  0.00    +0.000 F 
ATOM     25  C   UNL     1       4.356   3.963  19.022  0.00  0.00    +0.000 A 
ENDBRANCH  17  18
ENDBRANCH  16  17
ENDBRANCH   5  16
TORSDOF 4
ENDMDL
MODEL 7
REMARK VINA RESULT:      -7.9      1.759      2.248
REMARK  Name = 
REMARK  5 active torsions:
REMARK  status: ('A' for Active; 'I' for Inactive)
REMARK    1  A    between atoms: C_1  and  C_2
REMARK    2  A    between atoms: C_7  and  N_8
REMARK    3  A    between atoms: C_12  and  S_13
REMARK    4  A    between atoms: S_13  and  C_14
REMARK    5  A    between atoms: C_14  and  C_15
REMARK                            x       y       z     vdW  Elec       q    Type
REMARK                         _______ _______ _______ _____ _____    ______ ____
ROOT
ATOM      1  N   UNL     1       8.600  10.512  18.085  0.00  0.00    +0.000 N 
ATOM      2  C   UNL     1       8.231   9.205  18.074  0.00  0.00    +0.000 A 
ATOM      3  N   UNL     1       8.745   8.142  18.662  0.00  0.00    +0.000 NA
ATOM      4  N   UNL     1       7.983   7.041  18.348  0.00  0.00    +0.000 NA
ATOM      5  C   UNL     1       7.027   7.453  17.558  0.00  0.00    +0.000 A 
ATOM      6  N   UNL     1       7.146   8.792  17.339  0.00  0.00    +0.000 N 
ATOM      7  H   UNL     1       8.056  11.193  17.573  0.00  0.00    +0.000 HD
ATOM      8  H   UNL     1       6.551   9.355  16.757  0.00  0.00    +0.000 HD
ENDROOT
BRANCH   1  15
ATOM      9  C   UNL     1       8.937  10.904  21.004  0.00  0.00    +0.000 C 
ATOM     10  C   UNL     1       9.966  11.306  19.981  0.00  0.00    +0.000 A 
ATOM     11  C   UNL     1      11.112  11.985  20.445  0.00  0.00    +0.000 A 
ATOM     12  C   UNL     1      12.128  12.362  19.572  0.00  0.00    +0.000 A 
ATOM     13  C   UNL     1      12.027  12.038  18.229  0.00  0.00    +0.000 A 
ATOM     14  C   UNL     1      10.888  11.384  17.754  0.00  0.00    +0.000 A 
ATOM     15  C   UNL     1       9.815  11.045  18.595  0.00  0.00    +0.000 A 
ENDBRANCH   1  15
BRANCH   5  16
ATOM     16  S   UNL     1       5.742   6.524  16.885  0.00  0.00    +0.000 S 
BRANCH  16  17
ATOM     17  C   UNL     1       5.686   5.180  18.111  0.00  0.00    +0.000 C 
BRANCH  17  18
ATOM     18  C   UNL     1       4.281   4.854  18.563  0.00  0.00    +0.000 A 
ATOM     19  C   UNL     1       3.614   3.722  18.058  0.00  0.00    +0.000 A 
ATOM     20  C   UNL     1       2.339   3.382  18.520  0.00  0.00    +0.000 A 
ATOM     21  C   UNL     1       1.723   4.172  19.483  0.00  0.00    +0.000 A 
ATOM     22  F   UNL     1       0.510   3.828  19.939  0.00  0.00    +0.000 F 
ATOM     23  C   UNL     1       2.361   5.304  19.971  0.00  0.00    +0.000 A 
ATOM     24  F   UNL     1       1.766   6.065  20.901  0.00  0.00    +0.000 F 
ATOM     25  C   UNL     1       3.633   5.654  19.517  0.00  0.00    +0.000 A 
ENDBRANCH  17  18
ENDBRANCH  16  17
ENDBRANCH   5  16
TORSDOF 4
ENDMDL
MODEL 8
REMARK VINA RESULT:      -7.8      6.485      9.000
REMARK  Name = 
REMARK  5 active torsions:
REMARK  status: ('A' for Active; 'I' for Inactive)
REMARK    1  A    between atoms: C_1  and  C_2
REMARK    2  A    between atoms: C_7  and  N_8
REMARK    3  A    between atoms: C_12  and  S_13
REMARK    4  A    between atoms: S_13  and  C_14
REMARK    5  A    between atoms: C_14  and  C_15
REMARK                            x       y       z     vdW  Elec       q    Type
REMARK                         _______ _______ _______ _____ _____    ______ ____
ROOT
ATOM      1  N   UNL     1       2.318   6.478  20.145  0.00  0.00    +0.000 N 
ATOM      2  C   UNL     1       2.137   7.543  19.324  0.00  0.00    +0.000 A 
ATOM      3  N   UNL     1       2.365   7.709  18.034  0.00  0.00    +0.000 NA
ATOM      4  N   UNL     1       1.991   8.981  17.670  0.00  0.00    +0.000 NA
ATOM      5  C   UNL     1       1.557   9.574  18.751  0.00  0.00    +0.000 A 
ATOM      6  N   UNL     1       1.645   8.728  19.815  0.00  0.00    +0.000 N 
ATOM      7  H   UNL     1       2.061   6.544  21.120  0.00  0.00    +0.000 HD
ATOM      8  H   UNL     1       1.392   8.938  20.765  0.00  0.00    +0.000 HD
ENDROOT
BRANCH   1  15
ATOM      9  C   UNL     1       0.961   3.850  20.356  0.00  0.00    +0.000 C 
ATOM     10  C   UNL     1       2.416   4.015  20.004  0.00  0.00    +0.000 A 
ATOM     11  C   UNL     1       3.185   2.842  19.855  0.00  0.00    +0.000 A 
ATOM     12  C   UNL     1       4.528   2.902  19.498  0.00  0.00    +0.000 A 
ATOM     13  C   UNL     1       5.113   4.134  19.253  0.00  0.00    +0.000 A 
ATOM     14  C   UNL     1       4.368   5.304  19.418  0.00  0.00    +0.000 A 
ATOM     15  C   UNL     1       3.028   5.284  19.839  0.00  0.00    +0.000 A 
ENDBRANCH   1  15
BRANCH   5  16
ATOM     16  S   UNL     1       0.912  11.165  18.894  0.00  0.00    +0.000 S 
BRANCH  16  17
ATOM     17  C   UNL     1      -0.772  10.744  19.441  0.00  0.00    +0.000 C 
BRANCH  17  18
ATOM     18  C   UNL     1      -1.775  10.744  18.311  0.00  0.00    +0.000 A 
ATOM     19  C   UNL     1      -1.610   9.883  17.210  0.00  0.00    +0.000 A 
ATOM     20  C   UNL     1      -2.568   9.834  16.194  0.00  0.00    +0.000 A 
ATOM     21  C   UNL     1      -3.692  10.649  16.268  0.00  0.00    +0.000 A 
ATOM     22  F   UNL     1      -4.618  10.582  15.303  0.00  0.00    +0.000 F 
ATOM     23  C   UNL     1      -3.854  11.521  17.337  0.00  0.00    +0.000 A 
ATOM     24  F   UNL     1      -4.939  12.305  17.409  0.00  0.00    +0.000 F 
ATOM     25  C   UNL     1      -2.905  11.577  18.357  0.00  0.00    +0.000 A 
ENDBRANCH  17  18
ENDBRANCH  16  17
ENDBRANCH   5  16
TORSDOF 4
ENDMDL
MODEL 9
REMARK VINA RESULT:      -7.8      0.884      1.618
REMARK  Name = 
REMARK  5 active torsions:
REMARK  status: ('A' for Active; 'I' for Inactive)
REMARK    1  A    between atoms: C_1  and  C_2
REMARK    2  A    between atoms: C_7  and  N_8
REMARK    3  A    between atoms: C_12  and  S_13
REMARK    4  A    between atoms: S_13  and  C_14
REMARK    5  A    between atoms: C_14  and  C_15
REMARK                            x       y       z     vdW  Elec       q    Type
REMARK                         _______ _______ _______ _____ _____    ______ ____
ROOT
ATOM      1  N   UNL     1       9.552   9.746  19.682  0.00  0.00    +0.000 N 
ATOM      2  C   UNL     1       8.712   9.112  18.825  0.00  0.00    +0.000 A 
ATOM      3  N   UNL     1       7.909   9.568  17.882  0.00  0.00    +0.000 NA
ATOM      4  N   UNL     1       7.278   8.507  17.276  0.00  0.00    +0.000 NA
ATOM      5  C   UNL     1       7.698   7.423  17.874  0.00  0.00    +0.000 A 
ATOM      6  N   UNL     1       8.579   7.745  18.861  0.00  0.00    +0.000 N 
ATOM      7  H   UNL     1      10.108   9.209  20.333  0.00  0.00    +0.000 HD
ATOM      8  H   UNL     1       9.037   7.102  19.483  0.00  0.00    +0.000 HD
ENDROOT
BRANCH   1  15
ATOM      9  C   UNL     1      10.917  11.521  17.739  0.00  0.00    +0.000 C 
ATOM     10  C   UNL     1      10.330  11.999  19.040  0.00  0.00    +0.000 A 
ATOM     11  C   UNL     1      10.524  13.354  19.381  0.00  0.00    +0.000 A 
ATOM     12  C   UNL     1       9.986  13.887  20.548  0.00  0.00    +0.000 A 
ATOM     13  C   UNL     1       9.220  13.082  21.375  0.00  0.00    +0.000 A 
ATOM     14  C   UNL     1       9.038  11.734  21.059  0.00  0.00    +0.000 A 
ATOM     15  C   UNL     1       9.619  11.146  19.922  0.00  0.00    +0.000 A 
ENDBRANCH   1  15
BRANCH   5  16
ATOM     16  S   UNL     1       7.287   5.791  17.507  0.00  0.00    +0.000 S 
BRANCH  16  17
ATOM     17  C   UNL     1       6.354   5.383  19.015  0.00  0.00    +0.000 C 
BRANCH  17  18
ATOM     18  C   UNL     1       4.913   5.024  18.738  0.00  0.00    +0.000 A 
ATOM     19  C   UNL     1       4.005   6.005  18.297  0.00  0.00    +0.000 A 
ATOM     20  C   UNL     1       2.687   5.665  17.979  0.00  0.00    +0.000 A 
ATOM     21  C   UNL     1       2.268   4.346  18.105  0.00  0.00    +0.000 A 
ATOM     22  F   UNL     1       1.010   4.021  17.777  0.00  0.00    +0.000 F 
ATOM     23  C   UNL     1       3.147   3.374  18.562  0.00  0.00    +0.000 A 
ATOM     24  F   UNL     1       2.742   2.101  18.681  0.00  0.00    +0.000 F 
ATOM     25  C   UNL     1       4.464   3.701  18.882  0.00  0.00    +0.000 A 
ENDBRANCH  17  18
ENDBRANCH  16  17
ENDBRANCH   5  16
TORSDOF 4
ENDMDL
