MODEL 1
REMARK VINA RESULT:      -8.7      0.000      0.000
REMARK  Name = 
REMARK  9 active torsions:
REMARK  status: ('A' for Active; 'I' for Inactive)
REMARK    1  A    between atoms: C_1  and  O_2
REMARK    2  A    between atoms: O_2  and  C_3
REMARK    3  A    between atoms: C_5  and  C_6
REMARK    4  A    between atoms: C_12  and  C_13
REMARK    5  A    between atoms: N_15  and  C_16
REMARK    6  A    between atoms: C_26  and  O_27
REMARK    7  A    between atoms: O_27  and  C_28
REMARK    8  A    between atoms: C_29  and  O_30
REMARK    9  A    between atoms: O_30  and  C_31
REMARK                            x       y       z     vdW  Elec       q    Type
REMARK                         _______ _______ _______ _____ _____    ______ ____
ROOT
ATOM      1  C   UNL     1       4.092   3.624  17.586  0.00  0.00    +0.000 A 
ATOM      2  C   UNL     1       3.860   2.230  17.738  0.00  0.00    +0.000 A 
ATOM      3  C   UNL     1       2.777   1.717  18.442  0.00  0.00    +0.000 A 
ATOM      4  C   UNL     1       1.874   2.569  19.076  0.00  0.00    +0.000 A 
ATOM      5  C   UNL     1       2.113   3.946  19.001  0.00  0.00    +0.000 A 
ATOM      6  N   UNL     1       1.437   5.017  19.549  0.00  0.00    +0.000 N 
ATOM      7  C   UNL     1       2.086   6.175  19.230  0.00  0.00    +0.000 A 
ATOM      8  N   UNL     1       3.105   5.886  18.421  0.00  0.00    +0.000 NA
ATOM      9  C   UNL     1       3.180   4.496  18.280  0.00  0.00    +0.000 A 
ATOM     10  H   UNL     1       0.627   4.950  20.151  0.00  0.00    +0.000 HD
ENDROOT
BRANCH   7  11
ATOM     11  C   UNL     1       1.829   7.561  19.777  0.00  0.00    +0.000 A 
ATOM     12  C   UNL     1       1.618   7.675  21.145  0.00  0.00    +0.000 A 
ATOM     13  N   UNL     1       0.784   8.749  21.271  0.00  0.00    +0.000 N 
ATOM     14  C   UNL     1      -0.587   8.627  21.737  0.00  0.00    +0.000 C 
ATOM     15  C   UNL     1       1.151   9.680  20.329  0.00  0.00    +0.000 A 
ATOM     16  C   UNL     1       0.925  11.059  20.309  0.00  0.00    +0.000 A 
ATOM     17  C   UNL     1       1.231  11.760  19.147  0.00  0.00    +0.000 A 
ATOM     18  C   UNL     1       1.684  11.062  18.042  0.00  0.00    +0.000 A 
ATOM     19  C   UNL     1       1.893   9.652  18.064  0.00  0.00    +0.000 A 
ATOM     20  C   UNL     1       1.686   8.926  19.263  0.00  0.00    +0.000 A 
ENDBRANCH   7  11
BRANCH   1  23
ATOM     21  C   UNL     1       6.364   3.960  14.503  0.00  0.00    +0.000 A 
ATOM     22  C   UNL     1       5.449   3.464  15.455  0.00  0.00    +0.000 A 
ATOM     23  C   UNL     1       5.188   4.098  16.693  0.00  0.00    +0.000 A 
ATOM     24  C   UNL     1       6.020   5.172  17.003  0.00  0.00    +0.000 A 
ATOM     25  C   UNL     1       6.992   5.652  16.099  0.00  0.00    +0.000 A 
ATOM     26  C   UNL     1       7.156   5.074  14.818  0.00  0.00    +0.000 A 
BRANCH  21  28
ATOM     27  C   UNL     1       5.420   3.338  12.403  0.00  0.00    +0.000 C 
ATOM     28  O   UNL     1       6.535   3.323  13.296  0.00  0.00    +0.000 OA
ENDBRANCH  21  28
BRANCH  25  29
ATOM     29  O   UNL     1       7.756   6.663  16.637  0.00  0.00    +0.000 OA
ATOM     30  C   UNL     1       7.661   6.851  18.043  0.00  0.00    +0.000 C 
ENDBRANCH  25  29
BRANCH  26  31
ATOM     31  O   UNL     1       8.118   5.636  14.019  0.00  0.00    +0.000 OA
ATOM     32  C   UNL     1       7.963   5.657  12.608  0.00  0.00    +0.000 C 
ENDBRANCH  26  31
ENDBRANCH   1  23
TORSDOF 5
ENDMDL
MODEL 2
REMARK VINA RESULT:      -8.5      0.238      2.318
REMARK  Name = 
REMARK  9 active torsions:
REMARK  status: ('A' for Active; 'I' for Inactive)
REMARK    1  A    between atoms: C_1  and  O_2
REMARK    2  A    between atoms: O_2  and  C_3
REMARK    3  A    between atoms: C_5  and  C_6
REMARK    4  A    between atoms: C_12  and  C_13
REMARK    5  A    between atoms: N_15  and  C_16
REMARK    6  A    between atoms: C_26  and  O_27
REMARK    7  A    between atoms: O_27  and  C_28
REMARK    8  A    between atoms: C_29  and  O_30
REMARK    9  A    between atoms: O_30  and  C_31
REMARK                            x       y       z     vdW  Elec       q    Type
REMARK                         _______ _______ _______ _____ _____    ______ ____
ROOT
ATOM      1  C   UNL     1       4.068   3.668  17.615  0.00  0.00    +0.000 A 
ATOM      2  C   UNL     1       3.896   2.270  17.808  0.00  0.00    +0.000 A 
ATOM      3  C   UNL     1       2.879   1.736  18.590  0.00  0.00    +0.000 A 
ATOM      4  C   UNL     1       1.987   2.569  19.263  0.00  0.00    +0.000 A 
ATOM      5  C   UNL     1       2.173   3.952  19.147  0.00  0.00    +0.000 A 
ATOM      6  N   UNL     1       1.494   5.010  19.717  0.00  0.00    +0.000 N 
ATOM      7  C   UNL     1       2.080   6.183  19.335  0.00  0.00    +0.000 A 
ATOM      8  N   UNL     1       3.055   5.912  18.467  0.00  0.00    +0.000 NA
ATOM      9  C   UNL     1       3.170   4.523  18.349  0.00  0.00    +0.000 A 
ATOM     10  H   UNL     1       0.727   4.929  20.371  0.00  0.00    +0.000 HD
ENDROOT
BRANCH   7  11
ATOM     11  C   UNL     1       1.809   7.571  19.871  0.00  0.00    +0.000 A 
ATOM     12  C   UNL     1       1.598   7.693  21.238  0.00  0.00    +0.000 A 
ATOM     13  N   UNL     1       0.753   8.760  21.356  0.00  0.00    +0.000 N 
ATOM     14  C   UNL     1      -0.617   8.627  21.824  0.00  0.00    +0.000 C 
ATOM     15  C   UNL     1       1.108   9.687  20.405  0.00  0.00    +0.000 A 
ATOM     16  C   UNL     1       0.868  11.063  20.374  0.00  0.00    +0.000 A 
ATOM     17  C   UNL     1       1.165  11.757  19.206  0.00  0.00    +0.000 A 
ATOM     18  C   UNL     1       1.624  11.056  18.106  0.00  0.00    +0.000 A 
ATOM     19  C   UNL     1       1.848   9.648  18.140  0.00  0.00    +0.000 A 
ATOM     20  C   UNL     1       1.650   8.929  19.345  0.00  0.00    +0.000 A 
ENDBRANCH   7  11
BRANCH   1  23
ATOM     21  C   UNL     1       7.004   5.669  16.145  0.00  0.00    +0.000 A 
ATOM     22  C   UNL     1       5.923   5.259  16.954  0.00  0.00    +0.000 A 
ATOM     23  C   UNL     1       5.087   4.160  16.644  0.00  0.00    +0.000 A 
ATOM     24  C   UNL     1       5.285   3.594  15.386  0.00  0.00    +0.000 A 
ATOM     25  C   UNL     1       6.316   4.025  14.523  0.00  0.00    +0.000 A 
ATOM     26  C   UNL     1       7.214   5.049  14.904  0.00  0.00    +0.000 A 
BRANCH  21  28
ATOM     27  C   UNL     1       7.270   7.617  17.494  0.00  0.00    +0.000 C 
ATOM     28  O   UNL     1       7.811   6.714  16.529  0.00  0.00    +0.000 OA
ENDBRANCH  21  28
BRANCH  25  29
ATOM     29  O   UNL     1       6.280   3.388  13.304  0.00  0.00    +0.000 OA
ATOM     30  C   UNL     1       5.060   3.468  12.580  0.00  0.00    +0.000 C 
ENDBRANCH  25  29
BRANCH  26  31
ATOM     31  O   UNL     1       8.186   5.371  13.993  0.00  0.00    +0.000 OA
ATOM     32  C   UNL     1       7.849   5.626  12.637  0.00  0.00    +0.000 C 
ENDBRANCH  26  31
ENDBRANCH   1  23
TORSDOF 5
ENDMDL
MODEL 3
REMARK VINA RESULT:      -8.0      1.122      2.610
REMARK  Name = 
REMARK  9 active torsions:
REMARK  status: ('A' for Active; 'I' for Inactive)
REMARK    1  A    between atoms: C_1  and  O_2
REMARK    2  A    between atoms: O_2  and  C_3
REMARK    3  A    between atoms: C_5  and  C_6
REMARK    4  A    between atoms: C_12  and  C_13
REMARK    5  A    between atoms: N_15  and  C_16
REMARK    6  A    between atoms: C_26  and  O_27
REMARK    7  A    between atoms: O_27  and  C_28
REMARK    8  A    between atoms: C_29  and  O_30
REMARK    9  A    between atoms: O_30  and  C_31
REMARK                            x       y       z     vdW  Elec       q    Type
REMARK                         _______ _______ _______ _____ _____    ______ ____
ROOT
ATOM      1  C   UNL     1       3.690   4.264  18.648  0.00  0.00    +0.000 A 
ATOM      2  C   UNL     1       3.509   2.887  18.953  0.00  0.00    +0.000 A 
ATOM      3  C   UNL     1       2.494   2.425  19.782  0.00  0.00    +0.000 A 
ATOM      4  C   UNL     1       1.614   3.318  20.393  0.00  0.00    +0.000 A 
ATOM      5  C   UNL     1       1.808   4.684  20.165  0.00  0.00    +0.000 A 
ATOM      6  N   UNL     1       1.142   5.791  20.653  0.00  0.00    +0.000 N 
ATOM      7  C   UNL     1       1.734   6.924  20.174  0.00  0.00    +0.000 A 
ATOM      8  N   UNL     1       2.701   6.577  19.325  0.00  0.00    +0.000 NA
ATOM      9  C   UNL     1       2.805   5.182  19.317  0.00  0.00    +0.000 A 
ATOM     10  H   UNL     1       0.380   5.768  21.316  0.00  0.00    +0.000 HD
ENDROOT
BRANCH   7  11
ATOM     11  C   UNL     1       1.478   8.353  20.599  0.00  0.00    +0.000 A 
ATOM     12  C   UNL     1       1.653   8.657  21.942  0.00  0.00    +0.000 A 
ATOM     13  N   UNL     1       0.766   9.668  22.180  0.00  0.00    +0.000 N 
ATOM     14  C   UNL     1      -0.390   9.509  23.046  0.00  0.00    +0.000 C 
ATOM     15  C   UNL     1       0.732  10.470  21.064  0.00  0.00    +0.000 A 
ATOM     16  C   UNL     1       0.345  11.807  20.944  0.00  0.00    +0.000 A 
ATOM     17  C   UNL     1       0.219  12.344  19.667  0.00  0.00    +0.000 A 
ATOM     18  C   UNL     1       0.418  11.524  18.571  0.00  0.00    +0.000 A 
ATOM     19  C   UNL     1       0.795  10.155  18.702  0.00  0.00    +0.000 A 
ATOM     20  C   UNL     1       1.028   9.606  19.987  0.00  0.00    +0.000 A 
ENDBRANCH   7  11
BRANCH   1  23
ATOM     21  C   UNL     1       6.481   6.257  16.909  0.00  0.00    +0.000 A 
ATOM     22  C   UNL     1       5.405   5.893  17.746  0.00  0.00    +0.000 A 
ATOM     23  C   UNL     1       4.706   4.668  17.634  0.00  0.00    +0.000 A 
ATOM     24  C   UNL     1       5.033   3.892  16.523  0.00  0.00    +0.000 A 
ATOM     25  C   UNL     1       6.061   4.260  15.628  0.00  0.00    +0.000 A 
ATOM     26  C   UNL     1       6.825   5.434  15.827  0.00  0.00    +0.000 A 
BRANCH  21  28
ATOM     27  C   UNL     1       8.033   7.499  18.227  0.00  0.00    +0.000 C 
ATOM     28  O   UNL     1       7.152   7.441  17.104  0.00  0.00    +0.000 OA
ENDBRANCH  21  28
BRANCH  25  29
ATOM     29  O   UNL     1       6.161   3.396  14.561  0.00  0.00    +0.000 OA
ATOM     30  C   UNL     1       5.235   3.586  13.500  0.00  0.00    +0.000 C 
ENDBRANCH  25  29
BRANCH  26  31
ATOM     31  O   UNL     1       7.808   5.679  14.904  0.00  0.00    +0.000 OA
ATOM     32  C   UNL     1       7.545   5.543  13.515  0.00  0.00    +0.000 C 
ENDBRANCH  26  31
ENDBRANCH   1  23
TORSDOF 5
ENDMDL
MODEL 4
REMARK VINA RESULT:      -7.8      3.138      7.851
REMARK  Name = 
REMARK  9 active torsions:
REMARK  status: ('A' for Active; 'I' for Inactive)
REMARK    1  A    between atoms: C_1  and  O_2
REMARK    2  A    between atoms: O_2  and  C_3
REMARK    3  A    between atoms: C_5  and  C_6
REMARK    4  A    between atoms: C_12  and  C_13
REMARK    5  A    between atoms: N_15  and  C_16
REMARK    6  A    between atoms: C_26  and  O_27
REMARK    7  A    between atoms: O_27  and  C_28
REMARK    8  A    between atoms: C_29  and  O_30
REMARK    9  A    between atoms: O_30  and  C_31
REMARK                            x       y       z     vdW  Elec       q    Type
REMARK                         _______ _______ _______ _____ _____    ______ ____
ROOT
ATOM      1  C   UNL     1       1.821   5.572  20.208  0.00  0.00    +0.000 A 
ATOM      2  C   UNL     1       0.934   4.681  20.871  0.00  0.00    +0.000 A 
ATOM      3  C   UNL     1       1.149   3.310  20.934  0.00  0.00    +0.000 A 
ATOM      4  C   UNL     1       2.250   2.733  20.301  0.00  0.00    +0.000 A 
ATOM      5  C   UNL     1       3.105   3.576  19.583  0.00  0.00    +0.000 A 
ATOM      6  N   UNL     1       4.230   3.303  18.831  0.00  0.00    +0.000 N 
ATOM      7  C   UNL     1       4.700   4.462  18.281  0.00  0.00    +0.000 A 
ATOM      8  N   UNL     1       3.964   5.479  18.729  0.00  0.00    +0.000 NA
ATOM      9  C   UNL     1       2.931   4.964  19.520  0.00  0.00    +0.000 A 
ATOM     10  H   UNL     1       4.607   2.382  18.658  0.00  0.00    +0.000 HD
ENDROOT
BRANCH   7  11
ATOM     11  C   UNL     1       5.776   4.616  17.230  0.00  0.00    +0.000 A 
ATOM     12  C   UNL     1       7.013   5.085  17.652  0.00  0.00    +0.000 A 
ATOM     13  N   UNL     1       7.508   5.757  16.571  0.00  0.00    +0.000 N 
ATOM     14  C   UNL     1       7.702   7.198  16.564  0.00  0.00    +0.000 C 
ATOM     15  C   UNL     1       7.135   5.070  15.441  0.00  0.00    +0.000 A 
ATOM     16  C   UNL     1       7.709   5.078  14.167  0.00  0.00    +0.000 A 
ATOM     17  C   UNL     1       7.032   4.438  13.134  0.00  0.00    +0.000 A 
ATOM     18  C   UNL     1       5.794   3.877  13.390  0.00  0.00    +0.000 A 
ATOM     19  C   UNL     1       5.205   3.890  14.688  0.00  0.00    +0.000 A 
ATOM     20  C   UNL     1       5.916   4.445  15.781  0.00  0.00    +0.000 A 
ENDBRANCH   7  11
BRANCH   1  23
ATOM     21  C   UNL     1       1.306   9.240  19.176  0.00  0.00    +0.000 A 
ATOM     22  C   UNL     1       1.655   7.873  19.165  0.00  0.00    +0.000 A 
ATOM     23  C   UNL     1       1.604   7.044  20.310  0.00  0.00    +0.000 A 
ATOM     24  C   UNL     1       1.346   7.699  21.513  0.00  0.00    +0.000 A 
ATOM     25  C   UNL     1       1.058   9.080  21.568  0.00  0.00    +0.000 A 
ATOM     26  C   UNL     1       1.000   9.867  20.394  0.00  0.00    +0.000 A 
BRANCH  21  28
ATOM     27  C   UNL     1       2.379  10.939  17.891  0.00  0.00    +0.000 C 
ATOM     28  O   UNL     1       1.328   9.979  18.017  0.00  0.00    +0.000 OA
ENDBRANCH  21  28
BRANCH  25  29
ATOM     29  O   UNL     1       0.915   9.536  22.859  0.00  0.00    +0.000 OA
ATOM     30  C   UNL     1      -0.408   9.579  23.374  0.00  0.00    +0.000 C 
ENDBRANCH  25  29
BRANCH  26  31
ATOM     31  O   UNL     1       0.694  11.191  20.568  0.00  0.00    +0.000 OA
ATOM     32  C   UNL     1      -0.627  11.663  20.343  0.00  0.00    +0.000 C 
ENDBRANCH  26  31
ENDBRANCH   1  23
TORSDOF 5
ENDMDL
MODEL 5
REMARK VINA RESULT:      -7.7      3.566      7.183
REMARK  Name = 
REMARK  9 active torsions:
REMARK  status: ('A' for Active; 'I' for Inactive)
REMARK    1  A    between atoms: C_1  and  O_2
REMARK    2  A    between atoms: O_2  and  C_3
REMARK    3  A    between atoms: C_5  and  C_6
REMARK    4  A    between atoms: C_12  and  C_13
REMARK    5  A    between atoms: N_15  and  C_16
REMARK    6  A    between atoms: C_26  and  O_27
REMARK    7  A    between atoms: O_27  and  C_28
REMARK    8  A    between atoms: C_29  and  O_30
REMARK    9  A    between atoms: O_30  and  C_31
REMARK                            x       y       z     vdW  Elec       q    Type
REMARK                         _______ _______ _______ _____ _____    ______ ____
ROOT
ATOM      1  C   UNL     1       0.747   9.233  21.262  0.00  0.00    +0.000 A 
ATOM      2  C   UNL     1       0.017   8.926  22.443  0.00  0.00    +0.000 A 
ATOM      3  C   UNL     1      -0.763   9.861  23.112  0.00  0.00    +0.000 A 
ATOM      4  C   UNL     1      -0.833  11.180  22.664  0.00  0.00    +0.000 A 
ATOM      5  C   UNL     1      -0.072  11.529  21.544  0.00  0.00    +0.000 A 
ATOM      6  N   UNL     1       0.097  12.739  20.902  0.00  0.00    +0.000 N 
ATOM      7  C   UNL     1       0.982  12.587  19.873  0.00  0.00    +0.000 A 
ATOM      8  N   UNL     1       1.316  11.300  19.781  0.00  0.00    +0.000 NA
ATOM      9  C   UNL     1       0.705  10.607  20.832  0.00  0.00    +0.000 A 
ATOM     10  H   UNL     1      -0.315  13.616  21.190  0.00  0.00    +0.000 HD
ENDROOT
BRANCH   7  11
ATOM     11  C   UNL     1       1.621  13.671  19.034  0.00  0.00    +0.000 A 
ATOM     12  C   UNL     1       2.833  13.372  18.425  0.00  0.00    +0.000 A 
ATOM     13  N   UNL     1       3.483  14.571  18.356  0.00  0.00    +0.000 N 
ATOM     14  C   UNL     1       4.687  14.856  19.118  0.00  0.00    +0.000 C 
ATOM     15  C   UNL     1       2.547  15.542  18.089  0.00  0.00    +0.000 A 
ATOM     16  C   UNL     1       2.719  16.806  17.518  0.00  0.00    +0.000 A 
ATOM     17  C   UNL     1       1.640  17.684  17.525  0.00  0.00    +0.000 A 
ATOM     18  C   UNL     1       0.466  17.300  18.147  0.00  0.00    +0.000 A 
ATOM     19  C   UNL     1       0.305  16.016  18.744  0.00  0.00    +0.000 A 
ATOM     20  C   UNL     1       1.351  15.063  18.665  0.00  0.00    +0.000 A 
ENDBRANCH   7  11
BRANCH   1  23
ATOM     21  C   UNL     1       2.078   5.742  20.355  0.00  0.00    +0.000 A 
ATOM     22  C   UNL     1       1.574   6.848  21.071  0.00  0.00    +0.000 A 
ATOM     23  C   UNL     1       1.440   8.143  20.517  0.00  0.00    +0.000 A 
ATOM     24  C   UNL     1       1.998   8.313  19.252  0.00  0.00    +0.000 A 
ATOM     25  C   UNL     1       2.571   7.241  18.534  0.00  0.00    +0.000 A 
ATOM     26  C   UNL     1       2.589   5.929  19.062  0.00  0.00    +0.000 A 
BRANCH  21  28
ATOM     27  C   UNL     1       1.018   3.635  20.710  0.00  0.00    +0.000 C 
ATOM     28  O   UNL     1       2.134   4.497  20.936  0.00  0.00    +0.000 OA
ENDBRANCH  21  28
BRANCH  25  29
ATOM     29  O   UNL     1       3.134   7.646  17.345  0.00  0.00    +0.000 OA
ATOM     30  C   UNL     1       4.484   7.267  17.120  0.00  0.00    +0.000 C 
ENDBRANCH  25  29
BRANCH  26  31
ATOM     31  O   UNL     1       3.153   4.965  18.268  0.00  0.00    +0.000 OA
ATOM     32  C   UNL     1       2.342   4.140  17.445  0.00  0.00    +0.000 C 
ENDBRANCH  26  31
ENDBRANCH   1  23
TORSDOF 5
ENDMDL
MODEL 6
REMARK VINA RESULT:      -7.7      1.331      1.559
REMARK  Name = 
REMARK  9 active torsions:
REMARK  status: ('A' for Active; 'I' for Inactive)
REMARK    1  A    between atoms: C_1  and  O_2
REMARK    2  A    between atoms: O_2  and  C_3
REMARK    3  A    between atoms: C_5  and  C_6
REMARK    4  A    between atoms: C_12  and  C_13
REMARK    5  A    between atoms: N_15  and  C_16
REMARK    6  A    between atoms: C_26  and  O_27
REMARK    7  A    between atoms: O_27  and  C_28
REMARK    8  A    between atoms: C_29  and  O_30
REMARK    9  A    between atoms: O_30  and  C_31
REMARK                            x       y       z     vdW  Elec       q    Type
REMARK                         _______ _______ _______ _____ _____    ______ ____
ROOT
ATOM      1  C   UNL     1       3.490   4.091  18.960  0.00  0.00    +0.000 A 
ATOM      2  C   UNL     1       3.213   2.732  19.274  0.00  0.00    +0.000 A 
ATOM      3  C   UNL     1       2.123   2.342  20.043  0.00  0.00    +0.000 A 
ATOM      4  C   UNL     1       1.258   3.293  20.584  0.00  0.00    +0.000 A 
ATOM      5  C   UNL     1       1.543   4.642  20.349  0.00  0.00    +0.000 A 
ATOM      6  N   UNL     1       0.912   5.792  20.777  0.00  0.00    +0.000 N 
ATOM      7  C   UNL     1       1.595   6.883  20.320  0.00  0.00    +0.000 A 
ATOM      8  N   UNL     1       2.592   6.467  19.539  0.00  0.00    +0.000 NA
ATOM      9  C   UNL     1       2.617   5.068  19.558  0.00  0.00    +0.000 A 
ATOM     10  H   UNL     1       0.109   5.824  21.391  0.00  0.00    +0.000 HD
ENDROOT
BRANCH   7  11
ATOM     11  C   UNL     1       1.393   8.331  20.707  0.00  0.00    +0.000 A 
ATOM     12  C   UNL     1       1.598   8.667  22.039  0.00  0.00    +0.000 A 
ATOM     13  N   UNL     1       0.750   9.713  22.259  0.00  0.00    +0.000 N 
ATOM     14  C   UNL     1      -0.398   9.619  23.145  0.00  0.00    +0.000 C 
ATOM     15  C   UNL     1       0.726  10.484  21.121  0.00  0.00    +0.000 A 
ATOM     16  C   UNL     1       0.382  11.829  20.968  0.00  0.00    +0.000 A 
ATOM     17  C   UNL     1       0.255  12.334  19.678  0.00  0.00    +0.000 A 
ATOM     18  C   UNL     1       0.411  11.477  18.603  0.00  0.00    +0.000 A 
ATOM     19  C   UNL     1       0.743  10.100  18.769  0.00  0.00    +0.000 A 
ATOM     20  C   UNL     1       0.977   9.581  20.066  0.00  0.00    +0.000 A 
ENDBRANCH   7  11
BRANCH   1  23
ATOM     21  C   UNL     1       5.322   4.859  15.668  0.00  0.00    +0.000 A 
ATOM     22  C   UNL     1       4.372   4.408  16.608  0.00  0.00    +0.000 A 
ATOM     23  C   UNL     1       4.588   4.420  18.007  0.00  0.00    +0.000 A 
ATOM     24  C   UNL     1       5.880   4.752  18.410  0.00  0.00    +0.000 A 
ATOM     25  C   UNL     1       6.875   5.144  17.488  0.00  0.00    +0.000 A 
ATOM     26  C   UNL     1       6.601   5.236  16.104  0.00  0.00    +0.000 A 
BRANCH  21  28
ATOM     27  C   UNL     1       5.178   3.630  13.630  0.00  0.00    +0.000 C 
ATOM     28  O   UNL     1       5.030   4.869  14.325  0.00  0.00    +0.000 OA
ENDBRANCH  21  28
BRANCH  25  29
ATOM     29  O   UNL     1       8.096   5.347  18.090  0.00  0.00    +0.000 OA
ATOM     30  C   UNL     1       8.073   5.825  19.428  0.00  0.00    +0.000 C 
ENDBRANCH  25  29
BRANCH  26  31
ATOM     31  O   UNL     1       7.639   5.646  15.308  0.00  0.00    +0.000 OA
ATOM     32  C   UNL     1       7.823   5.086  14.016  0.00  0.00    +0.000 C 
ENDBRANCH  26  31
ENDBRANCH   1  23
TORSDOF 5
ENDMDL
MODEL 7
REMARK VINA RESULT:      -7.6      3.531      7.137
REMARK  Name = 
REMARK  9 active torsions:
REMARK  status: ('A' for Active; 'I' for Inactive)
REMARK    1  A    between atoms: C_1  and  O_2
REMARK    2  A    between atoms: O_2  and  C_3
REMARK    3  A    between atoms: C_5  and  C_6
REMARK    4  A    between atoms: C_12  and  C_13
REMARK    5  A    between atoms: N_15  and  C_16
REMARK    6  A    between atoms: C_26  and  O_27
REMARK    7  A    between atoms: O_27  and  C_28
REMARK    8  A    between atoms: C_29  and  O_30
REMARK    9  A    between atoms: O_30  and  C_31
REMARK                            x       y       z     vdW  Elec       q    Type
REMARK                         _______ _______ _______ _____ _____    ______ ____
ROOT
ATOM      1  C   UNL     1       0.736   9.206  21.252  0.00  0.00    +0.000 A 
ATOM      2  C   UNL     1       0.021   8.914  22.446  0.00  0.00    +0.000 A 
ATOM      3  C   UNL     1      -0.724   9.866  23.131  0.00  0.00    +0.000 A 
ATOM      4  C   UNL     1      -0.773  11.186  22.687  0.00  0.00    +0.000 A 
ATOM      5  C   UNL     1      -0.025  11.520  21.552  0.00  0.00    +0.000 A 
ATOM      6  N   UNL     1       0.160  12.727  20.908  0.00  0.00    +0.000 N 
ATOM      7  C   UNL     1       1.021  12.556  19.862  0.00  0.00    +0.000 A 
ATOM      8  N   UNL     1       1.323  11.262  19.762  0.00  0.00    +0.000 NA
ATOM      9  C   UNL     1       0.717  10.582  20.824  0.00  0.00    +0.000 A 
ATOM     10  H   UNL     1      -0.227  13.613  21.205  0.00  0.00    +0.000 HD
ENDROOT
BRANCH   7  11
ATOM     11  C   UNL     1       1.668  13.627  19.012  0.00  0.00    +0.000 A 
ATOM     12  C   UNL     1       2.863  13.302  18.382  0.00  0.00    +0.000 A 
ATOM     13  N   UNL     1       3.537  14.487  18.302  0.00  0.00    +0.000 N 
ATOM     14  C   UNL     1       4.761  14.744  19.042  0.00  0.00    +0.000 C 
ATOM     15  C   UNL     1       2.618  15.478  18.052  0.00  0.00    +0.000 A 
ATOM     16  C   UNL     1       2.807  16.739  17.479  0.00  0.00    +0.000 A 
ATOM     17  C   UNL     1       1.748  17.640  17.505  0.00  0.00    +0.000 A 
ATOM     18  C   UNL     1       0.577  17.281  18.148  0.00  0.00    +0.000 A 
ATOM     19  C   UNL     1       0.399  16.000  18.748  0.00  0.00    +0.000 A 
ATOM     20  C   UNL     1       1.423  15.025  18.650  0.00  0.00    +0.000 A 
ENDBRANCH   7  11
BRANCH   1  23
ATOM     21  C   UNL     1       2.703   7.362  18.511  0.00  0.00    +0.000 A 
ATOM     22  C   UNL     1       1.940   8.322  19.208  0.00  0.00    +0.000 A 
ATOM     23  C   UNL     1       1.389   8.102  20.493  0.00  0.00    +0.000 A 
ATOM     24  C   UNL     1       1.500   6.800  20.976  0.00  0.00    +0.000 A 
ATOM     25  C   UNL     1       2.200   5.796  20.272  0.00  0.00    +0.000 A 
ATOM     26  C   UNL     1       2.843   6.071  19.042  0.00  0.00    +0.000 A 
BRANCH  21  28
ATOM     27  C   UNL     1       4.646   7.382  17.129  0.00  0.00    +0.000 C 
ATOM     28  O   UNL     1       3.253   7.658  17.286  0.00  0.00    +0.000 OA
ENDBRANCH  21  28
BRANCH  25  29
ATOM     29  O   UNL     1       2.117   4.568  20.888  0.00  0.00    +0.000 OA
ATOM     30  C   UNL     1       0.987   3.770  20.563  0.00  0.00    +0.000 C 
ENDBRANCH  25  29
BRANCH  26  31
ATOM     31  O   UNL     1       3.508   5.024  18.460  0.00  0.00    +0.000 OA
ATOM     32  C   UNL     1       2.856   4.191  17.513  0.00  0.00    +0.000 C 
ENDBRANCH  26  31
ENDBRANCH   1  23
TORSDOF 5
ENDMDL
MODEL 8
REMARK VINA RESULT:      -7.6      3.224      7.940
REMARK  Name = 
REMARK  9 active torsions:
REMARK  status: ('A' for Active; 'I' for Inactive)
REMARK    1  A    between atoms: C_1  and  O_2
REMARK    2  A    between atoms: O_2  and  C_3
REMARK    3  A    between atoms: C_5  and  C_6
REMARK    4  A    between atoms: C_12  and  C_13
REMARK    5  A    between atoms: N_15  and  C_16
REMARK    6  A    between atoms: C_26  and  O_27
REMARK    7  A    between atoms: O_27  and  C_28
REMARK    8  A    between atoms: C_29  and  O_30
REMARK    9  A    between atoms: O_30  and  C_31
REMARK                            x       y       z     vdW  Elec       q    Type
REMARK                         _______ _______ _______ _____ _____    ______ ____
ROOT
ATOM      1  C   UNL     1       1.905   5.176  20.418  0.00  0.00    +0.000 A 
ATOM      2  C   UNL     1       1.181   4.226  21.189  0.00  0.00    +0.000 A 
ATOM      3  C   UNL     1       1.611   2.917  21.371  0.00  0.00    +0.000 A 
ATOM      4  C   UNL     1       2.777   2.461  20.759  0.00  0.00    +0.000 A 
ATOM      5  C   UNL     1       3.476   3.353  19.939  0.00  0.00    +0.000 A 
ATOM      6  N   UNL     1       4.617   3.187  19.180  0.00  0.00    +0.000 N 
ATOM      7  C   UNL     1       4.889   4.346  18.511  0.00  0.00    +0.000 A 
ATOM      8  N   UNL     1       4.011   5.275  18.886  0.00  0.00    +0.000 NA
ATOM      9  C   UNL     1       3.085   4.685  19.754  0.00  0.00    +0.000 A 
ATOM     10  H   UNL     1       5.132   2.323  19.081  0.00  0.00    +0.000 HD
ENDROOT
BRANCH   7  11
ATOM     11  C   UNL     1       5.910   4.564  17.416  0.00  0.00    +0.000 A 
ATOM     12  C   UNL     1       7.136   5.099  17.788  0.00  0.00    +0.000 A 
ATOM     13  N   UNL     1       7.546   5.801  16.691  0.00  0.00    +0.000 N 
ATOM     14  C   UNL     1       7.659   7.250  16.684  0.00  0.00    +0.000 C 
ATOM     15  C   UNL     1       7.164   5.099  15.573  0.00  0.00    +0.000 A 
ATOM     16  C   UNL     1       7.682   5.143  14.277  0.00  0.00    +0.000 A 
ATOM     17  C   UNL     1       6.997   4.471  13.270  0.00  0.00    +0.000 A 
ATOM     18  C   UNL     1       5.804   3.840  13.574  0.00  0.00    +0.000 A 
ATOM     19  C   UNL     1       5.272   3.816  14.897  0.00  0.00    +0.000 A 
ATOM     20  C   UNL     1       5.997   4.406  15.962  0.00  0.00    +0.000 A 
ENDBRANCH   7  11
BRANCH   1  23
ATOM     21  C   UNL     1       0.231   8.471  21.480  0.00  0.00    +0.000 A 
ATOM     22  C   UNL     1       0.564   7.105  21.362  0.00  0.00    +0.000 A 
ATOM     23  C   UNL     1       1.461   6.600  20.391  0.00  0.00    +0.000 A 
ATOM     24  C   UNL     1       1.881   7.517  19.430  0.00  0.00    +0.000 A 
ATOM     25  C   UNL     1       1.512   8.878  19.481  0.00  0.00    +0.000 A 
ATOM     26  C   UNL     1       0.707   9.384  20.529  0.00  0.00    +0.000 A 
BRANCH  21  28
ATOM     27  C   UNL     1       0.004   9.567  23.586  0.00  0.00    +0.000 C 
ATOM     28  O   UNL     1      -0.609   8.904  22.479  0.00  0.00    +0.000 OA
ENDBRANCH  21  28
BRANCH  25  29
ATOM     29  O   UNL     1       1.968   9.587  18.393  0.00  0.00    +0.000 OA
ATOM     30  C   UNL     1       2.717   8.859  17.429  0.00  0.00    +0.000 C 
ENDBRANCH  25  29
BRANCH  26  31
ATOM     31  O   UNL     1       0.430  10.726  20.484  0.00  0.00    +0.000 OA
ATOM     32  C   UNL     1      -0.772  11.196  19.892  0.00  0.00    +0.000 C 
ENDBRANCH  26  31
ENDBRANCH   1  23
TORSDOF 5
ENDMDL
MODEL 9
REMARK VINA RESULT:      -7.6      1.365      3.156
REMARK  Name = 
REMARK  9 active torsions:
REMARK  status: ('A' for Active; 'I' for Inactive)
REMARK    1  A    between atoms: C_1  and  O_2
REMARK    2  A    between atoms: O_2  and  C_3
REMARK    3  A    between atoms: C_5  and  C_6
REMARK    4  A    between atoms: C_12  and  C_13
REMARK    5  A    between atoms: N_15  and  C_16
REMARK    6  A    between atoms: C_26  and  O_27
REMARK    7  A    between atoms: O_27  and  C_28
REMARK    8  A    between atoms: C_29  and  O_30
REMARK    9  A    between atoms: O_30  and  C_31
REMARK                            x       y       z     vdW  Elec       q    Type
REMARK                         _______ _______ _______ _____ _____    ______ ____
ROOT
ATOM      1  C   UNL     1       4.229   4.687  18.784  0.00  0.00    +0.000 A 
ATOM      2  C   UNL     1       4.302   3.494  19.555  0.00  0.00    +0.000 A 
ATOM      3  C   UNL     1       3.390   3.186  20.556  0.00  0.00    +0.000 A 
ATOM      4  C   UNL     1       2.362   4.071  20.879  0.00  0.00    +0.000 A 
ATOM      5  C   UNL     1       2.305   5.285  20.184  0.00  0.00    +0.000 A 
ATOM      6  N   UNL     1       1.449   6.361  20.304  0.00  0.00    +0.000 N 
ATOM      7  C   UNL     1       1.824   7.338  19.427  0.00  0.00    +0.000 A 
ATOM      8  N   UNL     1       2.836   6.887  18.688  0.00  0.00    +0.000 NA
ATOM      9  C   UNL     1       3.192   5.616  19.153  0.00  0.00    +0.000 A 
ATOM     10  H   UNL     1       0.704   6.442  20.982  0.00  0.00    +0.000 HD
ENDROOT
BRANCH   7  11
ATOM     11  C   UNL     1       1.311   8.760  19.352  0.00  0.00    +0.000 A 
ATOM     12  C   UNL     1       1.307   9.368  18.103  0.00  0.00    +0.000 A 
ATOM     13  N   UNL     1       1.487  10.694  18.372  0.00  0.00    +0.000 N 
ATOM     14  C   UNL     1       2.689  11.416  17.989  0.00  0.00    +0.000 C 
ATOM     15  C   UNL     1       0.802  10.987  19.527  0.00  0.00    +0.000 A 
ATOM     16  C   UNL     1       0.320  12.216  19.985  0.00  0.00    +0.000 A 
ATOM     17  C   UNL     1      -0.179  12.286  21.282  0.00  0.00    +0.000 A 
ATOM     18  C   UNL     1      -0.121  11.161  22.085  0.00  0.00    +0.000 A 
ATOM     19  C   UNL     1       0.390   9.916  21.616  0.00  0.00    +0.000 A 
ATOM     20  C   UNL     1       0.813   9.787  20.270  0.00  0.00    +0.000 A 
ENDBRANCH   7  11
BRANCH   1  23
ATOM     21  C   UNL     1       7.020   6.147  16.578  0.00  0.00    +0.000 A 
ATOM     22  C   UNL     1       6.020   5.994  17.562  0.00  0.00    +0.000 A 
ATOM     23  C   UNL     1       5.153   4.878  17.629  0.00  0.00    +0.000 A 
ATOM     24  C   UNL     1       5.227   3.997  16.552  0.00  0.00    +0.000 A 
ATOM     25  C   UNL     1       6.172   4.158  15.515  0.00  0.00    +0.000 A 
ATOM     26  C   UNL     1       7.108   5.218  15.530  0.00  0.00    +0.000 A 
BRANCH  21  28
ATOM     27  C   UNL     1       7.722   8.131  17.700  0.00  0.00    +0.000 C 
ATOM     28  O   UNL     1       7.865   7.232  16.599  0.00  0.00    +0.000 OA
ENDBRANCH  21  28
BRANCH  25  29
ATOM     29  O   UNL     1       6.018   3.225  14.515  0.00  0.00    +0.000 OA
ATOM     30  C   UNL     1       5.230   3.615  13.399  0.00  0.00    +0.000 C 
ENDBRANCH  25  29
BRANCH  26  31
ATOM     31  O   UNL     1       7.989   5.262  14.482  0.00  0.00    +0.000 OA
ATOM     32  C   UNL     1       7.590   5.786  13.224  0.00  0.00    +0.000 C 
ENDBRANCH  26  31
ENDBRANCH   1  23
TORSDOF 5
ENDMDL
