MODEL 1
REMARK VINA RESULT:      -7.7      0.000      0.000
REMARK  Name = 
REMARK  2 active torsions:
REMARK  status: ('A' for Active; 'I' for Inactive)
REMARK    1  A    between atoms: C_4  and  N_5
REMARK    2  A    between atoms: N_5  and  C_6
REMARK                            x       y       z     vdW  Elec       q    Type
REMARK                         _______ _______ _______ _____ _____    ______ ____
ROOT
ATOM      1  O   UNL     1      -0.531  10.813  18.233  0.00  0.00    +0.000 OA
ATOM      2  C   UNL     1      -0.194  10.410  19.339  0.00  0.00    +0.000 C 
ATOM      3  C   UNL     1       0.770   9.306  19.468  0.00  0.00    +0.000 C 
ATOM      4  C   UNL     1       1.183   8.822  20.647  0.00  0.00    +0.000 C 
ATOM      5  C   UNL     1       0.735   9.491  21.912  0.00  0.00    +0.000 C 
ATOM      6  O   UNL     1       1.207   9.156  22.993  0.00  0.00    +0.000 OA
ATOM      7  C   UNL     1      -0.306  10.537  21.818  0.00  0.00    +0.000 A 
ATOM      8  C   UNL     1      -0.851  11.081  22.987  0.00  0.00    +0.000 A 
ATOM      9  C   UNL     1      -1.848  12.057  22.905  0.00  0.00    +0.000 A 
ATOM     10  C   UNL     1      -2.299  12.493  21.660  0.00  0.00    +0.000 A 
ATOM     11  C   UNL     1      -1.754  11.956  20.493  0.00  0.00    +0.000 A 
ATOM     12  C   UNL     1      -0.756  10.977  20.575  0.00  0.00    +0.000 A 
ENDROOT
BRANCH   4  13
ATOM     13  N   UNL     1       2.048   7.747  20.819  0.00  0.00    +0.000 N 
ATOM     14  H   UNL     1       2.186   7.550  21.816  0.00  0.00    +0.000 HD
BRANCH  13  15
ATOM     15  C   UNL     1       2.004   6.538  20.075  0.00  0.00    +0.000 A 
ATOM     16  C   UNL     1       2.485   6.557  18.743  0.00  0.00    +0.000 A 
ATOM     17  C   UNL     1       2.422   5.421  17.926  0.00  0.00    +0.000 A 
ATOM     18  C   UNL     1       1.858   4.281  18.454  0.00  0.00    +0.000 A 
ATOM     19  C   UNL     1       1.387   4.249  19.742  0.00  0.00    +0.000 A 
ATOM     20  C   UNL     1       1.447   5.349  20.570  0.00  0.00    +0.000 A 
ATOM     21  O   UNL     1       0.867   3.038  20.078  0.00  0.00    +0.000 OA
ATOM     22  C   UNL     1       1.009   2.330  18.829  0.00  0.00    +0.000 C 
ATOM     23  O   UNL     1       1.689   3.096  17.812  0.00  0.00    +0.000 OA
ENDBRANCH  13  15
ENDBRANCH   4  13
TORSDOF 2
ENDMDL
MODEL 2
REMARK VINA RESULT:      -7.7      3.172      4.322
REMARK  Name = 
REMARK  2 active torsions:
REMARK  status: ('A' for Active; 'I' for Inactive)
REMARK    1  A    between atoms: C_4  and  N_5
REMARK    2  A    between atoms: N_5  and  C_6
REMARK                            x       y       z     vdW  Elec       q    Type
REMARK                         _______ _______ _______ _____ _____    ______ ____
ROOT
ATOM      1  O   UNL     1       2.060   9.894  17.445  0.00  0.00    +0.000 OA
ATOM      2  C   UNL     1       1.990   9.005  18.284  0.00  0.00    +0.000 C 
ATOM      3  C   UNL     1       2.662   7.716  18.061  0.00  0.00    +0.000 C 
ATOM      4  C   UNL     1       2.628   6.705  18.940  0.00  0.00    +0.000 C 
ATOM      5  C   UNL     1       1.968   6.912  20.271  0.00  0.00    +0.000 C 
ATOM      6  O   UNL     1       2.046   6.053  21.143  0.00  0.00    +0.000 OA
ATOM      7  C   UNL     1       1.204   8.160  20.484  0.00  0.00    +0.000 A 
ATOM      8  C   UNL     1       0.458   8.324  21.658  0.00  0.00    +0.000 A 
ATOM      9  C   UNL     1      -0.281   9.492  21.858  0.00  0.00    +0.000 A 
ATOM     10  C   UNL     1      -0.274  10.498  20.892  0.00  0.00    +0.000 A 
ATOM     11  C   UNL     1       0.474  10.340  19.725  0.00  0.00    +0.000 A 
ATOM     12  C   UNL     1       1.213   9.168  19.523  0.00  0.00    +0.000 A 
ENDROOT
BRANCH   4  13
ATOM     13  N   UNL     1       3.200   5.451  18.750  0.00  0.00    +0.000 N 
ATOM     14  H   UNL     1       2.477   4.753  18.546  0.00  0.00    +0.000 HD
BRANCH  13  15
ATOM     15  C   UNL     1       4.369   5.195  17.986  0.00  0.00    +0.000 A 
ATOM     16  C   UNL     1       5.625   5.322  18.626  0.00  0.00    +0.000 A 
ATOM     17  C   UNL     1       6.826   5.143  17.926  0.00  0.00    +0.000 A 
ATOM     18  C   UNL     1       6.747   4.855  16.582  0.00  0.00    +0.000 A 
ATOM     19  C   UNL     1       5.536   4.732  15.948  0.00  0.00    +0.000 A 
ATOM     20  C   UNL     1       4.341   4.892  16.616  0.00  0.00    +0.000 A 
ATOM     21  O   UNL     1       5.667   4.448  14.624  0.00  0.00    +0.000 OA
ATOM     22  C   UNL     1       7.102   4.470  14.486  0.00  0.00    +0.000 C 
ATOM     23  O   UNL     1       7.794   4.673  15.736  0.00  0.00    +0.000 OA
ENDBRANCH  13  15
ENDBRANCH   4  13
TORSDOF 2
ENDMDL
MODEL 3
REMARK VINA RESULT:      -7.7      1.534      2.204
REMARK  Name = 
REMARK  2 active torsions:
REMARK  status: ('A' for Active; 'I' for Inactive)
REMARK    1  A    between atoms: C_4  and  N_5
REMARK    2  A    between atoms: N_5  and  C_6
REMARK                            x       y       z     vdW  Elec       q    Type
REMARK                         _______ _______ _______ _____ _____    ______ ____
ROOT
ATOM      1  O   UNL     1       1.897   9.750  17.300  0.00  0.00    +0.000 OA
ATOM      2  C   UNL     1       1.544   9.487  18.442  0.00  0.00    +0.000 C 
ATOM      3  C   UNL     1       1.990   8.246  19.093  0.00  0.00    +0.000 C 
ATOM      4  C   UNL     1       1.643   7.902  20.341  0.00  0.00    +0.000 C 
ATOM      5  C   UNL     1       0.846   8.863  21.172  0.00  0.00    +0.000 C 
ATOM      6  O   UNL     1       0.636   8.632  22.358  0.00  0.00    +0.000 OA
ATOM      7  C   UNL     1       0.303  10.071  20.514  0.00  0.00    +0.000 A 
ATOM      8  C   UNL     1      -0.563  10.915  21.220  0.00  0.00    +0.000 A 
ATOM      9  C   UNL     1      -1.094  12.048  20.599  0.00  0.00    +0.000 A 
ATOM     10  C   UNL     1      -0.761  12.342  19.277  0.00  0.00    +0.000 A 
ATOM     11  C   UNL     1       0.107  11.505  18.573  0.00  0.00    +0.000 A 
ATOM     12  C   UNL     1       0.638  10.369  19.195  0.00  0.00    +0.000 A 
ENDROOT
BRANCH   4  13
ATOM     13  N   UNL     1       1.994   6.716  20.978  0.00  0.00    +0.000 N 
ATOM     14  H   UNL     1       1.536   6.649  21.893  0.00  0.00    +0.000 HD
BRANCH  13  15
ATOM     15  C   UNL     1       2.051   5.442  20.355  0.00  0.00    +0.000 A 
ATOM     16  C   UNL     1       0.931   4.585  20.484  0.00  0.00    +0.000 A 
ATOM     17  C   UNL     1       0.933   3.290  19.948  0.00  0.00    +0.000 A 
ATOM     18  C   UNL     1       2.072   2.866  19.300  0.00  0.00    +0.000 A 
ATOM     19  C   UNL     1       3.165   3.686  19.169  0.00  0.00    +0.000 A 
ATOM     20  C   UNL     1       3.185   4.966  19.677  0.00  0.00    +0.000 A 
ATOM     21  O   UNL     1       4.188   3.087  18.502  0.00  0.00    +0.000 OA
ATOM     22  C   UNL     1       3.635   1.773  18.285  0.00  0.00    +0.000 C 
ATOM     23  O   UNL     1       2.271   1.645  18.740  0.00  0.00    +0.000 OA
ENDBRANCH  13  15
ENDBRANCH   4  13
TORSDOF 2
ENDMDL
MODEL 4
REMARK VINA RESULT:      -7.6      1.249      2.682
REMARK  Name = 
REMARK  2 active torsions:
REMARK  status: ('A' for Active; 'I' for Inactive)
REMARK    1  A    between atoms: C_4  and  N_5
REMARK    2  A    between atoms: N_5  and  C_6
REMARK                            x       y       z     vdW  Elec       q    Type
REMARK                         _______ _______ _______ _____ _____    ______ ____
ROOT
ATOM      1  O   UNL     1      -0.706   9.677  23.039  0.00  0.00    +0.000 OA
ATOM      2  C   UNL     1      -0.161   9.591  21.946  0.00  0.00    +0.000 C 
ATOM      3  C   UNL     1       0.831   8.537  21.689  0.00  0.00    +0.000 C 
ATOM      4  C   UNL     1       1.459   8.386  20.515  0.00  0.00    +0.000 C 
ATOM      5  C   UNL     1       1.072   9.259  19.358  0.00  0.00    +0.000 C 
ATOM      6  O   UNL     1       1.531   9.049  18.241  0.00  0.00    +0.000 OA
ATOM      7  C   UNL     1       0.151  10.388  19.613  0.00  0.00    +0.000 A 
ATOM      8  C   UNL     1      -0.119  11.306  18.592  0.00  0.00    +0.000 A 
ATOM      9  C   UNL     1      -0.974  12.385  18.832  0.00  0.00    +0.000 A 
ATOM     10  C   UNL     1      -1.562  12.547  20.086  0.00  0.00    +0.000 A 
ATOM     11  C   UNL     1      -1.299  11.629  21.104  0.00  0.00    +0.000 A 
ATOM     12  C   UNL     1      -0.441  10.549  20.864  0.00  0.00    +0.000 A 
ENDROOT
BRANCH   4  13
ATOM     13  N   UNL     1       2.442   7.441  20.241  0.00  0.00    +0.000 N 
ATOM     14  H   UNL     1       3.191   7.486  20.941  0.00  0.00    +0.000 HD
BRANCH  13  15
ATOM     15  C   UNL     1       2.197   6.095  19.861  0.00  0.00    +0.000 A 
ATOM     16  C   UNL     1       1.507   5.260  20.773  0.00  0.00    +0.000 A 
ATOM     17  C   UNL     1       1.277   3.906  20.496  0.00  0.00    +0.000 A 
ATOM     18  C   UNL     1       1.761   3.403  19.309  0.00  0.00    +0.000 A 
ATOM     19  C   UNL     1       2.433   4.201  18.417  0.00  0.00    +0.000 A 
ATOM     20  C   UNL     1       2.662   5.538  18.661  0.00  0.00    +0.000 A 
ATOM     21  O   UNL     1       2.832   3.522  17.308  0.00  0.00    +0.000 OA
ATOM     22  C   UNL     1       2.389   2.189  17.635  0.00  0.00    +0.000 C 
ATOM     23  O   UNL     1       1.659   2.118  18.879  0.00  0.00    +0.000 OA
ENDBRANCH  13  15
ENDBRANCH   4  13
TORSDOF 2
ENDMDL
MODEL 5
REMARK VINA RESULT:      -7.6      0.891      2.257
REMARK  Name = 
REMARK  2 active torsions:
REMARK  status: ('A' for Active; 'I' for Inactive)
REMARK    1  A    between atoms: C_4  and  N_5
REMARK    2  A    between atoms: N_5  and  C_6
REMARK                            x       y       z     vdW  Elec       q    Type
REMARK                         _______ _______ _______ _____ _____    ______ ____
ROOT
ATOM      1  O   UNL     1       0.263   9.630  23.856  0.00  0.00    +0.000 OA
ATOM      2  C   UNL     1       0.292   9.711  22.635  0.00  0.00    +0.000 C 
ATOM      3  C   UNL     1       1.204   8.863  21.853  0.00  0.00    +0.000 C 
ATOM      4  C   UNL     1       1.280   8.900  20.516  0.00  0.00    +0.000 C 
ATOM      5  C   UNL     1       0.325   9.767  19.750  0.00  0.00    +0.000 C 
ATOM      6  O   UNL     1       0.282   9.713  18.526  0.00  0.00    +0.000 OA
ATOM      7  C   UNL     1      -0.534  10.700  20.511  0.00  0.00    +0.000 A 
ATOM      8  C   UNL     1      -1.332  11.623  19.825  0.00  0.00    +0.000 A 
ATOM      9  C   UNL     1      -2.132  12.520  20.537  0.00  0.00    +0.000 A 
ATOM     10  C   UNL     1      -2.140  12.495  21.932  0.00  0.00    +0.000 A 
ATOM     11  C   UNL     1      -1.349  11.572  22.618  0.00  0.00    +0.000 A 
ATOM     12  C   UNL     1      -0.546  10.675  21.903  0.00  0.00    +0.000 A 
ENDROOT
BRANCH   4  13
ATOM     13  N   UNL     1       2.163   8.159  19.737  0.00  0.00    +0.000 N 
ATOM     14  H   UNL     1       3.129   8.467  19.895  0.00  0.00    +0.000 HD
BRANCH  13  15
ATOM     15  C   UNL     1       2.111   6.752  19.562  0.00  0.00    +0.000 A 
ATOM     16  C   UNL     1       2.289   6.235  18.256  0.00  0.00    +0.000 A 
ATOM     17  C   UNL     1       2.193   4.862  17.992  0.00  0.00    +0.000 A 
ATOM     18  C   UNL     1       1.903   4.025  19.047  0.00  0.00    +0.000 A 
ATOM     19  C   UNL     1       1.727   4.512  20.317  0.00  0.00    +0.000 A 
ATOM     20  C   UNL     1       1.826   5.857  20.605  0.00  0.00    +0.000 A 
ATOM     21  O   UNL     1       1.446   3.532  21.218  0.00  0.00    +0.000 OA
ATOM     22  C   UNL     1       1.404   2.378  20.354  0.00  0.00    +0.000 C 
ATOM     23  O   UNL     1       1.748   2.677  18.984  0.00  0.00    +0.000 OA
ENDBRANCH  13  15
ENDBRANCH   4  13
TORSDOF 2
ENDMDL
MODEL 6
REMARK VINA RESULT:      -7.5      1.029      2.271
REMARK  Name = 
REMARK  2 active torsions:
REMARK  status: ('A' for Active; 'I' for Inactive)
REMARK    1  A    between atoms: C_4  and  N_5
REMARK    2  A    between atoms: N_5  and  C_6
REMARK                            x       y       z     vdW  Elec       q    Type
REMARK                         _______ _______ _______ _____ _____    ______ ____
ROOT
ATOM      1  O   UNL     1      -0.515   9.715  23.239  0.00  0.00    +0.000 OA
ATOM      2  C   UNL     1      -0.045   9.636  22.112  0.00  0.00    +0.000 C 
ATOM      3  C   UNL     1       0.967   8.616  21.797  0.00  0.00    +0.000 C 
ATOM      4  C   UNL     1       1.517   8.473  20.583  0.00  0.00    +0.000 C 
ATOM      5  C   UNL     1       1.017   9.315  19.447  0.00  0.00    +0.000 C 
ATOM      6  O   UNL     1       1.405   9.107  18.302  0.00  0.00    +0.000 OA
ATOM      7  C   UNL     1       0.073  10.411  19.754  0.00  0.00    +0.000 A 
ATOM      8  C   UNL     1      -0.303  11.305  18.744  0.00  0.00    +0.000 A 
ATOM      9  C   UNL     1      -1.179  12.354  19.031  0.00  0.00    +0.000 A 
ATOM     10  C   UNL     1      -1.685  12.511  20.322  0.00  0.00    +0.000 A 
ATOM     11  C   UNL     1      -1.316  11.617  21.329  0.00  0.00    +0.000 A 
ATOM     12  C   UNL     1      -0.436  10.567  21.041  0.00  0.00    +0.000 A 
ENDROOT
BRANCH   4  13
ATOM     13  N   UNL     1       2.514   7.562  20.252  0.00  0.00    +0.000 N 
ATOM     14  H   UNL     1       3.217   7.509  20.997  0.00  0.00    +0.000 HD
BRANCH  13  15
ATOM     15  C   UNL     1       2.291   6.279  19.686  0.00  0.00    +0.000 A 
ATOM     16  C   UNL     1       2.733   6.048  18.361  0.00  0.00    +0.000 A 
ATOM     17  C   UNL     1       2.498   4.829  17.712  0.00  0.00    +0.000 A 
ATOM     18  C   UNL     1       1.804   3.859  18.401  0.00  0.00    +0.000 A 
ATOM     19  C   UNL     1       1.369   4.069  19.686  0.00  0.00    +0.000 A 
ATOM     20  C   UNL     1       1.597   5.255  20.349  0.00  0.00    +0.000 A 
ATOM     21  O   UNL     1       0.704   2.997  20.193  0.00  0.00    +0.000 OA
ATOM     22  C   UNL     1       0.717   2.110  19.056  0.00  0.00    +0.000 C 
ATOM     23  O   UNL     1       1.462   2.630  17.934  0.00  0.00    +0.000 OA
ENDBRANCH  13  15
ENDBRANCH   4  13
TORSDOF 2
ENDMDL
MODEL 7
REMARK VINA RESULT:      -7.4      0.768      1.449
REMARK  Name = 
REMARK  2 active torsions:
REMARK  status: ('A' for Active; 'I' for Inactive)
REMARK    1  A    between atoms: C_4  and  N_5
REMARK    2  A    between atoms: N_5  and  C_6
REMARK                            x       y       z     vdW  Elec       q    Type
REMARK                         _______ _______ _______ _____ _____    ______ ____
ROOT
ATOM      1  O   UNL     1      -0.329  10.592  17.945  0.00  0.00    +0.000 OA
ATOM      2  C   UNL     1       0.033  10.179  19.039  0.00  0.00    +0.000 C 
ATOM      3  C   UNL     1       1.014   9.088  19.136  0.00  0.00    +0.000 C 
ATOM      4  C   UNL     1       1.455   8.594  20.301  0.00  0.00    +0.000 C 
ATOM      5  C   UNL     1       1.021   9.241  21.583  0.00  0.00    +0.000 C 
ATOM      6  O   UNL     1       1.517   8.898  22.651  0.00  0.00    +0.000 OA
ATOM      7  C   UNL     1      -0.036  10.274  21.521  0.00  0.00    +0.000 A 
ATOM      8  C   UNL     1      -0.566  10.795  22.707  0.00  0.00    +0.000 A 
ATOM      9  C   UNL     1      -1.577  11.758  22.656  0.00  0.00    +0.000 A 
ATOM     10  C   UNL     1      -2.058  12.204  21.425  0.00  0.00    +0.000 A 
ATOM     11  C   UNL     1      -1.526  11.690  20.241  0.00  0.00    +0.000 A 
ATOM     12  C   UNL     1      -0.514  10.723  20.292  0.00  0.00    +0.000 A 
ENDROOT
BRANCH   4  13
ATOM     13  N   UNL     1       2.338   7.529  20.444  0.00  0.00    +0.000 N 
ATOM     14  H   UNL     1       2.722   7.503  21.394  0.00  0.00    +0.000 HD
BRANCH  13  15
ATOM     15  C   UNL     1       2.110   6.212  19.964  0.00  0.00    +0.000 A 
ATOM     16  C   UNL     1       1.350   5.330  20.769  0.00  0.00    +0.000 A 
ATOM     17  C   UNL     1       1.131   3.998  20.392  0.00  0.00    +0.000 A 
ATOM     18  C   UNL     1       1.696   3.564  19.214  0.00  0.00    +0.000 A 
ATOM     19  C   UNL     1       2.436   4.408  18.424  0.00  0.00    +0.000 A 
ATOM     20  C   UNL     1       2.657   5.724  18.767  0.00  0.00    +0.000 A 
ATOM     21  O   UNL     1       2.909   3.794  17.306  0.00  0.00    +0.000 OA
ATOM     22  C   UNL     1       2.434   2.450  17.516  0.00  0.00    +0.000 C 
ATOM     23  O   UNL     1       1.615   2.310  18.698  0.00  0.00    +0.000 OA
ENDBRANCH  13  15
ENDBRANCH   4  13
TORSDOF 2
ENDMDL
MODEL 8
REMARK VINA RESULT:      -7.4      2.915      3.598
REMARK  Name = 
REMARK  2 active torsions:
REMARK  status: ('A' for Active; 'I' for Inactive)
REMARK    1  A    between atoms: C_4  and  N_5
REMARK    2  A    between atoms: N_5  and  C_6
REMARK                            x       y       z     vdW  Elec       q    Type
REMARK                         _______ _______ _______ _____ _____    ______ ____
ROOT
ATOM      1  O   UNL     1       1.031  11.251  18.296  0.00  0.00    +0.000 OA
ATOM      2  C   UNL     1       1.137  10.205  18.923  0.00  0.00    +0.000 C 
ATOM      3  C   UNL     1       1.704   9.007  18.285  0.00  0.00    +0.000 C 
ATOM      4  C   UNL     1       1.850   7.835  18.917  0.00  0.00    +0.000 C 
ATOM      5  C   UNL     1       1.525   7.743  20.378  0.00  0.00    +0.000 C 
ATOM      6  O   UNL     1       1.781   6.723  21.008  0.00  0.00    +0.000 OA
ATOM      7  C   UNL     1       0.865   8.900  21.020  0.00  0.00    +0.000 A 
ATOM      8  C   UNL     1       0.418   8.797  22.342  0.00  0.00    +0.000 A 
ATOM      9  C   UNL     1      -0.223   9.880  22.949  0.00  0.00    +0.000 A 
ATOM     10  C   UNL     1      -0.416  11.066  22.241  0.00  0.00    +0.000 A 
ATOM     11  C   UNL     1       0.034  11.173  20.924  0.00  0.00    +0.000 A 
ATOM     12  C   UNL     1       0.675  10.086  20.315  0.00  0.00    +0.000 A 
ENDROOT
BRANCH   4  13
ATOM     13  N   UNL     1       2.328   6.662  18.341  0.00  0.00    +0.000 N 
ATOM     14  H   UNL     1       1.713   6.357  17.579  0.00  0.00    +0.000 HD
BRANCH  13  15
ATOM     15  C   UNL     1       3.687   6.409  18.015  0.00  0.00    +0.000 A 
ATOM     16  C   UNL     1       4.204   6.972  16.824  0.00  0.00    +0.000 A 
ATOM     17  C   UNL     1       5.517   6.721  16.404  0.00  0.00    +0.000 A 
ATOM     18  C   UNL     1       6.290   5.888  17.182  0.00  0.00    +0.000 A 
ATOM     19  C   UNL     1       5.802   5.334  18.338  0.00  0.00    +0.000 A 
ATOM     20  C   UNL     1       4.518   5.574  18.778  0.00  0.00    +0.000 A 
ATOM     21  O   UNL     1       6.714   4.543  18.963  0.00  0.00    +0.000 OA
ATOM     22  C   UNL     1       7.813   4.613  18.032  0.00  0.00    +0.000 C 
ATOM     23  O   UNL     1       7.570   5.511  16.927  0.00  0.00    +0.000 OA
ENDBRANCH  13  15
ENDBRANCH   4  13
TORSDOF 2
ENDMDL
MODEL 9
REMARK VINA RESULT:      -7.4      4.733      7.408
REMARK  Name = 
REMARK  2 active torsions:
REMARK  status: ('A' for Active; 'I' for Inactive)
REMARK    1  A    between atoms: C_4  and  N_5
REMARK    2  A    between atoms: N_5  and  C_6
REMARK                            x       y       z     vdW  Elec       q    Type
REMARK                         _______ _______ _______ _____ _____    ______ ____
ROOT
ATOM      1  O   UNL     1       1.662   6.964  19.604  0.00  0.00    +0.000 OA
ATOM      2  C   UNL     1       2.539   6.118  19.489  0.00  0.00    +0.000 C 
ATOM      3  C   UNL     1       3.750   6.402  18.703  0.00  0.00    +0.000 C 
ATOM      4  C   UNL     1       4.747   5.523  18.542  0.00  0.00    +0.000 C 
ATOM      5  C   UNL     1       4.698   4.214  19.274  0.00  0.00    +0.000 C 
ATOM      6  O   UNL     1       5.660   3.454  19.253  0.00  0.00    +0.000 OA
ATOM      7  C   UNL     1       3.453   3.863  19.991  0.00  0.00    +0.000 A 
ATOM      8  C   UNL     1       3.319   2.592  20.563  0.00  0.00    +0.000 A 
ATOM      9  C   UNL     1       2.138   2.246  21.226  0.00  0.00    +0.000 A 
ATOM     10  C   UNL     1       1.094   3.166  21.321  0.00  0.00    +0.000 A 
ATOM     11  C   UNL     1       1.228   4.435  20.756  0.00  0.00    +0.000 A 
ATOM     12  C   UNL     1       2.411   4.781  20.090  0.00  0.00    +0.000 A 
ENDROOT
BRANCH   4  13
ATOM     13  N   UNL     1       5.884   5.725  17.765  0.00  0.00    +0.000 N 
ATOM     14  H   UNL     1       6.731   5.522  18.305  0.00  0.00    +0.000 HD
BRANCH  13  15
ATOM     15  C   UNL     1       6.038   5.298  16.420  0.00  0.00    +0.000 A 
ATOM     16  C   UNL     1       5.148   4.314  15.926  0.00  0.00    +0.000 A 
ATOM     17  C   UNL     1       5.272   3.800  14.628  0.00  0.00    +0.000 A 
ATOM     18  C   UNL     1       6.304   4.271  13.847  0.00  0.00    +0.000 A 
ATOM     19  C   UNL     1       7.174   5.224  14.314  0.00  0.00    +0.000 A 
ATOM     20  C   UNL     1       7.067   5.754  15.581  0.00  0.00    +0.000 A 
ATOM     21  O   UNL     1       8.122   5.557  13.397  0.00  0.00    +0.000 OA
ATOM     22  C   UNL     1       7.785   4.657  12.322  0.00  0.00    +0.000 C 
ATOM     23  O   UNL     1       6.597   3.878  12.581  0.00  0.00    +0.000 OA
ENDBRANCH  13  15
ENDBRANCH   4  13
TORSDOF 2
ENDMDL
