MODEL 1
REMARK VINA RESULT:      -9.3      0.000      0.000
REMARK  Name = 
REMARK  7 active torsions:
REMARK  status: ('A' for Active; 'I' for Inactive)
REMARK    1  A    between atoms: C_1  and  N_2
REMARK    2  A    between atoms: C_5  and  C_6
REMARK    3  A    between atoms: N_8  and  C_9
REMARK    4  A    between atoms: C_13  and  C_14
REMARK    5  A    between atoms: C_14  and  N_15
REMARK    6  A    between atoms: N_15  and  C_16
REMARK    7  A    between atoms: C_21  and  C_22
REMARK                            x       y       z     vdW  Elec       q    Type
REMARK                         _______ _______ _______ _____ _____    ______ ____
ROOT
ATOM      1  C   UNL     1       7.755   7.940  17.837  0.00  0.00    +0.000 A 
ATOM      2  C   UNL     1       8.387   7.176  18.817  0.00  0.00    +0.000 A 
ATOM      3  C   UNL     1       7.814   5.970  19.215  0.00  0.00    +0.000 A 
ATOM      4  C   UNL     1       6.654   5.484  18.580  0.00  0.00    +0.000 A 
ATOM      5  C   UNL     1       6.035   6.203  17.536  0.00  0.00    +0.000 A 
ATOM      6  C   UNL     1       6.600   7.445  17.196  0.00  0.00    +0.000 A 
ENDROOT
BRANCH   1   9
ATOM      7  C   UNL     1       8.874  10.003  18.506  0.00  0.00    +0.000 C 
ATOM      8  O   UNL     1       9.068   9.669  19.671  0.00  0.00    +0.000 OA
ATOM      9  N   UNL     1       8.280   9.213  17.533  0.00  0.00    +0.000 N 
ATOM     10  H   UNL     1       8.555   9.381  16.571  0.00  0.00    +0.000 HD
BRANCH   7  15
ATOM     11  C   UNL     1       7.028  14.928  18.093  0.00  0.00    +0.000 C 
ATOM     12  N   UNL     1       8.282  14.778  17.392  0.00  0.00    +0.000 N 
ATOM     13  C   UNL     1       9.051  13.649  17.608  0.00  0.00    +0.000 A 
ATOM     14  C   UNL     1       8.513  12.395  17.853  0.00  0.00    +0.000 A 
ATOM     15  C   UNL     1       9.381  11.325  18.066  0.00  0.00    +0.000 A 
ATOM     16  C   UNL     1      10.758  11.519  17.977  0.00  0.00    +0.000 A 
ATOM     17  C   UNL     1      11.204  12.794  17.703  0.00  0.00    +0.000 A 
ATOM     18  N   UNL     1      10.382  13.850  17.526  0.00  0.00    +0.000 NA
ATOM     19  H   UNL     1       8.911  15.578  17.431  0.00  0.00    +0.000 HD
ENDBRANCH   7  15
ENDBRANCH   1   9
BRANCH   5  20
ATOM     20  C   UNL     1       4.709   5.767  16.916  0.00  0.00    +0.000 C 
BRANCH  20  21
ATOM     21  N   UNL     1       3.488   6.441  17.343  0.00  0.00    +0.000 N 
ATOM     22  H   UNL     1       3.663   7.410  17.612  0.00  0.00    +0.000 HD
BRANCH  21  23
ATOM     23  C   UNL     1       2.528   6.035  18.238  0.00  0.00    +0.000 A 
ATOM     24  N   UNL     1       2.382   6.967  19.183  0.00  0.00    +0.000 NA
ATOM     25  C   UNL     1       2.331   6.501  20.419  0.00  0.00    +0.000 A 
ATOM     26  N   UNL     1       2.463   5.216  20.738  0.00  0.00    +0.000 NA
ATOM     27  C   UNL     1       2.305   4.330  19.744  0.00  0.00    +0.000 A 
ATOM     28  C   UNL     1       2.313   2.968  19.991  0.00  0.00    +0.000 A 
ATOM     29  C   UNL     1       1.523   2.101  19.229  0.00  0.00    +0.000 A 
ATOM     30  C   UNL     1       0.846   2.616  18.124  0.00  0.00    +0.000 A 
ATOM     31  C   UNL     1       1.190   3.898  17.664  0.00  0.00    +0.000 A 
ATOM     32  C   UNL     1       2.037   4.741  18.449  0.00  0.00    +0.000 A 
BRANCH  28  33
ATOM     33  C   UNL     1       3.364   2.479  20.920  0.00  0.00    +0.000 C 
ATOM     34  N   UNL     1       4.663   2.447  20.502  0.00  0.00    +0.000 N 
ATOM     35  O   UNL     1       3.117   2.159  22.077  0.00  0.00    +0.000 OA
ATOM     36  H   UNL     1       4.882   2.455  19.524  0.00  0.00    +0.000 HD
ATOM     37  H   UNL     1       5.275   1.959  21.127  0.00  0.00    +0.000 HD
ENDBRANCH  28  33
ENDBRANCH  21  23
ENDBRANCH  20  21
ENDBRANCH   5  20
TORSDOF 6
ENDMDL
MODEL 2
REMARK VINA RESULT:      -9.1      6.864      9.443
REMARK  Name = 
REMARK  7 active torsions:
REMARK  status: ('A' for Active; 'I' for Inactive)
REMARK    1  A    between atoms: C_1  and  N_2
REMARK    2  A    between atoms: C_5  and  C_6
REMARK    3  A    between atoms: N_8  and  C_9
REMARK    4  A    between atoms: C_13  and  C_14
REMARK    5  A    between atoms: C_14  and  N_15
REMARK    6  A    between atoms: N_15  and  C_16
REMARK    7  A    between atoms: C_21  and  C_22
REMARK                            x       y       z     vdW  Elec       q    Type
REMARK                         _______ _______ _______ _____ _____    ______ ____
ROOT
ATOM      1  C   UNL     1       1.810   8.358  19.193  0.00  0.00    +0.000 A 
ATOM      2  C   UNL     1       1.563   7.977  20.511  0.00  0.00    +0.000 A 
ATOM      3  C   UNL     1       0.568   8.631  21.234  0.00  0.00    +0.000 A 
ATOM      4  C   UNL     1      -0.239   9.609  20.619  0.00  0.00    +0.000 A 
ATOM      5  C   UNL     1      -0.058   9.962  19.265  0.00  0.00    +0.000 A 
ATOM      6  C   UNL     1       0.993   9.329  18.577  0.00  0.00    +0.000 A 
ENDROOT
BRANCH   1   9
ATOM      7  C   UNL     1       2.891   6.433  18.154  0.00  0.00    +0.000 C 
ATOM      8  O   UNL     1       1.950   5.661  18.309  0.00  0.00    +0.000 OA
ATOM      9  N   UNL     1       2.899   7.772  18.515  0.00  0.00    +0.000 N 
ATOM     10  H   UNL     1       3.496   8.392  17.978  0.00  0.00    +0.000 HD
BRANCH   7  15
ATOM     11  C   UNL     1       7.931   7.882  17.570  0.00  0.00    +0.000 C 
ATOM     12  N   UNL     1       7.571   6.847  16.629  0.00  0.00    +0.000 N 
ATOM     13  C   UNL     1       6.388   6.152  16.803  0.00  0.00    +0.000 A 
ATOM     14  C   UNL     1       5.234   6.726  17.313  0.00  0.00    +0.000 A 
ATOM     15  C   UNL     1       4.098   5.929  17.454  0.00  0.00    +0.000 A 
ATOM     16  C   UNL     1       4.124   4.601  17.035  0.00  0.00    +0.000 A 
ATOM     17  C   UNL     1       5.306   4.121  16.515  0.00  0.00    +0.000 A 
ATOM     18  N   UNL     1       6.427   4.865  16.400  0.00  0.00    +0.000 NA
ATOM     19  H   UNL     1       8.293   6.159  16.427  0.00  0.00    +0.000 HD
ENDBRANCH   7  15
ENDBRANCH   1   9
BRANCH   5  20
ATOM     20  C   UNL     1      -0.829  11.105  18.607  0.00  0.00    +0.000 C 
BRANCH  20  21
ATOM     21  N   UNL     1      -2.286  11.050  18.608  0.00  0.00    +0.000 N 
ATOM     22  H   UNL     1      -2.653  10.667  17.735  0.00  0.00    +0.000 HD
BRANCH  21  23
ATOM     23  C   UNL     1      -3.202  12.021  18.934  0.00  0.00    +0.000 A 
ATOM     24  N   UNL     1      -2.719  12.768  19.930  0.00  0.00    +0.000 NA
ATOM     25  C   UNL     1      -3.578  13.016  20.903  0.00  0.00    +0.000 A 
ATOM     26  N   UNL     1      -4.817  12.534  20.946  0.00  0.00    +0.000 NA
ATOM     27  C   UNL     1      -5.317  12.057  19.797  0.00  0.00    +0.000 A 
ATOM     28  C   UNL     1      -6.633  11.636  19.708  0.00  0.00    +0.000 A 
ATOM     29  C   UNL     1      -7.355  11.794  18.522  0.00  0.00    +0.000 A 
ATOM     30  C   UNL     1      -6.678  12.247  17.388  0.00  0.00    +0.000 A 
ATOM     31  C   UNL     1      -5.274  12.265  17.407  0.00  0.00    +0.000 A 
ATOM     32  C   UNL     1      -4.568  12.054  18.632  0.00  0.00    +0.000 A 
BRANCH  28  33
ATOM     33  C   UNL     1      -7.130  10.810  20.838  0.00  0.00    +0.000 C 
ATOM     34  N   UNL     1      -7.394  11.408  22.037  0.00  0.00    +0.000 N 
ATOM     35  O   UNL     1      -7.373   9.614  20.719  0.00  0.00    +0.000 OA
ATOM     36  H   UNL     1      -6.991  12.297  22.261  0.00  0.00    +0.000 HD
ATOM     37  H   UNL     1      -7.570  10.759  22.780  0.00  0.00    +0.000 HD
ENDBRANCH  28  33
ENDBRANCH  21  23
ENDBRANCH  20  21
ENDBRANCH   5  20
TORSDOF 6
ENDMDL
MODEL 3
REMARK VINA RESULT:      -9.1      5.140      7.403
REMARK  Name = 
REMARK  7 active torsions:
REMARK  status: ('A' for Active; 'I' for Inactive)
REMARK    1  A    between atoms: C_1  and  N_2
REMARK    2  A    between atoms: C_5  and  C_6
REMARK    3  A    between atoms: N_8  and  C_9
REMARK    4  A    between atoms: C_13  and  C_14
REMARK    5  A    between atoms: C_14  and  N_15
REMARK    6  A    between atoms: N_15  and  C_16
REMARK    7  A    between atoms: C_21  and  C_22
REMARK                            x       y       z     vdW  Elec       q    Type
REMARK                         _______ _______ _______ _____ _____    ______ ____
ROOT
ATOM      1  C   UNL     1       0.845  10.027  19.902  0.00  0.00    +0.000 A 
ATOM      2  C   UNL     1       0.699   9.454  21.164  0.00  0.00    +0.000 A 
ATOM      3  C   UNL     1       1.151   8.153  21.378  0.00  0.00    +0.000 A 
ATOM      4  C   UNL     1       1.824   7.452  20.358  0.00  0.00    +0.000 A 
ATOM      5  C   UNL     1       2.050   8.036  19.093  0.00  0.00    +0.000 A 
ATOM      6  C   UNL     1       1.529   9.326  18.887  0.00  0.00    +0.000 A 
ENDROOT
BRANCH   1   9
ATOM      7  C   UNL     1       0.792  12.441  20.252  0.00  0.00    +0.000 C 
ATOM      8  O   UNL     1       1.805  12.490  20.946  0.00  0.00    +0.000 OA
ATOM      9  N   UNL     1       0.274  11.295  19.668  0.00  0.00    +0.000 N 
ATOM     10  H   UNL     1      -0.254  11.412  18.811  0.00  0.00    +0.000 HD
BRANCH   7  15
ATOM     11  C   UNL     1      -2.672  15.656  22.597  0.00  0.00    +0.000 C 
ATOM     12  N   UNL     1      -2.521  15.979  21.197  0.00  0.00    +0.000 N 
ATOM     13  C   UNL     1      -1.470  15.435  20.483  0.00  0.00    +0.000 A 
ATOM     14  C   UNL     1      -0.970  14.162  20.713  0.00  0.00    +0.000 A 
ATOM     15  C   UNL     1       0.100  13.715  19.939  0.00  0.00    +0.000 A 
ATOM     16  C   UNL     1       0.608  14.521  18.923  0.00  0.00    +0.000 A 
ATOM     17  C   UNL     1       0.032  15.760  18.747  0.00  0.00    +0.000 A 
ATOM     18  N   UNL     1      -0.982  16.227  19.507  0.00  0.00    +0.000 NA
ATOM     19  H   UNL     1      -2.558  16.969  20.963  0.00  0.00    +0.000 HD
ENDBRANCH   7  15
ENDBRANCH   1   9
BRANCH   5  20
ATOM     20  C   UNL     1       2.661   7.258  17.930  0.00  0.00    +0.000 C 
BRANCH  20  21
ATOM     21  N   UNL     1       2.495   5.810  17.900  0.00  0.00    +0.000 N 
ATOM     22  H   UNL     1       1.810   5.491  18.587  0.00  0.00    +0.000 HD
BRANCH  21  23
ATOM     23  C   UNL     1       3.444   4.817  17.919  0.00  0.00    +0.000 A 
ATOM     24  N   UNL     1       3.225   4.015  18.964  0.00  0.00    +0.000 NA
ATOM     25  C   UNL     1       4.304   3.707  19.662  0.00  0.00    +0.000 A 
ATOM     26  N   UNL     1       5.520   4.179  19.403  0.00  0.00    +0.000 NA
ATOM     27  C   UNL     1       5.711   4.719  18.191  0.00  0.00    +0.000 A 
ATOM     28  C   UNL     1       6.966   5.138  17.782  0.00  0.00    +0.000 A 
ATOM     29  C   UNL     1       7.347   5.045  16.440  0.00  0.00    +0.000 A 
ATOM     30  C   UNL     1       6.387   4.663  15.502  0.00  0.00    +0.000 A 
ATOM     31  C   UNL     1       5.037   4.651  15.889  0.00  0.00    +0.000 A 
ATOM     32  C   UNL     1       4.683   4.794  17.266  0.00  0.00    +0.000 A 
BRANCH  28  33
ATOM     33  C   UNL     1       7.759   5.894  18.785  0.00  0.00    +0.000 C 
ATOM     34  N   UNL     1       8.148   5.272  19.937  0.00  0.00    +0.000 N 
ATOM     35  O   UNL     1       8.134   7.045  18.592  0.00  0.00    +0.000 OA
ATOM     36  H   UNL     1       7.675   4.446  20.252  0.00  0.00    +0.000 HD
ATOM     37  H   UNL     1       8.535   5.894  20.619  0.00  0.00    +0.000 HD
ENDBRANCH  28  33
ENDBRANCH  21  23
ENDBRANCH  20  21
ENDBRANCH   5  20
TORSDOF 6
ENDMDL
MODEL 4
REMARK VINA RESULT:      -8.9      6.624     10.145
REMARK  Name = 
REMARK  7 active torsions:
REMARK  status: ('A' for Active; 'I' for Inactive)
REMARK    1  A    between atoms: C_1  and  N_2
REMARK    2  A    between atoms: C_5  and  C_6
REMARK    3  A    between atoms: N_8  and  C_9
REMARK    4  A    between atoms: C_13  and  C_14
REMARK    5  A    between atoms: C_14  and  N_15
REMARK    6  A    between atoms: N_15  and  C_16
REMARK    7  A    between atoms: C_21  and  C_22
REMARK                            x       y       z     vdW  Elec       q    Type
REMARK                         _______ _______ _______ _____ _____    ______ ____
ROOT
ATOM      1  C   UNL     1       1.697   8.356  19.392  0.00  0.00    +0.000 A 
ATOM      2  C   UNL     1       1.477   9.173  18.283  0.00  0.00    +0.000 A 
ATOM      3  C   UNL     1       0.566  10.223  18.382  0.00  0.00    +0.000 A 
ATOM      4  C   UNL     1      -0.064  10.513  19.608  0.00  0.00    +0.000 A 
ATOM      5  C   UNL     1       0.196   9.746  20.764  0.00  0.00    +0.000 A 
ATOM      6  C   UNL     1       1.073   8.656  20.620  0.00  0.00    +0.000 A 
ENDROOT
BRANCH   1   9
ATOM      7  C   UNL     1       2.305   6.063  19.962  0.00  0.00    +0.000 C 
ATOM      8  O   UNL     1       1.361   5.868  20.723  0.00  0.00    +0.000 OA
ATOM      9  N   UNL     1       2.527   7.226  19.241  0.00  0.00    +0.000 N 
ATOM     10  H   UNL     1       3.030   7.137  18.365  0.00  0.00    +0.000 HD
BRANCH   7  15
ATOM     11  C   UNL     1       7.380   5.486  18.639  0.00  0.00    +0.000 C 
ATOM     12  N   UNL     1       6.664   4.237  18.529  0.00  0.00    +0.000 N 
ATOM     13  C   UNL     1       5.404   4.123  19.086  0.00  0.00    +0.000 A 
ATOM     14  C   UNL     1       4.493   5.168  19.131  0.00  0.00    +0.000 A 
ATOM     15  C   UNL     1       3.251   4.946  19.725  0.00  0.00    +0.000 A 
ATOM     16  C   UNL     1       2.928   3.680  20.208  0.00  0.00    +0.000 A 
ATOM     17  C   UNL     1       3.883   2.694  20.097  0.00  0.00    +0.000 A 
ATOM     18  N   UNL     1       5.105   2.895  19.557  0.00  0.00    +0.000 NA
ATOM     19  H   UNL     1       7.183   3.402  18.795  0.00  0.00    +0.000 HD
ENDBRANCH   7  15
ENDBRANCH   1   9
BRANCH   5  20
ATOM     20  C   UNL     1      -0.564   9.954  22.072  0.00  0.00    +0.000 C 
BRANCH  20  21
ATOM     21  N   UNL     1      -0.448  11.242  22.745  0.00  0.00    +0.000 N 
ATOM     22  H   UNL     1      -0.547  11.153  23.758  0.00  0.00    +0.000 HD
BRANCH  21  23
ATOM     23  C   UNL     1      -1.073  12.435  22.473  0.00  0.00    +0.000 A 
ATOM     24  N   UNL     1      -0.501  13.407  23.189  0.00  0.00    +0.000 NA
ATOM     25  C   UNL     1      -1.349  14.227  23.787  0.00  0.00    +0.000 A 
ATOM     26  N   UNL     1      -2.671  14.094  23.743  0.00  0.00    +0.000 NA
ATOM     27  C   UNL     1      -3.166  13.299  22.783  0.00  0.00    +0.000 A 
ATOM     28  C   UNL     1      -4.530  13.181  22.583  0.00  0.00    +0.000 A 
ATOM     29  C   UNL     1      -5.048  12.976  21.300  0.00  0.00    +0.000 A 
ATOM     30  C   UNL     1      -4.155  12.745  20.253  0.00  0.00    +0.000 A 
ATOM     31  C   UNL     1      -2.815  12.459  20.563  0.00  0.00    +0.000 A 
ATOM     32  C   UNL     1      -2.332  12.637  21.897  0.00  0.00    +0.000 A 
BRANCH  28  33
ATOM     33  C   UNL     1      -5.360  13.044  23.807  0.00  0.00    +0.000 C 
ATOM     34  N   UNL     1      -5.899  14.161  24.378  0.00  0.00    +0.000 N 
ATOM     35  O   UNL     1      -5.632  11.952  24.296  0.00  0.00    +0.000 OA
ATOM     36  H   UNL     1      -5.519  15.066  24.179  0.00  0.00    +0.000 HD
ATOM     37  H   UNL     1      -6.305  13.997  25.279  0.00  0.00    +0.000 HD
ENDBRANCH  28  33
ENDBRANCH  21  23
ENDBRANCH  20  21
ENDBRANCH   5  20
TORSDOF 6
ENDMDL
MODEL 5
REMARK VINA RESULT:      -8.9      7.885     10.639
REMARK  Name = 
REMARK  7 active torsions:
REMARK  status: ('A' for Active; 'I' for Inactive)
REMARK    1  A    between atoms: C_1  and  N_2
REMARK    2  A    between atoms: C_5  and  C_6
REMARK    3  A    between atoms: N_8  and  C_9
REMARK    4  A    between atoms: C_13  and  C_14
REMARK    5  A    between atoms: C_14  and  N_15
REMARK    6  A    between atoms: N_15  and  C_16
REMARK    7  A    between atoms: C_21  and  C_22
REMARK                            x       y       z     vdW  Elec       q    Type
REMARK                         _______ _______ _______ _____ _____    ______ ____
ROOT
ATOM      1  C   UNL     1       0.122  10.179  19.502  0.00  0.00    +0.000 A 
ATOM      2  C   UNL     1       0.454  11.246  20.336  0.00  0.00    +0.000 A 
ATOM      3  C   UNL     1      -0.309  12.411  20.289  0.00  0.00    +0.000 A 
ATOM      4  C   UNL     1      -1.454  12.485  19.471  0.00  0.00    +0.000 A 
ATOM      5  C   UNL     1      -1.855  11.393  18.671  0.00  0.00    +0.000 A 
ATOM      6  C   UNL     1      -1.032  10.253  18.693  0.00  0.00    +0.000 A 
ENDROOT
BRANCH   1   9
ATOM      7  C   UNL     1       1.845   8.835  18.418  0.00  0.00    +0.000 C 
ATOM      8  O   UNL     1       2.020   9.595  17.469  0.00  0.00    +0.000 OA
ATOM      9  N   UNL     1       0.974   9.056  19.473  0.00  0.00    +0.000 N 
ATOM     10  H   UNL     1       1.212   8.635  20.364  0.00  0.00    +0.000 HD
BRANCH   7  15
ATOM     11  C   UNL     1       1.717   4.188  20.912  0.00  0.00    +0.000 C 
ATOM     12  N   UNL     1       3.013   4.430  20.321  0.00  0.00    +0.000 N 
ATOM     13  C   UNL     1       3.161   5.455  19.405  0.00  0.00    +0.000 A 
ATOM     14  C   UNL     1       2.464   6.651  19.479  0.00  0.00    +0.000 A 
ATOM     15  C   UNL     1       2.684   7.615  18.496  0.00  0.00    +0.000 A 
ATOM     16  C   UNL     1       3.630   7.387  17.499  0.00  0.00    +0.000 A 
ATOM     17  C   UNL     1       4.297   6.181  17.518  0.00  0.00    +0.000 A 
ATOM     18  N   UNL     1       4.074   5.221  18.441  0.00  0.00    +0.000 NA
ATOM     19  H   UNL     1       3.483   3.615  19.933  0.00  0.00    +0.000 HD
ENDBRANCH   7  15
ENDBRANCH   1   9
BRANCH   5  20
ATOM     20  C   UNL     1      -3.014  11.486  17.681  0.00  0.00    +0.000 C 
BRANCH  20  21
ATOM     21  N   UNL     1      -4.170  10.620  17.884  0.00  0.00    +0.000 N 
ATOM     22  H   UNL     1      -4.177   9.835  17.230  0.00  0.00    +0.000 HD
BRANCH  21  23
ATOM     23  C   UNL     1      -5.500  10.944  17.999  0.00  0.00    +0.000 A 
ATOM     24  N   UNL     1      -5.782  11.956  17.174  0.00  0.00    +0.000 NA
ATOM     25  C   UNL     1      -6.511  12.920  17.709  0.00  0.00    +0.000 A 
ATOM     26  N   UNL     1      -6.908  12.939  18.978  0.00  0.00    +0.000 NA
ATOM     27  C   UNL     1      -6.849  11.777  19.645  0.00  0.00    +0.000 A 
ATOM     28  C   UNL     1      -7.341  11.665  20.934  0.00  0.00    +0.000 A 
ATOM     29  C   UNL     1      -7.916  10.469  21.377  0.00  0.00    +0.000 A 
ATOM     30  C   UNL     1      -7.847   9.351  20.544  0.00  0.00    +0.000 A 
ATOM     31  C   UNL     1      -6.985   9.391  19.437  0.00  0.00    +0.000 A 
ATOM     32  C   UNL     1      -6.379  10.623  19.040  0.00  0.00    +0.000 A 
BRANCH  28  33
ATOM     33  C   UNL     1      -7.005  12.777  21.859  0.00  0.00    +0.000 C 
ATOM     34  N   UNL     1      -5.762  13.338  21.807  0.00  0.00    +0.000 N 
ATOM     35  O   UNL     1      -7.828  13.257  22.632  0.00  0.00    +0.000 OA
ATOM     36  H   UNL     1      -4.998  12.841  21.390  0.00  0.00    +0.000 HD
ATOM     37  H   UNL     1      -5.571  13.965  22.565  0.00  0.00    +0.000 HD
ENDBRANCH  28  33
ENDBRANCH  21  23
ENDBRANCH  20  21
ENDBRANCH   5  20
TORSDOF 6
ENDMDL
MODEL 6
REMARK VINA RESULT:      -8.9      2.369      3.604
REMARK  Name = 
REMARK  7 active torsions:
REMARK  status: ('A' for Active; 'I' for Inactive)
REMARK    1  A    between atoms: C_1  and  N_2
REMARK    2  A    between atoms: C_5  and  C_6
REMARK    3  A    between atoms: N_8  and  C_9
REMARK    4  A    between atoms: C_13  and  C_14
REMARK    5  A    between atoms: C_14  and  N_15
REMARK    6  A    between atoms: N_15  and  C_16
REMARK    7  A    between atoms: C_21  and  C_22
REMARK                            x       y       z     vdW  Elec       q    Type
REMARK                         _______ _______ _______ _____ _____    ______ ____
ROOT
ATOM      1  C   UNL     1       7.851   6.991  18.338  0.00  0.00    +0.000 A 
ATOM      2  C   UNL     1       7.601   6.904  16.969  0.00  0.00    +0.000 A 
ATOM      3  C   UNL     1       6.907   5.802  16.472  0.00  0.00    +0.000 A 
ATOM      4  C   UNL     1       6.391   4.827  17.347  0.00  0.00    +0.000 A 
ATOM      5  C   UNL     1       6.567   4.928  18.744  0.00  0.00    +0.000 A 
ATOM      6  C   UNL     1       7.322   6.018  19.212  0.00  0.00    +0.000 A 
ENDROOT
BRANCH   1   9
ATOM      7  C   UNL     1       8.479   9.348  18.364  0.00  0.00    +0.000 C 
ATOM      8  O   UNL     1       7.591   9.724  17.603  0.00  0.00    +0.000 OA
ATOM      9  N   UNL     1       8.657   8.047  18.809  0.00  0.00    +0.000 N 
ATOM     10  H   UNL     1       9.094   7.925  19.716  0.00  0.00    +0.000 HD
BRANCH   7  15
ATOM     11  C   UNL     1      11.389  13.362  16.559  0.00  0.00    +0.000 C 
ATOM     12  N   UNL     1      11.741  13.030  17.920  0.00  0.00    +0.000 N 
ATOM     13  C   UNL     1      10.915  12.197  18.653  0.00  0.00    +0.000 A 
ATOM     14  C   UNL     1      10.206  11.143  18.095  0.00  0.00    +0.000 A 
ATOM     15  C   UNL     1       9.394  10.372  18.925  0.00  0.00    +0.000 A 
ATOM     16  C   UNL     1       9.351  10.632  20.292  0.00  0.00    +0.000 A 
ATOM     17  C   UNL     1      10.109  11.681  20.765  0.00  0.00    +0.000 A 
ATOM     18  N   UNL     1      10.876  12.463  19.974  0.00  0.00    +0.000 NA
ATOM     19  H   UNL     1      11.979  13.816  18.522  0.00  0.00    +0.000 HD
ENDBRANCH   7  15
ENDBRANCH   1   9
BRANCH   5  20
ATOM     20  C   UNL     1       6.131   3.825  19.706  0.00  0.00    +0.000 C 
BRANCH  20  21
ATOM     21  N   UNL     1       5.014   2.970  19.321  0.00  0.00    +0.000 N 
ATOM     22  H   UNL     1       5.259   2.349  18.548  0.00  0.00    +0.000 HD
BRANCH  21  23
ATOM     23  C   UNL     1       3.707   3.299  19.056  0.00  0.00    +0.000 A 
ATOM     24  N   UNL     1       3.323   2.709  17.922  0.00  0.00    +0.000 NA
ATOM     25  C   UNL     1       2.661   3.491  17.087  0.00  0.00    +0.000 A 
ATOM     26  N   UNL     1       2.422   4.782  17.303  0.00  0.00    +0.000 NA
ATOM     27  C   UNL     1       2.566   5.217  18.563  0.00  0.00    +0.000 A 
ATOM     28  C   UNL     1       2.235   6.515  18.915  0.00  0.00    +0.000 A 
ATOM     29  C   UNL     1       1.723   6.801  20.184  0.00  0.00    +0.000 A 
ATOM     30  C   UNL     1       1.693   5.780  21.135  0.00  0.00    +0.000 A 
ATOM     31  C   UNL     1       2.413   4.602  20.877  0.00  0.00    +0.000 A 
ATOM     32  C   UNL     1       2.962   4.364  19.579  0.00  0.00    +0.000 A 
BRANCH  28  33
ATOM     33  C   UNL     1       2.677   7.578  17.976  0.00  0.00    +0.000 C 
ATOM     34  N   UNL     1       3.911   7.489  17.399  0.00  0.00    +0.000 N 
ATOM     35  O   UNL     1       1.947   8.507  17.649  0.00  0.00    +0.000 OA
ATOM     36  H   UNL     1       4.621   6.911  17.806  0.00  0.00    +0.000 HD
ATOM     37  H   UNL     1       4.188   8.319  16.911  0.00  0.00    +0.000 HD
ENDBRANCH  28  33
ENDBRANCH  21  23
ENDBRANCH  20  21
ENDBRANCH   5  20
TORSDOF 6
ENDMDL
MODEL 7
REMARK VINA RESULT:      -8.9      4.249      6.509
REMARK  Name = 
REMARK  7 active torsions:
REMARK  status: ('A' for Active; 'I' for Inactive)
REMARK    1  A    between atoms: C_1  and  N_2
REMARK    2  A    between atoms: C_5  and  C_6
REMARK    3  A    between atoms: N_8  and  C_9
REMARK    4  A    between atoms: C_13  and  C_14
REMARK    5  A    between atoms: C_14  and  N_15
REMARK    6  A    between atoms: N_15  and  C_16
REMARK    7  A    between atoms: C_21  and  C_22
REMARK                            x       y       z     vdW  Elec       q    Type
REMARK                         _______ _______ _______ _____ _____    ______ ____
ROOT
ATOM      1  C   UNL     1       1.529  11.215  18.720  0.00  0.00    +0.000 A 
ATOM      2  C   UNL     1       0.800  10.952  19.879  0.00  0.00    +0.000 A 
ATOM      3  C   UNL     1       0.618   9.631  20.283  0.00  0.00    +0.000 A 
ATOM      4  C   UNL     1       1.231   8.575  19.580  0.00  0.00    +0.000 A 
ATOM      5  C   UNL     1       2.034   8.819  18.445  0.00  0.00    +0.000 A 
ATOM      6  C   UNL     1       2.151  10.157  18.025  0.00  0.00    +0.000 A 
ENDROOT
BRANCH   1   9
ATOM      7  C   UNL     1       2.145  13.554  19.039  0.00  0.00    +0.000 C 
ATOM      8  O   UNL     1       2.668  13.398  20.139  0.00  0.00    +0.000 OA
ATOM      9  N   UNL     1       1.602  12.545  18.258  0.00  0.00    +0.000 N 
ATOM     10  H   UNL     1       1.607  12.685  17.254  0.00  0.00    +0.000 HD
BRANCH   7  15
ATOM     11  C   UNL     1      -0.107  18.227  20.006  0.00  0.00    +0.000 C 
ATOM     12  N   UNL     1       0.512  18.203  18.700  0.00  0.00    +0.000 N 
ATOM     13  C   UNL     1       1.377  17.174  18.377  0.00  0.00    +0.000 A 
ATOM     14  C   UNL     1       1.219  15.873  18.830  0.00  0.00    +0.000 A 
ATOM     15  C   UNL     1       2.157  14.915  18.449  0.00  0.00    +0.000 A 
ATOM     16  C   UNL     1       3.194  15.261  17.585  0.00  0.00    +0.000 A 
ATOM     17  C   UNL     1       3.258  16.571  17.163  0.00  0.00    +0.000 A 
ATOM     18  N   UNL     1       2.381  17.523  17.546  0.00  0.00    +0.000 NA
ATOM     19  H   UNL     1       0.956  19.069  18.404  0.00  0.00    +0.000 HD
ENDBRANCH   7  15
ENDBRANCH   1   9
BRANCH   5  20
ATOM     20  C   UNL     1       2.606   7.692  17.589  0.00  0.00    +0.000 C 
BRANCH  20  21
ATOM     21  N   UNL     1       2.528   6.327  18.097  0.00  0.00    +0.000 N 
ATOM     22  H   UNL     1       2.259   6.302  19.082  0.00  0.00    +0.000 HD
BRANCH  21  23
ATOM     23  C   UNL     1       3.431   5.298  17.992  0.00  0.00    +0.000 A 
ATOM     24  N   UNL     1       3.213   4.416  18.970  0.00  0.00    +0.000 NA
ATOM     25  C   UNL     1       4.301   4.001  19.596  0.00  0.00    +0.000 A 
ATOM     26  N   UNL     1       5.527   4.444  19.333  0.00  0.00    +0.000 NA
ATOM     27  C   UNL     1       5.700   5.082  18.166  0.00  0.00    +0.000 A 
ATOM     28  C   UNL     1       6.957   5.484  17.748  0.00  0.00    +0.000 A 
ATOM     29  C   UNL     1       7.287   5.496  16.390  0.00  0.00    +0.000 A 
ATOM     30  C   UNL     1       6.279   5.239  15.459  0.00  0.00    +0.000 A 
ATOM     31  C   UNL     1       4.945   5.248  15.895  0.00  0.00    +0.000 A 
ATOM     32  C   UNL     1       4.644   5.282  17.292  0.00  0.00    +0.000 A 
BRANCH  28  33
ATOM     33  C   UNL     1       7.818   6.113  18.782  0.00  0.00    +0.000 C 
ATOM     34  N   UNL     1       8.146   5.404  19.902  0.00  0.00    +0.000 N 
ATOM     35  O   UNL     1       8.299   7.232  18.642  0.00  0.00    +0.000 OA
ATOM     36  H   UNL     1       7.597   4.612  20.180  0.00  0.00    +0.000 HD
ATOM     37  H   UNL     1       8.590   5.954  20.611  0.00  0.00    +0.000 HD
ENDBRANCH  28  33
ENDBRANCH  21  23
ENDBRANCH  20  21
ENDBRANCH   5  20
TORSDOF 6
ENDMDL
MODEL 8
REMARK VINA RESULT:      -8.9      5.684      8.176
REMARK  Name = 
REMARK  7 active torsions:
REMARK  status: ('A' for Active; 'I' for Inactive)
REMARK    1  A    between atoms: C_1  and  N_2
REMARK    2  A    between atoms: C_5  and  C_6
REMARK    3  A    between atoms: N_8  and  C_9
REMARK    4  A    between atoms: C_13  and  C_14
REMARK    5  A    between atoms: C_14  and  N_15
REMARK    6  A    between atoms: N_15  and  C_16
REMARK    7  A    between atoms: C_21  and  C_22
REMARK                            x       y       z     vdW  Elec       q    Type
REMARK                         _______ _______ _______ _____ _____    ______ ____
ROOT
ATOM      1  C   UNL     1       0.204  10.482  19.959  0.00  0.00    +0.000 A 
ATOM      2  C   UNL     1       0.738  10.842  18.723  0.00  0.00    +0.000 A 
ATOM      3  C   UNL     1       1.616   9.971  18.080  0.00  0.00    +0.000 A 
ATOM      4  C   UNL     1       1.897   8.704  18.628  0.00  0.00    +0.000 A 
ATOM      5  C   UNL     1       1.312   8.285  19.843  0.00  0.00    +0.000 A 
ATOM      6  C   UNL     1       0.479   9.209  20.499  0.00  0.00    +0.000 A 
ENDROOT
BRANCH   1   9
ATOM      7  C   UNL     1      -0.007  12.428  21.415  0.00  0.00    +0.000 C 
ATOM      8  O   UNL     1       1.197  12.647  21.510  0.00  0.00    +0.000 OA
ATOM      9  N   UNL     1      -0.583  11.424  20.652  0.00  0.00    +0.000 N 
ATOM     10  H   UNL     1      -1.519  11.592  20.299  0.00  0.00    +0.000 HD
BRANCH   7  15
ATOM     11  C   UNL     1      -2.426  16.999  20.369  0.00  0.00    +0.000 C 
ATOM     12  N   UNL     1      -2.517  16.667  21.773  0.00  0.00    +0.000 N 
ATOM     13  C   UNL     1      -2.186  15.392  22.192  0.00  0.00    +0.000 A 
ATOM     14  C   UNL     1      -1.183  14.632  21.608  0.00  0.00    +0.000 A 
ATOM     15  C   UNL     1      -0.939  13.353  22.105  0.00  0.00    +0.000 A 
ATOM     16  C   UNL     1      -1.659  12.885  23.202  0.00  0.00    +0.000 A 
ATOM     17  C   UNL     1      -2.617  13.717  23.737  0.00  0.00    +0.000 A 
ATOM     18  N   UNL     1      -2.894  14.946  23.250  0.00  0.00    +0.000 NA
ATOM     19  H   UNL     1      -3.391  16.914  22.231  0.00  0.00    +0.000 HD
ENDBRANCH   7  15
ENDBRANCH   1   9
BRANCH   5  20
ATOM     20  C   UNL     1       1.695   6.974  20.526  0.00  0.00    +0.000 C 
BRANCH  20  21
ATOM     21  N   UNL     1       3.002   6.396  20.236  0.00  0.00    +0.000 N 
ATOM     22  H   UNL     1       3.725   7.112  20.154  0.00  0.00    +0.000 HD
BRANCH  21  23
ATOM     23  C   UNL     1       3.363   5.475  19.282  0.00  0.00    +0.000 A 
ATOM     24  N   UNL     1       3.086   4.247  19.725  0.00  0.00    +0.000 NA
ATOM     25  C   UNL     1       4.047   3.359  19.537  0.00  0.00    +0.000 A 
ATOM     26  N   UNL     1       5.230   3.643  18.998  0.00  0.00    +0.000 NA
ATOM     27  C   UNL     1       5.320   4.795  18.317  0.00  0.00    +0.000 A 
ATOM     28  C   UNL     1       6.472   5.130  17.626  0.00  0.00    +0.000 A 
ATOM     29  C   UNL     1       6.403   5.867  16.440  0.00  0.00    +0.000 A 
ATOM     30  C   UNL     1       5.167   6.383  16.049  0.00  0.00    +0.000 A 
ATOM     31  C   UNL     1       4.113   6.378  16.978  0.00  0.00    +0.000 A 
ATOM     32  C   UNL     1       4.237   5.650  18.202  0.00  0.00    +0.000 A 
BRANCH  28  33
ATOM     33  C   UNL     1       7.753   4.878  18.333  0.00  0.00    +0.000 C 
ATOM     34  N   UNL     1       7.984   5.483  19.535  0.00  0.00    +0.000 N 
ATOM     35  O   UNL     1       8.594   4.093  17.907  0.00  0.00    +0.000 OA
ATOM     36  H   UNL     1       7.466   6.298  19.801  0.00  0.00    +0.000 HD
ATOM     37  H   UNL     1       8.926   5.385  19.861  0.00  0.00    +0.000 HD
ENDBRANCH  28  33
ENDBRANCH  21  23
ENDBRANCH  20  21
ENDBRANCH   5  20
TORSDOF 6
ENDMDL
MODEL 9
REMARK VINA RESULT:      -8.8      5.473      8.963
REMARK  Name = 
REMARK  7 active torsions:
REMARK  status: ('A' for Active; 'I' for Inactive)
REMARK    1  A    between atoms: C_1  and  N_2
REMARK    2  A    between atoms: C_5  and  C_6
REMARK    3  A    between atoms: N_8  and  C_9
REMARK    4  A    between atoms: C_13  and  C_14
REMARK    5  A    between atoms: C_14  and  N_15
REMARK    6  A    between atoms: N_15  and  C_16
REMARK    7  A    between atoms: C_21  and  C_22
REMARK                            x       y       z     vdW  Elec       q    Type
REMARK                         _______ _______ _______ _____ _____    ______ ____
ROOT
ATOM      1  C   UNL     1       2.352   8.156  18.643  0.00  0.00    +0.000 A 
ATOM      2  C   UNL     1       1.721   8.889  17.639  0.00  0.00    +0.000 A 
ATOM      3  C   UNL     1       0.524   9.543  17.923  0.00  0.00    +0.000 A 
ATOM      4  C   UNL     1      -0.003   9.537  19.230  0.00  0.00    +0.000 A 
ATOM      5  C   UNL     1       0.654   8.863  20.282  0.00  0.00    +0.000 A 
ATOM      6  C   UNL     1       1.828   8.161  19.953  0.00  0.00    +0.000 A 
ENDROOT
BRANCH   1   9
ATOM      7  C   UNL     1       3.403   6.061  17.964  0.00  0.00    +0.000 C 
ATOM      8  O   UNL     1       2.357   5.429  17.843  0.00  0.00    +0.000 OA
ATOM      9  N   UNL     1       3.495   7.401  18.309  0.00  0.00    +0.000 N 
ATOM     10  H   UNL     1       4.301   7.912  17.964  0.00  0.00    +0.000 HD
BRANCH   7  15
ATOM     11  C   UNL     1       5.718   3.975  13.707  0.00  0.00    +0.000 C 
ATOM     12  N   UNL     1       6.398   3.580  14.919  0.00  0.00    +0.000 N 
ATOM     13  C   UNL     1       6.112   4.236  16.103  0.00  0.00    +0.000 A 
ATOM     14  C   UNL     1       4.851   4.717  16.423  0.00  0.00    +0.000 A 
ATOM     15  C   UNL     1       4.676   5.371  17.641  0.00  0.00    +0.000 A 
ATOM     16  C   UNL     1       5.741   5.481  18.531  0.00  0.00    +0.000 A 
ATOM     17  C   UNL     1       6.952   4.949  18.143  0.00  0.00    +0.000 A 
ATOM     18  N   UNL     1       7.153   4.342  16.953  0.00  0.00    +0.000 NA
ATOM     19  H   UNL     1       7.411   3.508  14.857  0.00  0.00    +0.000 HD
ENDBRANCH   7  15
ENDBRANCH   1   9
BRANCH   5  20
ATOM     20  C   UNL     1       0.045   8.730  21.676  0.00  0.00    +0.000 C 
BRANCH  20  21
ATOM     21  N   UNL     1       0.156   9.860  22.592  0.00  0.00    +0.000 N 
ATOM     22  H   UNL     1      -0.073   9.596  23.552  0.00  0.00    +0.000 HD
BRANCH  21  23
ATOM     23  C   UNL     1      -0.356  11.130  22.485  0.00  0.00    +0.000 A 
ATOM     24  N   UNL     1      -1.232  11.338  23.472  0.00  0.00    +0.000 NA
ATOM     25  C   UNL     1      -2.364  11.909  23.097  0.00  0.00    +0.000 A 
ATOM     26  N   UNL     1      -2.662  12.218  21.838  0.00  0.00    +0.000 NA
ATOM     27  C   UNL     1      -1.641  12.259  20.970  0.00  0.00    +0.000 A 
ATOM     28  C   UNL     1      -1.828  12.678  19.664  0.00  0.00    +0.000 A 
ATOM     29  C   UNL     1      -0.817  13.365  18.984  0.00  0.00    +0.000 A 
ATOM     30  C   UNL     1       0.431  13.488  19.596  0.00  0.00    +0.000 A 
ATOM     31  C   UNL     1       0.705  12.699  20.725  0.00  0.00    +0.000 A 
ATOM     32  C   UNL     1      -0.346  11.974  21.368  0.00  0.00    +0.000 A 
BRANCH  28  33
ATOM     33  C   UNL     1      -3.034  12.151  18.976  0.00  0.00    +0.000 C 
ATOM     34  N   UNL     1      -4.244  12.741  19.203  0.00  0.00    +0.000 N 
ATOM     35  O   UNL     1      -2.977  11.238  18.159  0.00  0.00    +0.000 OA
ATOM     36  H   UNL     1      -4.389  13.304  20.020  0.00  0.00    +0.000 HD
ATOM     37  H   UNL     1      -5.019  12.228  18.829  0.00  0.00    +0.000 HD
ENDBRANCH  28  33
ENDBRANCH  21  23
ENDBRANCH  20  21
ENDBRANCH   5  20
TORSDOF 6
ENDMDL
