MODEL 1
REMARK VINA RESULT:      -8.2      0.000      0.000
REMARK  Name = 
REMARK  3 active torsions:
REMARK  status: ('A' for Active; 'I' for Inactive)
REMARK    1  A    between atoms: C_1  and  C_2
REMARK    2  A    between atoms: C_5  and  C_7
REMARK    3  A    between atoms: C_19  and  C_20
REMARK                            x       y       z     vdW  Elec       q    Type
REMARK                         _______ _______ _______ _____ _____    ______ ____
ROOT
ATOM      1  C   UNL     1       5.275   3.847  16.842  0.00  0.00    +0.000 A 
ATOM      2  C   UNL     1       5.165   3.368  15.588  0.00  0.00    +0.000 A 
ATOM      3  C   UNL     1       6.009   3.919  14.525  0.00  0.00    +0.000 A 
ATOM      4  C   UNL     1       5.973   3.403  13.226  0.00  0.00    +0.000 A 
ATOM      5  C   UNL     1       6.770   3.969  12.224  0.00  0.00    +0.000 A 
ATOM      6  C   UNL     1       7.595   5.060  12.509  0.00  0.00    +0.000 A 
ATOM      7  C   UNL     1       7.645   5.576  13.802  0.00  0.00    +0.000 A 
ATOM      8  C   UNL     1       6.865   4.994  14.806  0.00  0.00    +0.000 A 
ATOM      9  C   UNL     1       6.964   5.479  16.203  0.00  0.00    +0.000 A 
ATOM     10  O   UNL     1       7.685   6.418  16.520  0.00  0.00    +0.000 OA
ATOM     11  N   UNL     1       6.208   4.810  17.135  0.00  0.00    +0.000 N 
ATOM     12  H   UNL     1       6.363   5.079  18.097  0.00  0.00    +0.000 HD
ENDROOT
BRANCH   1  17
ATOM     13  C   UNL     1       0.972   3.734  19.184  0.00  0.00    +0.000 C 
ATOM     14  C   UNL     1       1.987   4.107  20.258  0.00  0.00    +0.000 C 
ATOM     15  C   UNL     1       3.328   3.364  20.118  0.00  0.00    +0.000 C 
ATOM     16  N   UNL     1       4.175   3.972  19.091  0.00  0.00    +0.000 N 
ATOM     17  C   UNL     1       4.384   3.268  17.909  0.00  0.00    +0.000 C 
ATOM     18  O   UNL     1       3.852   2.172  17.711  0.00  0.00    +0.000 OA
ATOM     19  C   UNL     1       4.397   5.399  19.349  0.00  0.00    +0.000 C 
ATOM     20  C   UNL     1       3.072   6.165  19.493  0.00  0.00    +0.000 C 
ATOM     21  C   UNL     1       2.466   6.514  18.137  0.00  0.00    +0.000 C 
ATOM     22  O   UNL     1       2.139   5.532  20.378  0.00  0.00    +0.000 OA
ENDBRANCH   1  17
TORSDOF 1
ENDMDL
MODEL 2
REMARK VINA RESULT:      -8.1      1.470      2.430
REMARK  Name = 
REMARK  3 active torsions:
REMARK  status: ('A' for Active; 'I' for Inactive)
REMARK    1  A    between atoms: C_1  and  C_2
REMARK    2  A    between atoms: C_5  and  C_7
REMARK    3  A    between atoms: C_19  and  C_20
REMARK                            x       y       z     vdW  Elec       q    Type
REMARK                         _______ _______ _______ _____ _____    ______ ____
ROOT
ATOM      1  C   UNL     1       4.761   5.183  17.580  0.00  0.00    +0.000 A 
ATOM      2  C   UNL     1       4.502   4.441  16.487  0.00  0.00    +0.000 A 
ATOM      3  C   UNL     1       5.441   4.455  15.362  0.00  0.00    +0.000 A 
ATOM      4  C   UNL     1       5.242   3.648  14.238  0.00  0.00    +0.000 A 
ATOM      5  C   UNL     1       6.141   3.704  13.166  0.00  0.00    +0.000 A 
ATOM      6  C   UNL     1       7.231   4.576  13.203  0.00  0.00    +0.000 A 
ATOM      7  C   UNL     1       7.443   5.380  14.322  0.00  0.00    +0.000 A 
ATOM      8  C   UNL     1       6.557   5.304  15.401  0.00  0.00    +0.000 A 
ATOM      9  C   UNL     1       6.810   6.091  16.630  0.00  0.00    +0.000 A 
ATOM     10  O   UNL     1       7.760   6.859  16.732  0.00  0.00    +0.000 OA
ATOM     11  N   UNL     1       5.922   5.910  17.664  0.00  0.00    +0.000 N 
ATOM     12  H   UNL     1       6.162   6.370  18.532  0.00  0.00    +0.000 HD
ENDROOT
BRANCH   1  17
ATOM     13  C   UNL     1       2.635   2.819  21.309  0.00  0.00    +0.000 C 
ATOM     14  C   UNL     1       1.496   3.120  20.342  0.00  0.00    +0.000 C 
ATOM     15  C   UNL     1       1.611   4.501  19.670  0.00  0.00    +0.000 C 
ATOM     16  N   UNL     1       2.562   4.480  18.559  0.00  0.00    +0.000 N 
ATOM     17  C   UNL     1       3.770   5.156  18.714  0.00  0.00    +0.000 C 
ATOM     18  O   UNL     1       4.051   5.738  19.765  0.00  0.00    +0.000 OA
ATOM     19  C   UNL     1       2.219   3.450  17.573  0.00  0.00    +0.000 C 
ATOM     20  C   UNL     1       2.097   2.060  18.218  0.00  0.00    +0.000 C 
ATOM     21  C   UNL     1       3.460   1.403  18.416  0.00  0.00    +0.000 C 
ATOM     22  O   UNL     1       1.293   2.049  19.404  0.00  0.00    +0.000 OA
ENDBRANCH   1  17
TORSDOF 1
ENDMDL
MODEL 3
REMARK VINA RESULT:      -8.1      1.076      1.217
REMARK  Name = 
REMARK  3 active torsions:
REMARK  status: ('A' for Active; 'I' for Inactive)
REMARK    1  A    between atoms: C_1  and  C_2
REMARK    2  A    between atoms: C_5  and  C_7
REMARK    3  A    between atoms: C_19  and  C_20
REMARK                            x       y       z     vdW  Elec       q    Type
REMARK                         _______ _______ _______ _____ _____    ______ ____
ROOT
ATOM      1  C   UNL     1       5.089   3.475  17.940  0.00  0.00    +0.000 A 
ATOM      2  C   UNL     1       4.779   3.345  16.636  0.00  0.00    +0.000 A 
ATOM      3  C   UNL     1       5.684   3.887  15.618  0.00  0.00    +0.000 A 
ATOM      4  C   UNL     1       5.431   3.715  14.253  0.00  0.00    +0.000 A 
ATOM      5  C   UNL     1       6.298   4.269  13.304  0.00  0.00    +0.000 A 
ATOM      6  C   UNL     1       7.410   5.009  13.710  0.00  0.00    +0.000 A 
ATOM      7  C   UNL     1       7.676   5.179  15.067  0.00  0.00    +0.000 A 
ATOM      8  C   UNL     1       6.822   4.605  16.013  0.00  0.00    +0.000 A 
ATOM      9  C   UNL     1       7.131   4.710  17.458  0.00  0.00    +0.000 A 
ATOM     10  O   UNL     1       8.103   5.328  17.876  0.00  0.00    +0.000 OA
ATOM     11  N   UNL     1       6.271   4.065  18.314  0.00  0.00    +0.000 N 
ATOM     12  H   UNL     1       6.548   4.053  19.286  0.00  0.00    +0.000 HD
ENDROOT
BRANCH   1  17
ATOM     13  C   UNL     1       0.519   2.904  19.612  0.00  0.00    +0.000 C 
ATOM     14  C   UNL     1       1.248   3.648  20.725  0.00  0.00    +0.000 C 
ATOM     15  C   UNL     1       2.699   3.173  20.931  0.00  0.00    +0.000 C 
ATOM     16  N   UNL     1       3.601   3.756  19.937  0.00  0.00    +0.000 N 
ATOM     17  C   UNL     1       4.133   2.918  18.960  0.00  0.00    +0.000 C 
ATOM     18  O   UNL     1       3.837   1.721  18.909  0.00  0.00    +0.000 OA
ATOM     19  C   UNL     1       3.529   5.221  19.936  0.00  0.00    +0.000 C 
ATOM     20  C   UNL     1       2.090   5.722  19.732  0.00  0.00    +0.000 C 
ATOM     21  C   UNL     1       1.686   5.709  18.261  0.00  0.00    +0.000 C 
ATOM     22  O   UNL     1       1.134   5.073  20.581  0.00  0.00    +0.000 OA
ENDBRANCH   1  17
TORSDOF 1
ENDMDL
MODEL 4
REMARK VINA RESULT:      -7.9      1.208      1.410
REMARK  Name = 
REMARK  3 active torsions:
REMARK  status: ('A' for Active; 'I' for Inactive)
REMARK    1  A    between atoms: C_1  and  C_2
REMARK    2  A    between atoms: C_5  and  C_7
REMARK    3  A    between atoms: C_19  and  C_20
REMARK                            x       y       z     vdW  Elec       q    Type
REMARK                         _______ _______ _______ _____ _____    ______ ____
ROOT
ATOM      1  C   UNL     1       5.493   4.328  17.901  0.00  0.00    +0.000 A 
ATOM      2  C   UNL     1       5.181   3.663  16.773  0.00  0.00    +0.000 A 
ATOM      3  C   UNL     1       5.833   4.029  15.512  0.00  0.00    +0.000 A 
ATOM      4  C   UNL     1       5.586   3.319  14.332  0.00  0.00    +0.000 A 
ATOM      5  C   UNL     1       6.201   3.710  13.137  0.00  0.00    +0.000 A 
ATOM      6  C   UNL     1       7.053   4.816  13.110  0.00  0.00    +0.000 A 
ATOM      7  C   UNL     1       7.313   5.525  14.281  0.00  0.00    +0.000 A 
ATOM      8  C   UNL     1       6.715   5.119  15.478  0.00  0.00    +0.000 A 
ATOM      9  C   UNL     1       7.040   5.811  16.747  0.00  0.00    +0.000 A 
ATOM     10  O   UNL     1       7.796   6.775  16.791  0.00  0.00    +0.000 OA
ATOM     11  N   UNL     1       6.455   5.308  17.884  0.00  0.00    +0.000 N 
ATOM     12  H   UNL     1       6.764   5.718  18.754  0.00  0.00    +0.000 HD
ENDROOT
BRANCH   1  17
ATOM     13  C   UNL     1       1.678   2.292  20.206  0.00  0.00    +0.000 C 
ATOM     14  C   UNL     1       1.682   3.743  20.673  0.00  0.00    +0.000 C 
ATOM     15  C   UNL     1       3.096   4.308  20.903  0.00  0.00    +0.000 C 
ATOM     16  N   UNL     1       3.729   4.700  19.644  0.00  0.00    +0.000 N 
ATOM     17  C   UNL     1       4.796   3.936  19.177  0.00  0.00    +0.000 C 
ATOM     18  O   UNL     1       5.187   2.938  19.787  0.00  0.00    +0.000 OA
ATOM     19  C   UNL     1       2.903   5.657  18.899  0.00  0.00    +0.000 C 
ATOM     20  C   UNL     1       1.485   5.117  18.656  0.00  0.00    +0.000 C 
ATOM     21  C   UNL     1       1.435   4.162  17.467  0.00  0.00    +0.000 C 
ATOM     22  O   UNL     1       0.869   4.578  19.832  0.00  0.00    +0.000 OA
ENDBRANCH   1  17
TORSDOF 1
ENDMDL
MODEL 5
REMARK VINA RESULT:      -7.8      3.636      7.001
REMARK  Name = 
REMARK  3 active torsions:
REMARK  status: ('A' for Active; 'I' for Inactive)
REMARK    1  A    between atoms: C_1  and  C_2
REMARK    2  A    between atoms: C_5  and  C_7
REMARK    3  A    between atoms: C_19  and  C_20
REMARK                            x       y       z     vdW  Elec       q    Type
REMARK                         _______ _______ _______ _____ _____    ______ ____
ROOT
ATOM      1  C   UNL     1       2.541   6.827  19.699  0.00  0.00    +0.000 A 
ATOM      2  C   UNL     1       1.872   7.247  20.789  0.00  0.00    +0.000 A 
ATOM      3  C   UNL     1       1.102   8.492  20.733  0.00  0.00    +0.000 A 
ATOM      4  C   UNL     1       0.340   8.927  21.822  0.00  0.00    +0.000 A 
ATOM      5  C   UNL     1      -0.362  10.136  21.749  0.00  0.00    +0.000 A 
ATOM      6  C   UNL     1      -0.297  10.922  20.597  0.00  0.00    +0.000 A 
ATOM      7  C   UNL     1       0.451  10.494  19.502  0.00  0.00    +0.000 A 
ATOM      8  C   UNL     1       1.134   9.275  19.570  0.00  0.00    +0.000 A 
ATOM      9  C   UNL     1       1.870   8.766  18.389  0.00  0.00    +0.000 A 
ATOM     10  O   UNL     1       1.947   9.400  17.343  0.00  0.00    +0.000 OA
ATOM     11  N   UNL     1       2.460   7.532  18.524  0.00  0.00    +0.000 N 
ATOM     12  H   UNL     1       2.868   7.149  17.683  0.00  0.00    +0.000 HD
ENDROOT
BRANCH   1  17
ATOM     13  C   UNL     1       4.036   2.598  17.727  0.00  0.00    +0.000 C 
ATOM     14  C   UNL     1       3.260   2.190  18.974  0.00  0.00    +0.000 C 
ATOM     15  C   UNL     1       3.484   3.134  20.170  0.00  0.00    +0.000 C 
ATOM     16  N   UNL     1       2.678   4.349  20.054  0.00  0.00    +0.000 N 
ATOM     17  C   UNL     1       3.333   5.550  19.794  0.00  0.00    +0.000 C 
ATOM     18  O   UNL     1       4.556   5.595  19.638  0.00  0.00    +0.000 OA
ATOM     19  C   UNL     1       1.253   4.039  19.897  0.00  0.00    +0.000 C 
ATOM     20  C   UNL     1       1.002   3.098  18.708  0.00  0.00    +0.000 C 
ATOM     21  C   UNL     1       0.975   3.851  17.381  0.00  0.00    +0.000 C 
ATOM     22  O   UNL     1       1.871   1.958  18.688  0.00  0.00    +0.000 OA
ENDBRANCH   1  17
TORSDOF 1
ENDMDL
MODEL 6
REMARK VINA RESULT:      -7.6      3.889      6.830
REMARK  Name = 
REMARK  3 active torsions:
REMARK  status: ('A' for Active; 'I' for Inactive)
REMARK    1  A    between atoms: C_1  and  C_2
REMARK    2  A    between atoms: C_5  and  C_7
REMARK    3  A    between atoms: C_19  and  C_20
REMARK                            x       y       z     vdW  Elec       q    Type
REMARK                         _______ _______ _______ _____ _____    ______ ____
ROOT
ATOM      1  C   UNL     1       2.670   6.969  18.884  0.00  0.00    +0.000 A 
ATOM      2  C   UNL     1       2.102   7.070  20.101  0.00  0.00    +0.000 A 
ATOM      3  C   UNL     1       1.332   8.268  20.445  0.00  0.00    +0.000 A 
ATOM      4  C   UNL     1       0.671   8.381  21.673  0.00  0.00    +0.000 A 
ATOM      5  C   UNL     1      -0.033   9.550  21.986  0.00  0.00    +0.000 A 
ATOM      6  C   UNL     1      -0.070  10.615  21.083  0.00  0.00    +0.000 A 
ATOM      7  C   UNL     1       0.577  10.509  19.853  0.00  0.00    +0.000 A 
ATOM      8  C   UNL     1       1.260   9.332  19.534  0.00  0.00    +0.000 A 
ATOM      9  C   UNL     1       1.887   9.171  18.202  0.00  0.00    +0.000 A 
ATOM     10  O   UNL     1       1.871  10.061  17.359  0.00  0.00    +0.000 OA
ATOM     11  N   UNL     1       2.485   7.959  17.951  0.00  0.00    +0.000 N 
ATOM     12  H   UNL     1       2.816   7.822  17.006  0.00  0.00    +0.000 HD
ENDROOT
BRANCH   1  17
ATOM     13  C   UNL     1       2.844   2.207  17.747  0.00  0.00    +0.000 C 
ATOM     14  C   UNL     1       3.572   2.312  19.082  0.00  0.00    +0.000 C 
ATOM     15  C   UNL     1       4.441   3.577  19.207  0.00  0.00    +0.000 C 
ATOM     16  N   UNL     1       3.636   4.752  19.542  0.00  0.00    +0.000 N 
ATOM     17  C   UNL     1       3.465   5.731  18.567  0.00  0.00    +0.000 C 
ATOM     18  O   UNL     1       3.954   5.609  17.440  0.00  0.00    +0.000 OA
ATOM     19  C   UNL     1       2.851   4.539  20.762  0.00  0.00    +0.000 C 
ATOM     20  C   UNL     1       1.973   3.281  20.664  0.00  0.00    +0.000 C 
ATOM     21  C   UNL     1       0.684   3.545  19.891  0.00  0.00    +0.000 C 
ATOM     22  O   UNL     1       2.680   2.126  20.194  0.00  0.00    +0.000 OA
ENDBRANCH   1  17
TORSDOF 1
ENDMDL
MODEL 7
REMARK VINA RESULT:      -7.4      3.753      7.002
REMARK  Name = 
REMARK  3 active torsions:
REMARK  status: ('A' for Active; 'I' for Inactive)
REMARK    1  A    between atoms: C_1  and  C_2
REMARK    2  A    between atoms: C_5  and  C_7
REMARK    3  A    between atoms: C_19  and  C_20
REMARK                            x       y       z     vdW  Elec       q    Type
REMARK                         _______ _______ _______ _____ _____    ______ ____
ROOT
ATOM      1  C   UNL     1       2.399   7.326  19.315  0.00  0.00    +0.000 A 
ATOM      2  C   UNL     1       1.785   8.090  18.392  0.00  0.00    +0.000 A 
ATOM      3  C   UNL     1       0.888   9.166  18.821  0.00  0.00    +0.000 A 
ATOM      4  C   UNL     1       0.284  10.023  17.896  0.00  0.00    +0.000 A 
ATOM      5  C   UNL     1      -0.592  11.023  18.333  0.00  0.00    +0.000 A 
ATOM      6  C   UNL     1      -0.881  11.164  19.693  0.00  0.00    +0.000 A 
ATOM      7  C   UNL     1      -0.278  10.321  20.624  0.00  0.00    +0.000 A 
ATOM      8  C   UNL     1       0.614   9.337  20.186  0.00  0.00    +0.000 A 
ATOM      9  C   UNL     1       1.324   8.484  21.167  0.00  0.00    +0.000 A 
ATOM     10  O   UNL     1       1.128   8.573  22.374  0.00  0.00    +0.000 OA
ATOM     11  N   UNL     1       2.227   7.585  20.653  0.00  0.00    +0.000 N 
ATOM     12  H   UNL     1       2.781   7.084  21.333  0.00  0.00    +0.000 HD
ENDROOT
BRANCH   1  17
ATOM     13  C   UNL     1       3.009   2.820  17.491  0.00  0.00    +0.000 C 
ATOM     14  C   UNL     1       3.705   2.785  18.847  0.00  0.00    +0.000 C 
ATOM     15  C   UNL     1       4.457   4.086  19.182  0.00  0.00    +0.000 C 
ATOM     16  N   UNL     1       3.547   5.125  19.664  0.00  0.00    +0.000 N 
ATOM     17  C   UNL     1       3.306   6.222  18.841  0.00  0.00    +0.000 C 
ATOM     18  O   UNL     1       3.820   6.312  17.723  0.00  0.00    +0.000 OA
ATOM     19  C   UNL     1       2.765   4.666  20.817  0.00  0.00    +0.000 C 
ATOM     20  C   UNL     1       2.003   3.368  20.509  0.00  0.00    +0.000 C 
ATOM     21  C   UNL     1       0.707   3.634  19.748  0.00  0.00    +0.000 C 
ATOM     22  O   UNL     1       2.815   2.360  19.894  0.00  0.00    +0.000 OA
ENDBRANCH   1  17
TORSDOF 1
ENDMDL
MODEL 8
REMARK VINA RESULT:      -7.4      3.382      6.793
REMARK  Name = 
REMARK  3 active torsions:
REMARK  status: ('A' for Active; 'I' for Inactive)
REMARK    1  A    between atoms: C_1  and  C_2
REMARK    2  A    between atoms: C_5  and  C_7
REMARK    3  A    between atoms: C_19  and  C_20
REMARK                            x       y       z     vdW  Elec       q    Type
REMARK                         _______ _______ _______ _____ _____    ______ ____
ROOT
ATOM      1  C   UNL     1       1.840   6.427  19.944  0.00  0.00    +0.000 A 
ATOM      2  C   UNL     1       1.249   7.264  20.817  0.00  0.00    +0.000 A 
ATOM      3  C   UNL     1       1.060   8.672  20.458  0.00  0.00    +0.000 A 
ATOM      4  C   UNL     1       0.392   9.558  21.310  0.00  0.00    +0.000 A 
ATOM      5  C   UNL     1       0.252  10.904  20.953  0.00  0.00    +0.000 A 
ATOM      6  C   UNL     1       0.791  11.376  19.754  0.00  0.00    +0.000 A 
ATOM      7  C   UNL     1       1.451  10.501  18.894  0.00  0.00    +0.000 A 
ATOM      8  C   UNL     1       1.569   9.152  19.242  0.00  0.00    +0.000 A 
ATOM      9  C   UNL     1       2.198   8.192  18.306  0.00  0.00    +0.000 A 
ATOM     10  O   UNL     1       2.671   8.542  17.230  0.00  0.00    +0.000 OA
ATOM     11  N   UNL     1       2.217   6.877  18.702  0.00  0.00    +0.000 N 
ATOM     12  H   UNL     1       2.552   6.217  18.014  0.00  0.00    +0.000 HD
ENDROOT
BRANCH   1  17
ATOM     13  C   UNL     1       4.404   2.258  19.732  0.00  0.00    +0.000 C 
ATOM     14  C   UNL     1       3.036   1.899  19.163  0.00  0.00    +0.000 C 
ATOM     15  C   UNL     1       1.869   2.587  19.896  0.00  0.00    +0.000 C 
ATOM     16  N   UNL     1       1.700   3.972  19.457  0.00  0.00    +0.000 N 
ATOM     17  C   UNL     1       2.030   4.990  20.348  0.00  0.00    +0.000 C 
ATOM     18  O   UNL     1       2.477   4.741  21.471  0.00  0.00    +0.000 OA
ATOM     19  C   UNL     1       1.524   4.060  18.003  0.00  0.00    +0.000 C 
ATOM     20  C   UNL     1       2.677   3.381  17.247  0.00  0.00    +0.000 C 
ATOM     21  C   UNL     1       3.903   4.285  17.145  0.00  0.00    +0.000 C 
ATOM     22  O   UNL     1       2.988   2.070  17.737  0.00  0.00    +0.000 OA
ENDBRANCH   1  17
TORSDOF 1
ENDMDL
MODEL 9
REMARK VINA RESULT:      -7.4      2.791      6.938
REMARK  Name = 
REMARK  3 active torsions:
REMARK  status: ('A' for Active; 'I' for Inactive)
REMARK    1  A    between atoms: C_1  and  C_2
REMARK    2  A    between atoms: C_5  and  C_7
REMARK    3  A    between atoms: C_19  and  C_20
REMARK                            x       y       z     vdW  Elec       q    Type
REMARK                         _______ _______ _______ _____ _____    ______ ____
ROOT
ATOM      1  C   UNL     1       3.172   6.544  18.582  0.00  0.00    +0.000 A 
ATOM      2  C   UNL     1       2.574   6.534  19.788  0.00  0.00    +0.000 A 
ATOM      3  C   UNL     1       1.719   7.657  20.183  0.00  0.00    +0.000 A 
ATOM      4  C   UNL     1       1.027   7.653  21.399  0.00  0.00    +0.000 A 
ATOM      5  C   UNL     1       0.240   8.752  21.761  0.00  0.00    +0.000 A 
ATOM      6  C   UNL     1       0.150   9.864  20.922  0.00  0.00    +0.000 A 
ATOM      7  C   UNL     1       0.828   9.875  19.704  0.00  0.00    +0.000 A 
ATOM      8  C   UNL     1       1.595   8.766  19.334  0.00  0.00    +0.000 A 
ATOM      9  C   UNL     1       2.258   8.727  18.010  0.00  0.00    +0.000 A 
ATOM     10  O   UNL     1       2.200   9.663  17.221  0.00  0.00    +0.000 OA
ATOM     11  N   UNL     1       2.941   7.574  17.704  0.00  0.00    +0.000 N 
ATOM     12  H   UNL     1       3.300   7.516  16.761  0.00  0.00    +0.000 HD
ENDROOT
BRANCH   1  17
ATOM     13  C   UNL     1       7.633   4.555  18.186  0.00  0.00    +0.000 C 
ATOM     14  C   UNL     1       7.090   4.574  16.762  0.00  0.00    +0.000 C 
ATOM     15  C   UNL     1       5.588   4.247  16.675  0.00  0.00    +0.000 C 
ATOM     16  N   UNL     1       4.764   5.407  17.015  0.00  0.00    +0.000 N 
ATOM     17  C   UNL     1       4.055   5.382  18.213  0.00  0.00    +0.000 C 
ATOM     18  O   UNL     1       4.133   4.424  18.986  0.00  0.00    +0.000 OA
ATOM     19  C   UNL     1       5.092   6.567  16.178  0.00  0.00    +0.000 C 
ATOM     20  C   UNL     1       6.588   6.915  16.247  0.00  0.00    +0.000 C 
ATOM     21  C   UNL     1       6.926   7.729  17.493  0.00  0.00    +0.000 C 
ATOM     22  O   UNL     1       7.448   5.782  16.069  0.00  0.00    +0.000 OA
ENDBRANCH   1  17
TORSDOF 1
ENDMDL
