MODEL 1
REMARK VINA RESULT:      -7.7      0.000      0.000
REMARK  Name = 
REMARK  8 active torsions:
REMARK  status: ('A' for Active; 'I' for Inactive)
REMARK    1  A    between atoms: C_1  and  N_2
REMARK    2  A    between atoms: N_2  and  C_3
REMARK    3  A    between atoms: N_2  and  C_4
REMARK    4  A    between atoms: N_6  and  C_7
REMARK    5  A    between atoms: C_7  and  C_8
REMARK    6  A    between atoms: C_13  and  O_14
REMARK    7  A    between atoms: C_16  and  C_17
REMARK    8  A    between atoms: N_19  and  C_20
REMARK                            x       y       z     vdW  Elec       q    Type
REMARK                         _______ _______ _______ _____ _____    ______ ____
ROOT
ATOM      1  C   UNL     1       2.730   4.604  20.215  0.00  0.00    +0.000 C 
ATOM      2  C   UNL     1       1.341   5.243  20.342  0.00  0.00    +0.000 C 
ATOM      3  N   UNL     1       1.487   6.598  19.783  0.00  0.00    +0.000 NA
ATOM      4  C   UNL     1       2.432   6.424  18.654  0.00  0.00    +0.000 C 
ATOM      5  C   UNL     1       3.078   5.029  18.785  0.00  0.00    +0.000 C 
ENDROOT
BRANCH   5   6
ATOM      6  C   UNL     1       4.550   5.055  18.451  0.00  0.00    +0.000 A 
ATOM      7  C   UNL     1       5.588   5.393  19.320  0.00  0.00    +0.000 A 
ATOM      8  N   UNL     1       6.771   5.370  18.662  0.00  0.00    +0.000 N 
ATOM      9  C   UNL     1       8.080   5.698  19.223  0.00  0.00    +0.000 C 
ATOM     10  C   UNL     1       6.500   5.005  17.395  0.00  0.00    +0.000 A 
ATOM     11  C   UNL     1       7.395   4.843  16.336  0.00  0.00    +0.000 A 
ATOM     12  C   UNL     1       6.874   4.458  15.088  0.00  0.00    +0.000 A 
ATOM     13  C   UNL     1       5.487   4.248  14.924  0.00  0.00    +0.000 A 
ATOM     14  C   UNL     1       4.607   4.426  16.005  0.00  0.00    +0.000 A 
ATOM     15  C   UNL     1       5.150   4.805  17.231  0.00  0.00    +0.000 A 
ENDBRANCH   5   6
BRANCH   1  17
ATOM     16  C   UNL     1       2.048   2.807  21.726  0.00  0.00    +0.000 C 
ATOM     17  N   UNL     1       2.812   3.142  20.512  0.00  0.00    +0.000 NA
ATOM     18  C   UNL     1       2.415   2.242  19.412  0.00  0.00    +0.000 C 
ENDBRANCH   1  17
BRANCH   3  19
ATOM     19  C   UNL     1       2.034   7.529  20.806  0.00  0.00    +0.000 C 
BRANCH  19  20
ATOM     20  C   UNL     1       1.097   8.684  21.066  0.00  0.00    +0.000 A 
ATOM     21  C   UNL     1       0.556   8.850  22.351  0.00  0.00    +0.000 A 
ATOM     22  C   UNL     1      -0.305   9.915  22.625  0.00  0.00    +0.000 A 
ATOM     23  C   UNL     1      -0.641  10.823  21.618  0.00  0.00    +0.000 A 
ATOM     24  C   UNL     1      -0.118  10.667  20.333  0.00  0.00    +0.000 A 
ATOM     25  C   UNL     1       0.750   9.603  20.046  0.00  0.00    +0.000 A 
BRANCH  25  26
ATOM     26  O   UNL     1       1.247   9.463  18.799  0.00  0.00    +0.000 OA
ATOM     27  H   UNL     1       1.353  10.212  18.195  0.00  0.00    +0.000 HD
ENDBRANCH  25  26
ENDBRANCH  19  20
ENDBRANCH   3  19
TORSDOF 5
ENDMDL
MODEL 2
REMARK VINA RESULT:      -7.2      0.924      1.265
REMARK  Name = 
REMARK  8 active torsions:
REMARK  status: ('A' for Active; 'I' for Inactive)
REMARK    1  A    between atoms: C_1  and  N_2
REMARK    2  A    between atoms: N_2  and  C_3
REMARK    3  A    between atoms: N_2  and  C_4
REMARK    4  A    between atoms: N_6  and  C_7
REMARK    5  A    between atoms: C_7  and  C_8
REMARK    6  A    between atoms: C_13  and  O_14
REMARK    7  A    between atoms: C_16  and  C_17
REMARK    8  A    between atoms: N_19  and  C_20
REMARK                            x       y       z     vdW  Elec       q    Type
REMARK                         _______ _______ _______ _____ _____    ______ ____
ROOT
ATOM      1  C   UNL     1       2.779   4.599  20.179  0.00  0.00    +0.000 C 
ATOM      2  C   UNL     1       1.375   5.211  20.273  0.00  0.00    +0.000 C 
ATOM      3  N   UNL     1       1.493   6.544  19.656  0.00  0.00    +0.000 NA
ATOM      4  C   UNL     1       2.447   6.342  18.538  0.00  0.00    +0.000 C 
ATOM      5  C   UNL     1       3.123   4.969  18.733  0.00  0.00    +0.000 C 
ENDROOT
BRANCH   5   6
ATOM      6  C   UNL     1       4.596   5.014  18.403  0.00  0.00    +0.000 A 
ATOM      7  C   UNL     1       5.629   5.347  19.281  0.00  0.00    +0.000 A 
ATOM      8  N   UNL     1       6.813   5.345  18.626  0.00  0.00    +0.000 N 
ATOM      9  C   UNL     1       8.118   5.675  19.196  0.00  0.00    +0.000 C 
ATOM     10  C   UNL     1       6.549   4.998  17.352  0.00  0.00    +0.000 A 
ATOM     11  C   UNL     1       7.449   4.862  16.293  0.00  0.00    +0.000 A 
ATOM     12  C   UNL     1       6.934   4.492  15.038  0.00  0.00    +0.000 A 
ATOM     13  C   UNL     1       5.550   4.272  14.867  0.00  0.00    +0.000 A 
ATOM     14  C   UNL     1       4.665   4.425  15.948  0.00  0.00    +0.000 A 
ATOM     15  C   UNL     1       5.202   4.789  17.181  0.00  0.00    +0.000 A 
ENDBRANCH   5   6
BRANCH   1  17
ATOM     16  C   UNL     1       2.083   2.843  21.731  0.00  0.00    +0.000 C 
ATOM     17  N   UNL     1       2.891   3.153  20.540  0.00  0.00    +0.000 NA
ATOM     18  C   UNL     1       2.575   2.198  19.461  0.00  0.00    +0.000 C 
ENDBRANCH   1  17
BRANCH   3  19
ATOM     19  C   UNL     1       2.014   7.530  20.638  0.00  0.00    +0.000 C 
BRANCH  19  20
ATOM     20  C   UNL     1       1.132   8.753  20.722  0.00  0.00    +0.000 A 
ATOM     21  C   UNL     1       0.359   9.117  19.607  0.00  0.00    +0.000 A 
ATOM     22  C   UNL     1      -0.475  10.236  19.657  0.00  0.00    +0.000 A 
ATOM     23  C   UNL     1      -0.542  11.008  20.819  0.00  0.00    +0.000 A 
ATOM     24  C   UNL     1       0.225  10.665  21.933  0.00  0.00    +0.000 A 
ATOM     25  C   UNL     1       1.065   9.542  21.895  0.00  0.00    +0.000 A 
BRANCH  25  26
ATOM     26  O   UNL     1       1.803   9.222  22.979  0.00  0.00    +0.000 OA
ATOM     27  H   UNL     1       1.954   9.843  23.706  0.00  0.00    +0.000 HD
ENDBRANCH  25  26
ENDBRANCH  19  20
ENDBRANCH   3  19
TORSDOF 5
ENDMDL
MODEL 3
REMARK VINA RESULT:      -7.2      0.906      2.066
REMARK  Name = 
REMARK  8 active torsions:
REMARK  status: ('A' for Active; 'I' for Inactive)
REMARK    1  A    between atoms: C_1  and  N_2
REMARK    2  A    between atoms: N_2  and  C_3
REMARK    3  A    between atoms: N_2  and  C_4
REMARK    4  A    between atoms: N_6  and  C_7
REMARK    5  A    between atoms: C_7  and  C_8
REMARK    6  A    between atoms: C_13  and  O_14
REMARK    7  A    between atoms: C_16  and  C_17
REMARK    8  A    between atoms: N_19  and  C_20
REMARK                            x       y       z     vdW  Elec       q    Type
REMARK                         _______ _______ _______ _____ _____    ______ ____
ROOT
ATOM      1  C   UNL     1       2.793   4.298  19.776  0.00  0.00    +0.000 C 
ATOM      2  C   UNL     1       1.482   4.974  20.199  0.00  0.00    +0.000 C 
ATOM      3  N   UNL     1       1.460   6.259  19.479  0.00  0.00    +0.000 NA
ATOM      4  C   UNL     1       2.072   5.948  18.165  0.00  0.00    +0.000 C 
ATOM      5  C   UNL     1       2.743   4.563  18.268  0.00  0.00    +0.000 C 
ENDROOT
BRANCH   5   6
ATOM      6  C   UNL     1       4.073   4.525  17.554  0.00  0.00    +0.000 A 
ATOM      7  C   UNL     1       4.293   4.110  16.240  0.00  0.00    +0.000 A 
ATOM      8  N   UNL     1       5.616   4.149  15.957  0.00  0.00    +0.000 N 
ATOM      9  C   UNL     1       6.243   3.757  14.696  0.00  0.00    +0.000 C 
ATOM     10  C   UNL     1       6.235   4.599  17.064  0.00  0.00    +0.000 A 
ATOM     11  C   UNL     1       7.601   4.808  17.262  0.00  0.00    +0.000 A 
ATOM     12  C   UNL     1       8.017   5.282  18.519  0.00  0.00    +0.000 A 
ATOM     13  C   UNL     1       7.074   5.534  19.539  0.00  0.00    +0.000 A 
ATOM     14  C   UNL     1       5.706   5.307  19.316  0.00  0.00    +0.000 A 
ATOM     15  C   UNL     1       5.319   4.839  18.061  0.00  0.00    +0.000 A 
ENDBRANCH   5   6
BRANCH   1  17
ATOM     16  C   UNL     1       2.457   2.662  21.562  0.00  0.00    +0.000 C 
ATOM     17  N   UNL     1       2.964   2.875  20.196  0.00  0.00    +0.000 NA
ATOM     18  C   UNL     1       2.386   1.865  19.288  0.00  0.00    +0.000 C 
ENDBRANCH   1  17
BRANCH   3  19
ATOM     19  C   UNL     1       2.251   7.282  20.213  0.00  0.00    +0.000 C 
BRANCH  19  20
ATOM     20  C   UNL     1       1.399   8.464  20.611  0.00  0.00    +0.000 A 
ATOM     21  C   UNL     1       1.044   8.628  21.960  0.00  0.00    +0.000 A 
ATOM     22  C   UNL     1       0.267   9.717  22.361  0.00  0.00    +0.000 A 
ATOM     23  C   UNL     1      -0.170  10.651  21.419  0.00  0.00    +0.000 A 
ATOM     24  C   UNL     1       0.167  10.498  20.074  0.00  0.00    +0.000 A 
ATOM     25  C   UNL     1       0.950   9.410  19.659  0.00  0.00    +0.000 A 
BRANCH  25  26
ATOM     26  O   UNL     1       1.267   9.272  18.354  0.00  0.00    +0.000 OA
ATOM     27  H   UNL     1       1.704   8.481  18.007  0.00  0.00    +0.000 HD
ENDBRANCH  25  26
ENDBRANCH  19  20
ENDBRANCH   3  19
TORSDOF 5
ENDMDL
MODEL 4
REMARK VINA RESULT:      -7.1      1.988      6.917
REMARK  Name = 
REMARK  8 active torsions:
REMARK  status: ('A' for Active; 'I' for Inactive)
REMARK    1  A    between atoms: C_1  and  N_2
REMARK    2  A    between atoms: N_2  and  C_3
REMARK    3  A    between atoms: N_2  and  C_4
REMARK    4  A    between atoms: N_6  and  C_7
REMARK    5  A    between atoms: C_7  and  C_8
REMARK    6  A    between atoms: C_13  and  O_14
REMARK    7  A    between atoms: C_16  and  C_17
REMARK    8  A    between atoms: N_19  and  C_20
REMARK                            x       y       z     vdW  Elec       q    Type
REMARK                         _______ _______ _______ _____ _____    ______ ____
ROOT
ATOM      1  C   UNL     1       2.091   4.499  19.122  0.00  0.00    +0.000 C 
ATOM      2  C   UNL     1       3.316   3.725  18.616  0.00  0.00    +0.000 C 
ATOM      3  N   UNL     1       4.308   4.757  18.269  0.00  0.00    +0.000 NA
ATOM      4  C   UNL     1       4.116   5.805  19.300  0.00  0.00    +0.000 C 
ATOM      5  C   UNL     1       2.788   5.517  20.030  0.00  0.00    +0.000 C 
ENDROOT
BRANCH   5   6
ATOM      6  C   UNL     1       2.012   6.781  20.310  0.00  0.00    +0.000 A 
ATOM      7  C   UNL     1       1.225   7.035  21.434  0.00  0.00    +0.000 A 
ATOM      8  N   UNL     1       0.627   8.244  21.319  0.00  0.00    +0.000 N 
ATOM      9  C   UNL     1      -0.298   8.846  22.277  0.00  0.00    +0.000 C 
ATOM     10  C   UNL     1       1.038   8.767  20.149  0.00  0.00    +0.000 A 
ATOM     11  C   UNL     1       0.691   9.998  19.588  0.00  0.00    +0.000 A 
ATOM     12  C   UNL     1       1.246  10.330  18.339  0.00  0.00    +0.000 A 
ATOM     13  C   UNL     1       2.122   9.437  17.684  0.00  0.00    +0.000 A 
ATOM     14  C   UNL     1       2.448   8.201  18.267  0.00  0.00    +0.000 A 
ATOM     15  C   UNL     1       1.886   7.898  19.506  0.00  0.00    +0.000 A 
ENDBRANCH   5   6
BRANCH   1  17
ATOM     16  C   UNL     1       0.634   2.550  18.882  0.00  0.00    +0.000 C 
ATOM     17  N   UNL     1       1.009   3.681  19.748  0.00  0.00    +0.000 NA
ATOM     18  C   UNL     1       1.284   3.193  21.113  0.00  0.00    +0.000 C 
ENDBRANCH   1  17
BRANCH   3  19
ATOM     19  C   UNL     1       4.052   5.289  16.904  0.00  0.00    +0.000 C 
BRANCH  19  20
ATOM     20  C   UNL     1       5.213   5.021  15.975  0.00  0.00    +0.000 A 
ATOM     21  C   UNL     1       5.000   4.257  14.817  0.00  0.00    +0.000 A 
ATOM     22  C   UNL     1       6.051   4.001  13.933  0.00  0.00    +0.000 A 
ATOM     23  C   UNL     1       7.327   4.501  14.199  0.00  0.00    +0.000 A 
ATOM     24  C   UNL     1       7.558   5.256  15.349  0.00  0.00    +0.000 A 
ATOM     25  C   UNL     1       6.509   5.522  16.244  0.00  0.00    +0.000 A 
BRANCH  25  26
ATOM     26  O   UNL     1       6.746   6.252  17.355  0.00  0.00    +0.000 OA
ATOM     27  H   UNL     1       6.554   5.921  18.244  0.00  0.00    +0.000 HD
ENDBRANCH  25  26
ENDBRANCH  19  20
ENDBRANCH   3  19
TORSDOF 5
ENDMDL
MODEL 5
REMARK VINA RESULT:      -6.9      2.003      6.025
REMARK  Name = 
REMARK  8 active torsions:
REMARK  status: ('A' for Active; 'I' for Inactive)
REMARK    1  A    between atoms: C_1  and  N_2
REMARK    2  A    between atoms: N_2  and  C_3
REMARK    3  A    between atoms: N_2  and  C_4
REMARK    4  A    between atoms: N_6  and  C_7
REMARK    5  A    between atoms: C_7  and  C_8
REMARK    6  A    between atoms: C_13  and  O_14
REMARK    7  A    between atoms: C_16  and  C_17
REMARK    8  A    between atoms: N_19  and  C_20
REMARK                            x       y       z     vdW  Elec       q    Type
REMARK                         _______ _______ _______ _____ _____    ______ ____
ROOT
ATOM      1  C   UNL     1       2.520   3.956  18.890  0.00  0.00    +0.000 C 
ATOM      2  C   UNL     1       3.732   3.022  18.776  0.00  0.00    +0.000 C 
ATOM      3  N   UNL     1       4.909   3.896  18.914  0.00  0.00    +0.000 NA
ATOM      4  C   UNL     1       4.491   4.910  19.913  0.00  0.00    +0.000 C 
ATOM      5  C   UNL     1       2.962   4.803  20.088  0.00  0.00    +0.000 C 
ENDROOT
BRANCH   5   6
ATOM      6  C   UNL     1       2.311   6.160  20.204  0.00  0.00    +0.000 A 
ATOM      7  C   UNL     1       1.521   6.610  21.263  0.00  0.00    +0.000 A 
ATOM      8  N   UNL     1       1.053   7.852  20.998  0.00  0.00    +0.000 N 
ATOM      9  C   UNL     1       0.167   8.643  21.850  0.00  0.00    +0.000 C 
ATOM     10  C   UNL     1       1.549   8.203  19.797  0.00  0.00    +0.000 A 
ATOM     11  C   UNL     1       1.346   9.394  19.097  0.00  0.00    +0.000 A 
ATOM     12  C   UNL     1       1.967   9.534  17.844  0.00  0.00    +0.000 A 
ATOM     13  C   UNL     1       2.767   8.493  17.320  0.00  0.00    +0.000 A 
ATOM     14  C   UNL     1       2.947   7.301  18.042  0.00  0.00    +0.000 A 
ATOM     15  C   UNL     1       2.322   7.190  19.282  0.00  0.00    +0.000 A 
ENDBRANCH   5   6
BRANCH   1  17
ATOM     16  C   UNL     1       1.201   1.968  18.358  0.00  0.00    +0.000 C 
ATOM     17  N   UNL     1       1.186   3.294  19.000  0.00  0.00    +0.000 NA
ATOM     18  C   UNL     1       0.639   3.178  20.366  0.00  0.00    +0.000 C 
ENDBRANCH   1  17
BRANCH   3  19
ATOM     19  C   UNL     1       5.246   4.529  17.612  0.00  0.00    +0.000 C 
BRANCH  19  20
ATOM     20  C   UNL     1       6.261   5.635  17.776  0.00  0.00    +0.000 A 
ATOM     21  C   UNL     1       7.155   5.588  18.857  0.00  0.00    +0.000 A 
ATOM     22  C   UNL     1       8.112   6.591  19.029  0.00  0.00    +0.000 A 
ATOM     23  C   UNL     1       8.183   7.655  18.127  0.00  0.00    +0.000 A 
ATOM     24  C   UNL     1       7.296   7.721  17.052  0.00  0.00    +0.000 A 
ATOM     25  C   UNL     1       6.332   6.718  16.867  0.00  0.00    +0.000 A 
BRANCH  25  26
ATOM     26  O   UNL     1       5.479   6.795  15.823  0.00  0.00    +0.000 OA
ATOM     27  H   UNL     1       5.767   7.048  14.935  0.00  0.00    +0.000 HD
ENDBRANCH  25  26
ENDBRANCH  19  20
ENDBRANCH   3  19
TORSDOF 5
ENDMDL
MODEL 6
REMARK VINA RESULT:      -6.9      1.066      1.074
REMARK  Name = 
REMARK  8 active torsions:
REMARK  status: ('A' for Active; 'I' for Inactive)
REMARK    1  A    between atoms: C_1  and  N_2
REMARK    2  A    between atoms: N_2  and  C_3
REMARK    3  A    between atoms: N_2  and  C_4
REMARK    4  A    between atoms: N_6  and  C_7
REMARK    5  A    between atoms: C_7  and  C_8
REMARK    6  A    between atoms: C_13  and  O_14
REMARK    7  A    between atoms: C_16  and  C_17
REMARK    8  A    between atoms: N_19  and  C_20
REMARK                            x       y       z     vdW  Elec       q    Type
REMARK                         _______ _______ _______ _____ _____    ______ ____
ROOT
ATOM      1  C   UNL     1       3.330   4.498  19.474  0.00  0.00    +0.000 C 
ATOM      2  C   UNL     1       1.886   4.824  19.878  0.00  0.00    +0.000 C 
ATOM      3  N   UNL     1       1.669   6.217  19.450  0.00  0.00    +0.000 NA
ATOM      4  C   UNL     1       2.423   6.325  18.177  0.00  0.00    +0.000 C 
ATOM      5  C   UNL     1       3.339   5.089  18.060  0.00  0.00    +0.000 C 
ENDROOT
BRANCH   5   6
ATOM      6  C   UNL     1       4.699   5.445  17.510  0.00  0.00    +0.000 A 
ATOM      7  C   UNL     1       5.598   6.362  18.058  0.00  0.00    +0.000 A 
ATOM      8  N   UNL     1       6.689   6.473  17.264  0.00  0.00    +0.000 N 
ATOM      9  C   UNL     1       7.832   7.357  17.484  0.00  0.00    +0.000 C 
ATOM     10  C   UNL     1       6.503   5.628  16.233  0.00  0.00    +0.000 A 
ATOM     11  C   UNL     1       7.354   5.390  15.152  0.00  0.00    +0.000 A 
ATOM     12  C   UNL     1       6.942   4.457  14.184  0.00  0.00    +0.000 A 
ATOM     13  C   UNL     1       5.703   3.792  14.313  0.00  0.00    +0.000 A 
ATOM     14  C   UNL     1       4.861   4.056  15.406  0.00  0.00    +0.000 A 
ATOM     15  C   UNL     1       5.296   4.983  16.352  0.00  0.00    +0.000 A 
ENDBRANCH   5   6
BRANCH   1  17
ATOM     16  C   UNL     1       3.308   2.505  20.890  0.00  0.00    +0.000 C 
ATOM     17  N   UNL     1       3.741   3.068  19.599  0.00  0.00    +0.000 NA
ATOM     18  C   UNL     1       3.313   2.180  18.501  0.00  0.00    +0.000 C 
ENDBRANCH   1  17
BRANCH   3  19
ATOM     19  C   UNL     1       2.193   7.165  20.469  0.00  0.00    +0.000 C 
BRANCH  19  20
ATOM     20  C   UNL     1       1.244   8.318  20.697  0.00  0.00    +0.000 A 
ATOM     21  C   UNL     1       0.530   8.388  21.903  0.00  0.00    +0.000 A 
ATOM     22  C   UNL     1      -0.346   9.448  22.148  0.00  0.00    +0.000 A 
ATOM     23  C   UNL     1      -0.524  10.446  21.187  0.00  0.00    +0.000 A 
ATOM     24  C   UNL     1       0.173  10.387  19.980  0.00  0.00    +0.000 A 
ATOM     25  C   UNL     1       1.058   9.329  19.724  0.00  0.00    +0.000 A 
BRANCH  25  26
ATOM     26  O   UNL     1       1.724   9.282  18.550  0.00  0.00    +0.000 OA
ATOM     27  H   UNL     1       1.716  10.016  17.919  0.00  0.00    +0.000 HD
ENDBRANCH  25  26
ENDBRANCH  19  20
ENDBRANCH   3  19
TORSDOF 5
ENDMDL
MODEL 7
REMARK VINA RESULT:      -6.8      2.313      6.584
REMARK  Name = 
REMARK  8 active torsions:
REMARK  status: ('A' for Active; 'I' for Inactive)
REMARK    1  A    between atoms: C_1  and  N_2
REMARK    2  A    between atoms: N_2  and  C_3
REMARK    3  A    between atoms: N_2  and  C_4
REMARK    4  A    between atoms: N_6  and  C_7
REMARK    5  A    between atoms: C_7  and  C_8
REMARK    6  A    between atoms: C_13  and  O_14
REMARK    7  A    between atoms: C_16  and  C_17
REMARK    8  A    between atoms: N_19  and  C_20
REMARK                            x       y       z     vdW  Elec       q    Type
REMARK                         _______ _______ _______ _____ _____    ______ ____
ROOT
ATOM      1  C   UNL     1       2.706   4.351  18.826  0.00  0.00    +0.000 C 
ATOM      2  C   UNL     1       3.861   3.388  19.134  0.00  0.00    +0.000 C 
ATOM      3  N   UNL     1       5.062   4.237  19.216  0.00  0.00    +0.000 NA
ATOM      4  C   UNL     1       4.578   5.488  19.850  0.00  0.00    +0.000 C 
ATOM      5  C   UNL     1       3.035   5.470  19.820  0.00  0.00    +0.000 C 
ENDROOT
BRANCH   5   6
ATOM      6  C   UNL     1       2.462   6.827  19.488  0.00  0.00    +0.000 A 
ATOM      7  C   UNL     1       2.765   7.600  18.366  0.00  0.00    +0.000 A 
ATOM      8  N   UNL     1       2.113   8.785  18.429  0.00  0.00    +0.000 N 
ATOM      9  C   UNL     1       2.202   9.873  17.458  0.00  0.00    +0.000 C 
ATOM     10  C   UNL     1       1.389   8.766  19.564  0.00  0.00    +0.000 A 
ATOM     11  C   UNL     1       0.552   9.765  20.066  0.00  0.00    +0.000 A 
ATOM     12  C   UNL     1      -0.104   9.520  21.286  0.00  0.00    +0.000 A 
ATOM     13  C   UNL     1       0.089   8.301  21.971  0.00  0.00    +0.000 A 
ATOM     14  C   UNL     1       0.944   7.316  21.447  0.00  0.00    +0.000 A 
ATOM     15  C   UNL     1       1.579   7.583  20.236  0.00  0.00    +0.000 A 
ENDBRANCH   5   6
BRANCH   1  17
ATOM     16  C   UNL     1       1.291   2.421  18.327  0.00  0.00    +0.000 C 
ATOM     17  N   UNL     1       1.330   3.775  18.906  0.00  0.00    +0.000 NA
ATOM     18  C   UNL     1       0.719   3.760  20.248  0.00  0.00    +0.000 C 
ENDBRANCH   1  17
BRANCH   3  19
ATOM     19  C   UNL     1       5.610   4.498  17.859  0.00  0.00    +0.000 C 
BRANCH  19  20
ATOM     20  C   UNL     1       6.409   5.779  17.817  0.00  0.00    +0.000 A 
ATOM     21  C   UNL     1       5.972   6.831  16.996  0.00  0.00    +0.000 A 
ATOM     22  C   UNL     1       6.683   8.032  16.945  0.00  0.00    +0.000 A 
ATOM     23  C   UNL     1       7.841   8.194  17.708  0.00  0.00    +0.000 A 
ATOM     24  C   UNL     1       8.293   7.156  18.523  0.00  0.00    +0.000 A 
ATOM     25  C   UNL     1       7.586   5.945  18.585  0.00  0.00    +0.000 A 
BRANCH  25  26
ATOM     26  O   UNL     1       8.035   4.948  19.376  0.00  0.00    +0.000 OA
ATOM     27  H   UNL     1       8.627   4.254  19.051  0.00  0.00    +0.000 HD
ENDBRANCH  25  26
ENDBRANCH  19  20
ENDBRANCH   3  19
TORSDOF 5
ENDMDL
MODEL 8
REMARK VINA RESULT:      -6.8      1.642      2.181
REMARK  Name = 
REMARK  8 active torsions:
REMARK  status: ('A' for Active; 'I' for Inactive)
REMARK    1  A    between atoms: C_1  and  N_2
REMARK    2  A    between atoms: N_2  and  C_3
REMARK    3  A    between atoms: N_2  and  C_4
REMARK    4  A    between atoms: N_6  and  C_7
REMARK    5  A    between atoms: C_7  and  C_8
REMARK    6  A    between atoms: C_13  and  O_14
REMARK    7  A    between atoms: C_16  and  C_17
REMARK    8  A    between atoms: N_19  and  C_20
REMARK                            x       y       z     vdW  Elec       q    Type
REMARK                         _______ _______ _______ _____ _____    ______ ____
ROOT
ATOM      1  C   UNL     1       3.630   3.872  19.203  0.00  0.00    +0.000 C 
ATOM      2  C   UNL     1       2.152   3.973  19.604  0.00  0.00    +0.000 C 
ATOM      3  N   UNL     1       1.727   5.319  19.182  0.00  0.00    +0.000 NA
ATOM      4  C   UNL     1       2.460   5.548  17.913  0.00  0.00    +0.000 C 
ATOM      5  C   UNL     1       3.553   4.466  17.793  0.00  0.00    +0.000 C 
ENDROOT
BRANCH   5   6
ATOM      6  C   UNL     1       4.845   5.028  17.250  0.00  0.00    +0.000 A 
ATOM      7  C   UNL     1       5.650   5.989  17.862  0.00  0.00    +0.000 A 
ATOM      8  N   UNL     1       6.695   6.300  17.060  0.00  0.00    +0.000 N 
ATOM      9  C   UNL     1       7.736   7.287  17.338  0.00  0.00    +0.000 C 
ATOM     10  C   UNL     1       6.574   5.537  15.958  0.00  0.00    +0.000 A 
ATOM     11  C   UNL     1       7.412   5.500  14.841  0.00  0.00    +0.000 A 
ATOM     12  C   UNL     1       7.078   4.619  13.798  0.00  0.00    +0.000 A 
ATOM     13  C   UNL     1       5.928   3.804  13.889  0.00  0.00    +0.000 A 
ATOM     14  C   UNL     1       5.098   3.866  15.020  0.00  0.00    +0.000 A 
ATOM     15  C   UNL     1       5.453   4.747  16.041  0.00  0.00    +0.000 A 
ENDBRANCH   5   6
BRANCH   1  17
ATOM     16  C   UNL     1       4.368   2.114  20.733  0.00  0.00    +0.000 C 
ATOM     17  N   UNL     1       4.253   2.520  19.322  0.00  0.00    +0.000 NA
ATOM     18  C   UNL     1       3.605   1.446  18.547  0.00  0.00    +0.000 C 
ENDBRANCH   1  17
BRANCH   3  19
ATOM     19  C   UNL     1       2.098   6.329  20.208  0.00  0.00    +0.000 C 
BRANCH  19  20
ATOM     20  C   UNL     1       1.795   7.733  19.742  0.00  0.00    +0.000 A 
ATOM     21  C   UNL     1       2.205   8.131  18.459  0.00  0.00    +0.000 A 
ATOM     22  C   UNL     1       1.930   9.420  17.996  0.00  0.00    +0.000 A 
ATOM     23  C   UNL     1       1.249  10.328  18.810  0.00  0.00    +0.000 A 
ATOM     24  C   UNL     1       0.843   9.951  20.090  0.00  0.00    +0.000 A 
ATOM     25  C   UNL     1       1.110   8.658  20.566  0.00  0.00    +0.000 A 
BRANCH  25  26
ATOM     26  O   UNL     1       0.714   8.306  21.808  0.00  0.00    +0.000 OA
ATOM     27  H   UNL     1       0.238   8.914  22.393  0.00  0.00    +0.000 HD
ENDBRANCH  25  26
ENDBRANCH  19  20
ENDBRANCH   3  19
TORSDOF 5
ENDMDL
MODEL 9
REMARK VINA RESULT:      -6.8      1.243      1.807
REMARK  Name = 
REMARK  8 active torsions:
REMARK  status: ('A' for Active; 'I' for Inactive)
REMARK    1  A    between atoms: C_1  and  N_2
REMARK    2  A    between atoms: N_2  and  C_3
REMARK    3  A    between atoms: N_2  and  C_4
REMARK    4  A    between atoms: N_6  and  C_7
REMARK    5  A    between atoms: C_7  and  C_8
REMARK    6  A    between atoms: C_13  and  O_14
REMARK    7  A    between atoms: C_16  and  C_17
REMARK    8  A    between atoms: N_19  and  C_20
REMARK                            x       y       z     vdW  Elec       q    Type
REMARK                         _______ _______ _______ _____ _____    ______ ____
ROOT
ATOM      1  C   UNL     1       2.926   3.945  19.729  0.00  0.00    +0.000 C 
ATOM      2  C   UNL     1       1.469   4.406  19.861  0.00  0.00    +0.000 C 
ATOM      3  N   UNL     1       1.455   5.792  19.360  0.00  0.00    +0.000 NA
ATOM      4  C   UNL     1       2.425   5.780  18.238  0.00  0.00    +0.000 C 
ATOM      5  C   UNL     1       3.234   4.469  18.322  0.00  0.00    +0.000 C 
ENDROOT
BRANCH   5   6
ATOM      6  C   UNL     1       4.695   4.686  18.011  0.00  0.00    +0.000 A 
ATOM      7  C   UNL     1       5.685   5.065  18.918  0.00  0.00    +0.000 A 
ATOM      8  N   UNL     1       6.865   5.228  18.276  0.00  0.00    +0.000 N 
ATOM      9  C   UNL     1       8.127   5.652  18.879  0.00  0.00    +0.000 C 
ATOM     10  C   UNL     1       6.642   4.940  16.980  0.00  0.00    +0.000 A 
ATOM     11  C   UNL     1       7.555   4.966  15.923  0.00  0.00    +0.000 A 
ATOM     12  C   UNL     1       7.085   4.628  14.642  0.00  0.00    +0.000 A 
ATOM     13  C   UNL     1       5.731   4.278  14.444  0.00  0.00    +0.000 A 
ATOM     14  C   UNL     1       4.832   4.269  15.523  0.00  0.00    +0.000 A 
ATOM     15  C   UNL     1       5.324   4.605  16.783  0.00  0.00    +0.000 A 
ENDBRANCH   5   6
BRANCH   1  17
ATOM     16  C   UNL     1       3.042   1.721  18.720  0.00  0.00    +0.000 C 
ATOM     17  N   UNL     1       3.181   2.492  19.967  0.00  0.00    +0.000 NA
ATOM     18  C   UNL     1       4.466   2.165  20.613  0.00  0.00    +0.000 C 
ENDBRANCH   1  17
BRANCH   3  19
ATOM     19  C   UNL     1       1.876   6.738  20.427  0.00  0.00    +0.000 C 
BRANCH  19  20
ATOM     20  C   UNL     1       1.553   8.167  20.062  0.00  0.00    +0.000 A 
ATOM     21  C   UNL     1       1.779   8.606  18.748  0.00  0.00    +0.000 A 
ATOM     22  C   UNL     1       1.480   9.919  18.378  0.00  0.00    +0.000 A 
ATOM     23  C   UNL     1       0.959  10.811  19.317  0.00  0.00    +0.000 A 
ATOM     24  C   UNL     1       0.737  10.394  20.630  0.00  0.00    +0.000 A 
ATOM     25  C   UNL     1       1.030   9.076  21.014  0.00  0.00    +0.000 A 
BRANCH  25  26
ATOM     26  O   UNL     1       0.813   8.685  22.288  0.00  0.00    +0.000 OA
ATOM     27  H   UNL     1       1.536   8.485  22.900  0.00  0.00    +0.000 HD
ENDBRANCH  25  26
ENDBRANCH  19  20
ENDBRANCH   3  19
TORSDOF 5
ENDMDL
