MODEL 1
REMARK VINA RESULT:      -7.1      0.000      0.000
REMARK  Name = 
REMARK  9 active torsions:
REMARK  status: ('A' for Active; 'I' for Inactive)
REMARK    1  A    between atoms: C_1  and  C_2
REMARK    2  A    between atoms: C_2  and  C_3
REMARK    3  A    between atoms: C_4  and  C_5
REMARK    4  A    between atoms: N_7  and  C_8
REMARK    5  A    between atoms: C_11  and  O_12
REMARK    6  A    between atoms: O_12  and  C_13
REMARK    7  A    between atoms: C_18  and  C_19
REMARK    8  A    between atoms: C_20  and  C_21
REMARK    9  A    between atoms: C_21  and  C_22
REMARK                            x       y       z     vdW  Elec       q    Type
REMARK                         _______ _______ _______ _____ _____    ______ ____
ROOT
ATOM      1  C   UNL     1       2.137   7.738  19.298  0.00  0.00    +0.000 C 
ATOM      2  O   UNL     1       1.797   7.910  20.463  0.00  0.00    +0.000 OA
ATOM      3  N   UNL     1       1.834   8.597  18.250  0.00  0.00    +0.000 N 
ATOM      4  H   UNL     1       1.936   8.215  17.320  0.00  0.00    +0.000 HD
ENDROOT
BRANCH   1   6
ATOM      5  C   UNL     1       2.959   5.299  19.457  0.00  0.00    +0.000 A 
ATOM      6  C   UNL     1       2.873   6.558  18.869  0.00  0.00    +0.000 A 
ATOM      7  N   UNL     1       3.698   6.531  17.770  0.00  0.00    +0.000 N 
ATOM      8  C   UNL     1       4.238   5.284  17.579  0.00  0.00    +0.000 A 
ATOM      9  C   UNL     1       5.115   5.051  16.400  0.00  0.00    +0.000 C 
ATOM     10  C   UNL     1       3.786   4.466  18.609  0.00  0.00    +0.000 A 
ATOM     11  H   UNL     1       3.892   7.339  17.196  0.00  0.00    +0.000 HD
BRANCH  10  12
ATOM     12  C   UNL     1       4.054   3.032  18.822  0.00  0.00    +0.000 C 
ATOM     13  C   UNL     1       3.333   1.976  18.030  0.00  0.00    +0.000 C 
ATOM     14  O   UNL     1       4.887   2.663  19.656  0.00  0.00    +0.000 OA
ENDBRANCH  10  12
BRANCH   5  16
ATOM     15  C   UNL     1       1.057   4.045  20.551  0.00  0.00    +0.000 C 
ATOM     16  C   UNL     1       2.316   4.870  20.751  0.00  0.00    +0.000 C 
ENDBRANCH   5  16
ENDBRANCH   1   6
BRANCH   3  17
ATOM     17  C   UNL     1       1.156   9.833  18.343  0.00  0.00    +0.000 A 
ATOM     18  C   UNL     1       1.793  11.045  18.584  0.00  0.00    +0.000 A 
ATOM     19  C   UNL     1       1.044  12.219  18.719  0.00  0.00    +0.000 A 
ATOM     20  C   UNL     1      -0.355  12.226  18.615  0.00  0.00    +0.000 A 
ATOM     21  C   UNL     1      -0.994  11.013  18.330  0.00  0.00    +0.000 A 
ATOM     22 CL   UNL     1      -2.700  10.805  18.133  0.00  0.00    +0.000 Cl
ATOM     23  C   UNL     1      -0.234   9.833  18.184  0.00  0.00    +0.000 A 
BRANCH  20  24
ATOM     24  O   UNL     1      -0.855  13.480  18.816  0.00  0.00    +0.000 OA
ATOM     25  C   UNL     1       0.006  14.583  19.034  0.00  0.00    +0.000 C 
ENDBRANCH  20  24
ENDBRANCH   3  17
TORSDOF 5
ENDMDL
MODEL 2
REMARK VINA RESULT:      -6.9      2.273      2.401
REMARK  Name = 
REMARK  9 active torsions:
REMARK  status: ('A' for Active; 'I' for Inactive)
REMARK    1  A    between atoms: C_1  and  C_2
REMARK    2  A    between atoms: C_2  and  C_3
REMARK    3  A    between atoms: C_4  and  C_5
REMARK    4  A    between atoms: N_7  and  C_8
REMARK    5  A    between atoms: C_11  and  O_12
REMARK    6  A    between atoms: O_12  and  C_13
REMARK    7  A    between atoms: C_18  and  C_19
REMARK    8  A    between atoms: C_20  and  C_21
REMARK    9  A    between atoms: C_21  and  C_22
REMARK                            x       y       z     vdW  Elec       q    Type
REMARK                         _______ _______ _______ _____ _____    ______ ____
ROOT
ATOM      1  C   UNL     1       2.275   7.600  19.150  0.00  0.00    +0.000 C 
ATOM      2  O   UNL     1       2.105   8.485  18.320  0.00  0.00    +0.000 OA
ATOM      3  N   UNL     1       1.829   7.650  20.464  0.00  0.00    +0.000 N 
ATOM      4  H   UNL     1       2.256   6.994  21.102  0.00  0.00    +0.000 HD
ENDROOT
BRANCH   1   6
ATOM      5  C   UNL     1       3.026   5.158  19.499  0.00  0.00    +0.000 A 
ATOM      6  C   UNL     1       3.027   6.390  18.851  0.00  0.00    +0.000 A 
ATOM      7  N   UNL     1       3.960   6.300  17.846  0.00  0.00    +0.000 N 
ATOM      8  C   UNL     1       4.491   5.037  17.766  0.00  0.00    +0.000 A 
ATOM      9  C   UNL     1       5.479   4.736  16.695  0.00  0.00    +0.000 C 
ATOM     10  C   UNL     1       3.918   4.273  18.778  0.00  0.00    +0.000 A 
ATOM     11  H   UNL     1       4.229   7.077  17.260  0.00  0.00    +0.000 HD
BRANCH  10  12
ATOM     12  C   UNL     1       4.133   2.846  19.079  0.00  0.00    +0.000 C 
ATOM     13  C   UNL     1       3.434   1.768  18.297  0.00  0.00    +0.000 C 
ATOM     14  O   UNL     1       4.901   2.501  19.983  0.00  0.00    +0.000 OA
ENDBRANCH  10  12
BRANCH   5  16
ATOM     15  C   UNL     1       0.949   4.062  20.436  0.00  0.00    +0.000 C 
ATOM     16  C   UNL     1       2.244   4.798  20.736  0.00  0.00    +0.000 C 
ENDBRANCH   5  16
ENDBRANCH   1   6
BRANCH   3  17
ATOM     17  C   UNL     1       1.053   8.673  21.051  0.00  0.00    +0.000 A 
ATOM     18  C   UNL     1       0.958   8.877  22.422  0.00  0.00    +0.000 A 
ATOM     19  C   UNL     1       0.122   9.879  22.929  0.00  0.00    +0.000 A 
ATOM     20  C   UNL     1      -0.638  10.708  22.091  0.00  0.00    +0.000 A 
ATOM     21  C   UNL     1      -0.510  10.532  20.708  0.00  0.00    +0.000 A 
ATOM     22 CL   UNL     1      -1.332  11.461  19.503  0.00  0.00    +0.000 Cl
ATOM     23  C   UNL     1       0.341   9.527  20.201  0.00  0.00    +0.000 A 
BRANCH  20  24
ATOM     24  O   UNL     1      -1.395  11.580  22.820  0.00  0.00    +0.000 OA
ATOM     25  C   UNL     1      -1.075  12.959  22.869  0.00  0.00    +0.000 C 
ENDBRANCH  20  24
ENDBRANCH   3  17
TORSDOF 5
ENDMDL
MODEL 3
REMARK VINA RESULT:      -6.9      1.317      1.646
REMARK  Name = 
REMARK  9 active torsions:
REMARK  status: ('A' for Active; 'I' for Inactive)
REMARK    1  A    between atoms: C_1  and  C_2
REMARK    2  A    between atoms: C_2  and  C_3
REMARK    3  A    between atoms: C_4  and  C_5
REMARK    4  A    between atoms: N_7  and  C_8
REMARK    5  A    between atoms: C_11  and  O_12
REMARK    6  A    between atoms: O_12  and  C_13
REMARK    7  A    between atoms: C_18  and  C_19
REMARK    8  A    between atoms: C_20  and  C_21
REMARK    9  A    between atoms: C_21  and  C_22
REMARK                            x       y       z     vdW  Elec       q    Type
REMARK                         _______ _______ _______ _____ _____    ______ ____
ROOT
ATOM      1  C   UNL     1       2.144   7.785  19.293  0.00  0.00    +0.000 C 
ATOM      2  O   UNL     1       1.776   7.925  20.454  0.00  0.00    +0.000 OA
ATOM      3  N   UNL     1       1.902   8.694  18.271  0.00  0.00    +0.000 N 
ATOM      4  H   UNL     1       2.019   8.344  17.331  0.00  0.00    +0.000 HD
ENDROOT
BRANCH   1   6
ATOM      5  C   UNL     1       2.915   5.327  19.407  0.00  0.00    +0.000 A 
ATOM      6  C   UNL     1       2.851   6.597  18.840  0.00  0.00    +0.000 A 
ATOM      7  N   UNL     1       3.667   6.570  17.734  0.00  0.00    +0.000 N 
ATOM      8  C   UNL     1       4.179   5.314  17.519  0.00  0.00    +0.000 A 
ATOM      9  C   UNL     1       5.041   5.081  16.329  0.00  0.00    +0.000 C 
ATOM     10  C   UNL     1       3.717   4.490  18.539  0.00  0.00    +0.000 A 
ATOM     11  H   UNL     1       3.874   7.382  17.171  0.00  0.00    +0.000 HD
BRANCH  10  12
ATOM     12  C   UNL     1       3.956   3.047  18.727  0.00  0.00    +0.000 C 
ATOM     13  C   UNL     1       3.211   2.020  17.920  0.00  0.00    +0.000 C 
ATOM     14  O   UNL     1       4.783   2.647  19.553  0.00  0.00    +0.000 OA
ENDBRANCH  10  12
BRANCH   5  16
ATOM     15  C   UNL     1       1.002   4.084  20.496  0.00  0.00    +0.000 C 
ATOM     16  C   UNL     1       2.273   4.891  20.699  0.00  0.00    +0.000 C 
ENDBRANCH   5  16
ENDBRANCH   1   6
BRANCH   3  17
ATOM     17  C   UNL     1       1.265   9.948  18.393  0.00  0.00    +0.000 A 
ATOM     18  C   UNL     1      -0.112  10.108  18.486  0.00  0.00    +0.000 A 
ATOM     19  C   UNL     1      -0.670  11.389  18.547  0.00  0.00    +0.000 A 
ATOM     20  C   UNL     1       0.121  12.547  18.522  0.00  0.00    +0.000 A 
ATOM     21  C   UNL     1       1.510  12.387  18.471  0.00  0.00    +0.000 A 
ATOM     22 CL   UNL     1       2.665  13.676  18.460  0.00  0.00    +0.000 Cl
ATOM     23  C   UNL     1       2.070  11.093  18.420  0.00  0.00    +0.000 A 
BRANCH  20  24
ATOM     24  O   UNL     1      -0.654  13.671  18.559  0.00  0.00    +0.000 OA
ATOM     25  C   UNL     1      -0.827  14.399  19.761  0.00  0.00    +0.000 C 
ENDBRANCH  20  24
ENDBRANCH   3  17
TORSDOF 5
ENDMDL
MODEL 4
REMARK VINA RESULT:      -6.9      1.013      1.060
REMARK  Name = 
REMARK  9 active torsions:
REMARK  status: ('A' for Active; 'I' for Inactive)
REMARK    1  A    between atoms: C_1  and  C_2
REMARK    2  A    between atoms: C_2  and  C_3
REMARK    3  A    between atoms: C_4  and  C_5
REMARK    4  A    between atoms: N_7  and  C_8
REMARK    5  A    between atoms: C_11  and  O_12
REMARK    6  A    between atoms: O_12  and  C_13
REMARK    7  A    between atoms: C_18  and  C_19
REMARK    8  A    between atoms: C_20  and  C_21
REMARK    9  A    between atoms: C_21  and  C_22
REMARK                            x       y       z     vdW  Elec       q    Type
REMARK                         _______ _______ _______ _____ _____    ______ ____
ROOT
ATOM      1  C   UNL     1       2.213   7.655  19.058  0.00  0.00    +0.000 C 
ATOM      2  O   UNL     1       2.066   7.862  20.256  0.00  0.00    +0.000 OA
ATOM      3  N   UNL     1       1.883   8.554  18.052  0.00  0.00    +0.000 N 
ATOM      4  H   UNL     1       1.803   8.168  17.122  0.00  0.00    +0.000 HD
ENDROOT
BRANCH   1   6
ATOM      5  C   UNL     1       2.378   5.087  18.891  0.00  0.00    +0.000 A 
ATOM      6  C   UNL     1       2.720   6.391  18.544  0.00  0.00    +0.000 A 
ATOM      7  N   UNL     1       3.727   6.294  17.614  0.00  0.00    +0.000 N 
ATOM      8  C   UNL     1       3.982   4.986  17.285  0.00  0.00    +0.000 A 
ATOM      9  C   UNL     1       5.006   4.690  16.247  0.00  0.00    +0.000 C 
ATOM     10  C   UNL     1       3.142   4.186  18.052  0.00  0.00    +0.000 A 
ATOM     11  H   UNL     1       4.225   7.091  17.242  0.00  0.00    +0.000 HD
BRANCH  10  12
ATOM     12  C   UNL     1       3.009   2.718  18.033  0.00  0.00    +0.000 C 
ATOM     13  C   UNL     1       3.839   1.846  18.933  0.00  0.00    +0.000 C 
ATOM     14  O   UNL     1       2.202   2.168  17.276  0.00  0.00    +0.000 OA
ENDBRANCH  10  12
BRANCH   5  16
ATOM     15  C   UNL     1       2.055   4.235  21.249  0.00  0.00    +0.000 C 
ATOM     16  C   UNL     1       1.393   4.673  19.954  0.00  0.00    +0.000 C 
ENDBRANCH   5  16
ENDBRANCH   1   6
BRANCH   3  17
ATOM     17  C   UNL     1       1.394   9.868  18.225  0.00  0.00    +0.000 A 
ATOM     18  C   UNL     1       2.208  10.993  18.268  0.00  0.00    +0.000 A 
ATOM     19  C   UNL     1       1.652  12.256  18.500  0.00  0.00    +0.000 A 
ATOM     20  C   UNL     1       0.274  12.439  18.690  0.00  0.00    +0.000 A 
ATOM     21  C   UNL     1      -0.551  11.312  18.604  0.00  0.00    +0.000 A 
ATOM     22 CL   UNL     1      -2.272  11.319  18.779  0.00  0.00    +0.000 Cl
ATOM     23  C   UNL     1       0.012  10.041  18.361  0.00  0.00    +0.000 A 
BRANCH  20  24
ATOM     24  O   UNL     1      -0.017  13.751  18.930  0.00  0.00    +0.000 OA
ATOM     25  C   UNL     1       1.008  14.724  19.006  0.00  0.00    +0.000 C 
ENDBRANCH  20  24
ENDBRANCH   3  17
TORSDOF 5
ENDMDL
MODEL 5
REMARK VINA RESULT:      -6.8      1.093      1.118
REMARK  Name = 
REMARK  9 active torsions:
REMARK  status: ('A' for Active; 'I' for Inactive)
REMARK    1  A    between atoms: C_1  and  C_2
REMARK    2  A    between atoms: C_2  and  C_3
REMARK    3  A    between atoms: C_4  and  C_5
REMARK    4  A    between atoms: N_7  and  C_8
REMARK    5  A    between atoms: C_11  and  O_12
REMARK    6  A    between atoms: O_12  and  C_13
REMARK    7  A    between atoms: C_18  and  C_19
REMARK    8  A    between atoms: C_20  and  C_21
REMARK    9  A    between atoms: C_21  and  C_22
REMARK                            x       y       z     vdW  Elec       q    Type
REMARK                         _______ _______ _______ _____ _____    ______ ____
ROOT
ATOM      1  C   UNL     1       1.772   7.960  19.685  0.00  0.00    +0.000 C 
ATOM      2  O   UNL     1       1.361   7.907  20.839  0.00  0.00    +0.000 OA
ATOM      3  N   UNL     1       1.442   8.952  18.772  0.00  0.00    +0.000 N 
ATOM      4  H   UNL     1       1.626   8.740  17.802  0.00  0.00    +0.000 HD
ENDROOT
BRANCH   1   6
ATOM      5  C   UNL     1       2.858   5.625  19.541  0.00  0.00    +0.000 A 
ATOM      6  C   UNL     1       2.636   6.934  19.121  0.00  0.00    +0.000 A 
ATOM      7  N   UNL     1       3.464   7.142  18.044  0.00  0.00    +0.000 N 
ATOM      8  C   UNL     1       4.140   5.997  17.702  0.00  0.00    +0.000 A 
ATOM      9  C   UNL     1       5.043   6.018  16.520  0.00  0.00    +0.000 C 
ATOM     10  C   UNL     1       3.776   5.006  18.608  0.00  0.00    +0.000 A 
ATOM     11  H   UNL     1       3.571   8.034  17.583  0.00  0.00    +0.000 HD
BRANCH  10  12
ATOM     12  C   UNL     1       4.200   3.594  18.637  0.00  0.00    +0.000 C 
ATOM     13  C   UNL     1       3.502   2.551  17.808  0.00  0.00    +0.000 C 
ATOM     14  O   UNL     1       5.148   3.235  19.343  0.00  0.00    +0.000 OA
ENDBRANCH  10  12
BRANCH   5  16
ATOM     15  C   UNL     1       1.022   4.140  20.442  0.00  0.00    +0.000 C 
ATOM     16  C   UNL     1       2.260   4.962  20.755  0.00  0.00    +0.000 C 
ENDBRANCH   5  16
ENDBRANCH   1   6
BRANCH   3  17
ATOM     17  C   UNL     1       0.647  10.093  19.019  0.00  0.00    +0.000 A 
ATOM     18  C   UNL     1       1.013  11.113  19.889  0.00  0.00    +0.000 A 
ATOM     19  C   UNL     1       0.143  12.185  20.123  0.00  0.00    +0.000 A 
ATOM     20  C   UNL     1      -1.109  12.277  19.498  0.00  0.00    +0.000 A 
ATOM     21  C   UNL     1      -1.460  11.272  18.589  0.00  0.00    +0.000 A 
ATOM     22 CL   UNL     1      -2.938  11.208  17.692  0.00  0.00    +0.000 Cl
ATOM     23  C   UNL     1      -0.577  10.198  18.348  0.00  0.00    +0.000 A 
BRANCH  20  24
ATOM     24  O   UNL     1      -1.782  13.391  19.912  0.00  0.00    +0.000 OA
ATOM     25  C   UNL     1      -2.963  13.284  20.686  0.00  0.00    +0.000 C 
ENDBRANCH  20  24
ENDBRANCH   3  17
TORSDOF 5
ENDMDL
MODEL 6
REMARK VINA RESULT:      -6.8      2.705      2.861
REMARK  Name = 
REMARK  9 active torsions:
REMARK  status: ('A' for Active; 'I' for Inactive)
REMARK    1  A    between atoms: C_1  and  C_2
REMARK    2  A    between atoms: C_2  and  C_3
REMARK    3  A    between atoms: C_4  and  C_5
REMARK    4  A    between atoms: N_7  and  C_8
REMARK    5  A    between atoms: C_11  and  O_12
REMARK    6  A    between atoms: O_12  and  C_13
REMARK    7  A    between atoms: C_18  and  C_19
REMARK    8  A    between atoms: C_20  and  C_21
REMARK    9  A    between atoms: C_21  and  C_22
REMARK                            x       y       z     vdW  Elec       q    Type
REMARK                         _______ _______ _______ _____ _____    ______ ____
ROOT
ATOM      1  C   UNL     1       1.697   8.300  19.206  0.00  0.00    +0.000 C 
ATOM      2  O   UNL     1       1.086   9.003  18.410  0.00  0.00    +0.000 OA
ATOM      3  N   UNL     1       1.648   8.440  20.587  0.00  0.00    +0.000 N 
ATOM      4  H   UNL     1       2.386   7.986  21.104  0.00  0.00    +0.000 HD
ENDROOT
BRANCH   1   6
ATOM      5  C   UNL     1       2.818   5.980  19.316  0.00  0.00    +0.000 A 
ATOM      6  C   UNL     1       2.601   7.244  18.775  0.00  0.00    +0.000 A 
ATOM      7  N   UNL     1       3.481   7.374  17.726  0.00  0.00    +0.000 N 
ATOM      8  C   UNL     1       4.187   6.216  17.518  0.00  0.00    +0.000 A 
ATOM      9  C   UNL     1       5.148   6.151  16.384  0.00  0.00    +0.000 C 
ATOM     10  C   UNL     1       3.790   5.299  18.486  0.00  0.00    +0.000 A 
ATOM     11  H   UNL     1       3.599   8.226  17.197  0.00  0.00    +0.000 HD
BRANCH  10  12
ATOM     12  C   UNL     1       4.229   3.902  18.656  0.00  0.00    +0.000 C 
ATOM     13  C   UNL     1       3.546   2.774  17.934  0.00  0.00    +0.000 C 
ATOM     14  O   UNL     1       5.179   3.625  19.396  0.00  0.00    +0.000 OA
ENDBRANCH  10  12
BRANCH   5  16
ATOM     15  C   UNL     1       1.079   4.397  20.245  0.00  0.00    +0.000 C 
ATOM     16  C   UNL     1       2.167   5.412  20.551  0.00  0.00    +0.000 C 
ENDBRANCH   5  16
ENDBRANCH   1   6
BRANCH   3  17
ATOM     17  C   UNL     1       0.849   9.351  21.312  0.00  0.00    +0.000 A 
ATOM     18  C   UNL     1       0.083   8.996  22.416  0.00  0.00    +0.000 A 
ATOM     19  C   UNL     1      -0.727   9.946  23.047  0.00  0.00    +0.000 A 
ATOM     20  C   UNL     1      -0.796  11.276  22.605  0.00  0.00    +0.000 A 
ATOM     21  C   UNL     1       0.008  11.645  21.521  0.00  0.00    +0.000 A 
ATOM     22 CL   UNL     1       0.095  13.232  20.837  0.00  0.00    +0.000 Cl
ATOM     23  C   UNL     1       0.831  10.686  20.893  0.00  0.00    +0.000 A 
BRANCH  20  24
ATOM     24  O   UNL     1      -1.676  11.997  23.360  0.00  0.00    +0.000 OA
ATOM     25  C   UNL     1      -2.945  12.363  22.849  0.00  0.00    +0.000 C 
ENDBRANCH  20  24
ENDBRANCH   3  17
TORSDOF 5
ENDMDL
MODEL 7
REMARK VINA RESULT:      -6.7      2.411      2.651
REMARK  Name = 
REMARK  9 active torsions:
REMARK  status: ('A' for Active; 'I' for Inactive)
REMARK    1  A    between atoms: C_1  and  C_2
REMARK    2  A    between atoms: C_2  and  C_3
REMARK    3  A    between atoms: C_4  and  C_5
REMARK    4  A    between atoms: N_7  and  C_8
REMARK    5  A    between atoms: C_11  and  O_12
REMARK    6  A    between atoms: O_12  and  C_13
REMARK    7  A    between atoms: C_18  and  C_19
REMARK    8  A    between atoms: C_20  and  C_21
REMARK    9  A    between atoms: C_21  and  C_22
REMARK                            x       y       z     vdW  Elec       q    Type
REMARK                         _______ _______ _______ _____ _____    ______ ____
ROOT
ATOM      1  C   UNL     1       1.470   6.400  20.538  0.00  0.00    +0.000 C 
ATOM      2  O   UNL     1       0.318   6.029  20.727  0.00  0.00    +0.000 OA
ATOM      3  N   UNL     1       1.898   7.720  20.608  0.00  0.00    +0.000 N 
ATOM      4  H   UNL     1       2.790   7.919  20.178  0.00  0.00    +0.000 HD
ENDROOT
BRANCH   1   6
ATOM      5  C   UNL     1       2.541   4.086  20.150  0.00  0.00    +0.000 A 
ATOM      6  C   UNL     1       2.532   5.478  20.164  0.00  0.00    +0.000 A 
ATOM      7  N   UNL     1       3.795   5.878  19.797  0.00  0.00    +0.000 N 
ATOM      8  C   UNL     1       4.584   4.805  19.464  0.00  0.00    +0.000 A 
ATOM      9  C   UNL     1       5.971   5.051  18.985  0.00  0.00    +0.000 C 
ATOM     10  C   UNL     1       3.829   3.652  19.653  0.00  0.00    +0.000 A 
ATOM     11  H   UNL     1       4.100   6.841  19.798  0.00  0.00    +0.000 HD
BRANCH  10  12
ATOM     12  C   UNL     1       4.217   2.253  19.393  0.00  0.00    +0.000 C 
ATOM     13  C   UNL     1       3.667   1.495  18.217  0.00  0.00    +0.000 C 
ATOM     14  O   UNL     1       5.013   1.671  20.137  0.00  0.00    +0.000 OA
ENDBRANCH  10  12
BRANCH   5  16
ATOM     15  C   UNL     1       1.634   2.560  21.949  0.00  0.00    +0.000 C 
ATOM     16  C   UNL     1       1.415   3.181  20.581  0.00  0.00    +0.000 C 
ENDBRANCH   5  16
ENDBRANCH   1   6
BRANCH   3  17
ATOM     17  C   UNL     1       1.118   8.840  20.969  0.00  0.00    +0.000 A 
ATOM     18  C   UNL     1       0.756   9.137  22.278  0.00  0.00    +0.000 A 
ATOM     19  C   UNL     1      -0.068  10.235  22.548  0.00  0.00    +0.000 A 
ATOM     20  C   UNL     1      -0.550  11.072  21.531  0.00  0.00    +0.000 A 
ATOM     21  C   UNL     1      -0.151  10.799  20.218  0.00  0.00    +0.000 A 
ATOM     22 CL   UNL     1      -0.607  11.718  18.824  0.00  0.00    +0.000 Cl
ATOM     23  C   UNL     1       0.687   9.696  19.950  0.00  0.00    +0.000 A 
BRANCH  20  24
ATOM     24  O   UNL     1      -1.357  12.049  22.042  0.00  0.00    +0.000 OA
ATOM     25  C   UNL     1      -2.185  11.799  23.163  0.00  0.00    +0.000 C 
ENDBRANCH  20  24
ENDBRANCH   3  17
TORSDOF 5
ENDMDL
MODEL 8
REMARK VINA RESULT:      -6.7      2.668      7.944
REMARK  Name = 
REMARK  9 active torsions:
REMARK  status: ('A' for Active; 'I' for Inactive)
REMARK    1  A    between atoms: C_1  and  C_2
REMARK    2  A    between atoms: C_2  and  C_3
REMARK    3  A    between atoms: C_4  and  C_5
REMARK    4  A    between atoms: N_7  and  C_8
REMARK    5  A    between atoms: C_11  and  O_12
REMARK    6  A    between atoms: O_12  and  C_13
REMARK    7  A    between atoms: C_18  and  C_19
REMARK    8  A    between atoms: C_20  and  C_21
REMARK    9  A    between atoms: C_21  and  C_22
REMARK                            x       y       z     vdW  Elec       q    Type
REMARK                         _______ _______ _______ _____ _____    ______ ____
ROOT
ATOM      1  C   UNL     1       1.811   8.409  18.620  0.00  0.00    +0.000 C 
ATOM      2  O   UNL     1       1.716   7.973  17.479  0.00  0.00    +0.000 OA
ATOM      3  N   UNL     1       2.229   7.669  19.718  0.00  0.00    +0.000 N 
ATOM      4  H   UNL     1       2.010   8.060  20.624  0.00  0.00    +0.000 HD
ENDROOT
BRANCH   1   6
ATOM      5  C   UNL     1       0.585  10.241  19.959  0.00  0.00    +0.000 A 
ATOM      6  C   UNL     1       1.438   9.773  18.963  0.00  0.00    +0.000 A 
ATOM      7  N   UNL     1       1.860  10.879  18.263  0.00  0.00    +0.000 N 
ATOM      8  C   UNL     1       1.386  12.038  18.823  0.00  0.00    +0.000 A 
ATOM      9  C   UNL     1       1.790  13.343  18.232  0.00  0.00    +0.000 C 
ATOM     10  C   UNL     1       0.590  11.688  19.909  0.00  0.00    +0.000 A 
ATOM     11  H   UNL     1       2.430  10.830  17.431  0.00  0.00    +0.000 HD
BRANCH  10  12
ATOM     12  C   UNL     1      -0.108  12.577  20.855  0.00  0.00    +0.000 C 
ATOM     13  C   UNL     1      -1.494  13.087  20.570  0.00  0.00    +0.000 C 
ATOM     14  O   UNL     1       0.430  12.921  21.912  0.00  0.00    +0.000 OA
ENDBRANCH  10  12
BRANCH   5  16
ATOM     15  C   UNL     1       0.423   9.289  22.295  0.00  0.00    +0.000 C 
ATOM     16  C   UNL     1      -0.213   9.398  20.920  0.00  0.00    +0.000 C 
ENDBRANCH   5  16
ENDBRANCH   1   6
BRANCH   3  17
ATOM     17  C   UNL     1       2.680   6.331  19.710  0.00  0.00    +0.000 A 
ATOM     18  C   UNL     1       3.821   5.906  19.040  0.00  0.00    +0.000 A 
ATOM     19  C   UNL     1       4.169   4.551  19.032  0.00  0.00    +0.000 A 
ATOM     20  C   UNL     1       3.401   3.581  19.693  0.00  0.00    +0.000 A 
ATOM     21  C   UNL     1       2.276   4.014  20.404  0.00  0.00    +0.000 A 
ATOM     22 CL   UNL     1       1.211   2.992  21.307  0.00  0.00    +0.000 Cl
ATOM     23  C   UNL     1       1.932   5.383  20.417  0.00  0.00    +0.000 A 
BRANCH  20  24
ATOM     24  O   UNL     1       3.926   2.334  19.512  0.00  0.00    +0.000 OA
ATOM     25  C   UNL     1       3.523   1.523  18.424  0.00  0.00    +0.000 C 
ENDBRANCH  20  24
ENDBRANCH   3  17
TORSDOF 5
ENDMDL
MODEL 9
REMARK VINA RESULT:      -6.7      3.103      8.041
REMARK  Name = 
REMARK  9 active torsions:
REMARK  status: ('A' for Active; 'I' for Inactive)
REMARK    1  A    between atoms: C_1  and  C_2
REMARK    2  A    between atoms: C_2  and  C_3
REMARK    3  A    between atoms: C_4  and  C_5
REMARK    4  A    between atoms: N_7  and  C_8
REMARK    5  A    between atoms: C_11  and  O_12
REMARK    6  A    between atoms: O_12  and  C_13
REMARK    7  A    between atoms: C_18  and  C_19
REMARK    8  A    between atoms: C_20  and  C_21
REMARK    9  A    between atoms: C_21  and  C_22
REMARK                            x       y       z     vdW  Elec       q    Type
REMARK                         _______ _______ _______ _____ _____    ______ ____
ROOT
ATOM      1  C   UNL     1       1.782   8.729  18.598  0.00  0.00    +0.000 C 
ATOM      2  O   UNL     1       1.708   9.087  17.429  0.00  0.00    +0.000 OA
ATOM      3  N   UNL     1       2.414   7.571  19.032  0.00  0.00    +0.000 N 
ATOM      4  H   UNL     1       2.177   7.260  19.964  0.00  0.00    +0.000 HD
ENDROOT
BRANCH   1   6
ATOM      5  C   UNL     1       0.724  10.796  19.719  0.00  0.00    +0.000 A 
ATOM      6  C   UNL     1       1.155   9.473  19.680  0.00  0.00    +0.000 A 
ATOM      7  N   UNL     1       0.935   8.955  20.935  0.00  0.00    +0.000 N 
ATOM      8  C   UNL     1       0.300   9.862  21.747  0.00  0.00    +0.000 A 
ATOM      9  C   UNL     1      -0.072   9.455  23.129  0.00  0.00    +0.000 C 
ATOM     10  C   UNL     1       0.128  11.034  21.018  0.00  0.00    +0.000 A 
ATOM     11  H   UNL     1       1.227   8.031  21.218  0.00  0.00    +0.000 HD
BRANCH  10  12
ATOM     12  C   UNL     1      -0.536  12.281  21.436  0.00  0.00    +0.000 C 
ATOM     13  C   UNL     1      -1.928  12.618  20.976  0.00  0.00    +0.000 C 
ATOM     14  O   UNL     1       0.036  13.080  22.185  0.00  0.00    +0.000 OA
ENDBRANCH  10  12
BRANCH   5  16
ATOM     15  C   UNL     1       2.218  12.480  18.569  0.00  0.00    +0.000 C 
ATOM     16  C   UNL     1       0.855  11.812  18.614  0.00  0.00    +0.000 C 
ENDBRANCH   5  16
ENDBRANCH   1   6
BRANCH   3  17
ATOM     17  C   UNL     1       3.133   6.654  18.234  0.00  0.00    +0.000 A 
ATOM     18  C   UNL     1       4.252   6.996  17.485  0.00  0.00    +0.000 A 
ATOM     19  C   UNL     1       4.876   6.041  16.674  0.00  0.00    +0.000 A 
ATOM     20  C   UNL     1       4.410   4.721  16.587  0.00  0.00    +0.000 A 
ATOM     21  C   UNL     1       3.308   4.364  17.373  0.00  0.00    +0.000 A 
ATOM     22 CL   UNL     1       2.594   2.790  17.437  0.00  0.00    +0.000 Cl
ATOM     23  C   UNL     1       2.688   5.327  18.198  0.00  0.00    +0.000 A 
BRANCH  20  24
ATOM     24  O   UNL     1       5.161   3.993  15.709  0.00  0.00    +0.000 OA
ATOM     25  C   UNL     1       6.557   4.204  15.594  0.00  0.00    +0.000 C 
ENDBRANCH  20  24
ENDBRANCH   3  17
TORSDOF 5
ENDMDL
