MODEL 1
REMARK VINA RESULT:      -7.9      0.000      0.000
REMARK  Name = 
REMARK  0 active torsions:
REMARK  status: ('A' for Active; 'I' for Inactive)
REMARK                            x       y       z     vdW  Elec       q    Type
REMARK                         _______ _______ _______ _____ _____    ______ ____
ROOT
ATOM      1  O   UNL     1       5.247   1.503  20.530  0.00  0.00    +0.000 OA
ATOM      2  C   UNL     1       4.494   2.102  19.784  0.00  0.00    +0.000 C 
ATOM      3  N   UNL     1       3.715   1.532  18.852  0.00  0.00    +0.000 N 
ATOM      4  C   UNL     1       3.011   2.464  18.175  0.00  0.00    +0.000 C 
ATOM      5  O   UNL     1       2.235   2.233  17.263  0.00  0.00    +0.000 OA
ATOM      6  C   UNL     1       3.390   3.814  18.750  0.00  0.00    +0.000 C 
ATOM      7  C   UNL     1       2.168   4.471  19.383  0.00  0.00    +0.000 C 
ATOM      8  C   UNL     1       2.523   5.900  19.750  0.00  0.00    +0.000 C 
ATOM      9  O   UNL     1       2.847   6.673  18.592  0.00  0.00    +0.000 OA
ATOM     10  C   UNL     1       3.761   6.095  17.752  0.00  0.00    +0.000 A 
ATOM     11  C   UNL     1       4.352   6.951  16.819  0.00  0.00    +0.000 A 
ATOM     12  C   UNL     1       5.287   6.461  15.909  0.00  0.00    +0.000 A 
ATOM     13  C   UNL     1       5.630   5.115  15.936  0.00  0.00    +0.000 A 
ATOM     14 CL   UNL     1       6.779   4.498  14.813  0.00  0.00    +0.000 Cl
ATOM     15  C   UNL     1       5.039   4.253  16.861  0.00  0.00    +0.000 A 
ATOM     16  C   UNL     1       4.077   4.731  17.768  0.00  0.00    +0.000 A 
ATOM     17  O   UNL     1       4.329   3.452  19.782  0.00  0.00    +0.000 OA
ATOM     18  H   UNL     1       3.689   0.543  18.667  0.00  0.00    +0.000 HD
ENDROOT
TORSDOF 0
ENDMDL
MODEL 2
REMARK VINA RESULT:      -7.2      2.657      3.871
REMARK  Name = 
REMARK  0 active torsions:
REMARK  status: ('A' for Active; 'I' for Inactive)
REMARK                            x       y       z     vdW  Elec       q    Type
REMARK                         _______ _______ _______ _____ _____    ______ ____
ROOT
ATOM      1  O   UNL     1       3.451   1.508  18.253  0.00  0.00    +0.000 OA
ATOM      2  C   UNL     1       4.058   2.560  18.340  0.00  0.00    +0.000 C 
ATOM      3  N   UNL     1       4.939   2.868  19.304  0.00  0.00    +0.000 N 
ATOM      4  C   UNL     1       5.426   4.115  19.134  0.00  0.00    +0.000 C 
ATOM      5  O   UNL     1       6.232   4.660  19.870  0.00  0.00    +0.000 OA
ATOM      6  C   UNL     1       4.769   4.684  17.893  0.00  0.00    +0.000 C 
ATOM      7  C   UNL     1       5.825   4.964  16.828  0.00  0.00    +0.000 C 
ATOM      8  C   UNL     1       5.173   5.731  15.693  0.00  0.00    +0.000 C 
ATOM      9  O   UNL     1       4.690   7.003  16.130  0.00  0.00    +0.000 OA
ATOM     10  C   UNL     1       3.919   6.968  17.261  0.00  0.00    +0.000 A 
ATOM     11  C   UNL     1       3.157   8.112  17.510  0.00  0.00    +0.000 A 
ATOM     12  C   UNL     1       2.346   8.184  18.642  0.00  0.00    +0.000 A 
ATOM     13  C   UNL     1       2.297   7.108  19.520  0.00  0.00    +0.000 A 
ATOM     14 CL   UNL     1       1.304   7.187  20.923  0.00  0.00    +0.000 Cl
ATOM     15  C   UNL     1       3.060   5.965  19.280  0.00  0.00    +0.000 A 
ATOM     16  C   UNL     1       3.901   5.891  18.155  0.00  0.00    +0.000 A 
ATOM     17  O   UNL     1       3.931   3.593  17.464  0.00  0.00    +0.000 OA
ATOM     18  H   UNL     1       5.174   2.255  20.067  0.00  0.00    +0.000 HD
ENDROOT
TORSDOF 0
ENDMDL
MODEL 3
REMARK VINA RESULT:      -7.1      2.980      4.649
REMARK  Name = 
REMARK  0 active torsions:
REMARK  status: ('A' for Active; 'I' for Inactive)
REMARK                            x       y       z     vdW  Elec       q    Type
REMARK                         _______ _______ _______ _____ _____    ______ ____
ROOT
ATOM      1  O   UNL     1       7.474   5.338  19.899  0.00  0.00    +0.000 OA
ATOM      2  C   UNL     1       6.485   5.206  19.201  0.00  0.00    +0.000 C 
ATOM      3  N   UNL     1       6.134   6.021  18.195  0.00  0.00    +0.000 N 
ATOM      4  C   UNL     1       4.977   5.619  17.628  0.00  0.00    +0.000 C 
ATOM      5  O   UNL     1       4.417   6.181  16.701  0.00  0.00    +0.000 OA
ATOM      6  C   UNL     1       4.524   4.379  18.371  0.00  0.00    +0.000 C 
ATOM      7  C   UNL     1       4.501   3.184  17.422  0.00  0.00    +0.000 C 
ATOM      8  C   UNL     1       3.839   2.017  18.132  0.00  0.00    +0.000 C 
ATOM      9  O   UNL     1       2.477   2.306  18.456  0.00  0.00    +0.000 OA
ATOM     10  C   UNL     1       2.278   3.500  19.094  0.00  0.00    +0.000 A 
ATOM     11  C   UNL     1       1.041   3.651  19.725  0.00  0.00    +0.000 A 
ATOM     12  C   UNL     1       0.732   4.835  20.395  0.00  0.00    +0.000 A 
ATOM     13  C   UNL     1       1.665   5.864  20.433  0.00  0.00    +0.000 A 
ATOM     14 CL   UNL     1       1.294   7.331  21.251  0.00  0.00    +0.000 Cl
ATOM     15  C   UNL     1       2.901   5.722  19.800  0.00  0.00    +0.000 A 
ATOM     16  C   UNL     1       3.213   4.542  19.100  0.00  0.00    +0.000 A 
ATOM     17  O   UNL     1       5.577   4.203  19.340  0.00  0.00    +0.000 OA
ATOM     18  H   UNL     1       6.654   6.840  17.927  0.00  0.00    +0.000 HD
ENDROOT
TORSDOF 0
ENDMDL
MODEL 4
REMARK VINA RESULT:      -7.1      3.022      4.521
REMARK  Name = 
REMARK  0 active torsions:
REMARK  status: ('A' for Active; 'I' for Inactive)
REMARK                            x       y       z     vdW  Elec       q    Type
REMARK                         _______ _______ _______ _____ _____    ______ ____
ROOT
ATOM      1  O   UNL     1       6.892   4.282  13.804  0.00  0.00    +0.000 OA
ATOM      2  C   UNL     1       6.722   4.619  14.962  0.00  0.00    +0.000 C 
ATOM      3  N   UNL     1       7.579   4.389  15.968  0.00  0.00    +0.000 N 
ATOM      4  C   UNL     1       7.096   4.868  17.134  0.00  0.00    +0.000 C 
ATOM      5  O   UNL     1       7.657   4.786  18.213  0.00  0.00    +0.000 OA
ATOM      6  C   UNL     1       5.746   5.488  16.835  0.00  0.00    +0.000 C 
ATOM      7  C   UNL     1       5.784   6.984  17.133  0.00  0.00    +0.000 C 
ATOM      8  C   UNL     1       4.372   7.531  17.036  0.00  0.00    +0.000 C 
ATOM      9  O   UNL     1       3.514   6.943  18.017  0.00  0.00    +0.000 OA
ATOM     10  C   UNL     1       3.553   5.575  18.070  0.00  0.00    +0.000 A 
ATOM     11  C   UNL     1       2.498   4.965  18.752  0.00  0.00    +0.000 A 
ATOM     12  C   UNL     1       2.448   3.577  18.874  0.00  0.00    +0.000 A 
ATOM     13  C   UNL     1       3.455   2.803  18.310  0.00  0.00    +0.000 A 
ATOM     14 CL   UNL     1       3.408   1.089  18.458  0.00  0.00    +0.000 Cl
ATOM     15  C   UNL     1       4.516   3.406  17.632  0.00  0.00    +0.000 A 
ATOM     16  C   UNL     1       4.589   4.807  17.524  0.00  0.00    +0.000 A 
ATOM     17  O   UNL     1       5.625   5.284  15.413  0.00  0.00    +0.000 OA
ATOM     18  H   UNL     1       8.450   3.896  15.864  0.00  0.00    +0.000 HD
ENDROOT
TORSDOF 0
ENDMDL
MODEL 5
REMARK VINA RESULT:      -7.1      1.159      1.207
REMARK  Name = 
REMARK  0 active torsions:
REMARK  status: ('A' for Active; 'I' for Inactive)
REMARK                            x       y       z     vdW  Elec       q    Type
REMARK                         _______ _______ _______ _____ _____    ______ ____
ROOT
ATOM      1  O   UNL     1       3.712   2.175  21.420  0.00  0.00    +0.000 OA
ATOM      2  C   UNL     1       3.172   2.818  20.538  0.00  0.00    +0.000 C 
ATOM      3  N   UNL     1       2.274   2.334  19.666  0.00  0.00    +0.000 N 
ATOM      4  C   UNL     1       1.876   3.289  18.800  0.00  0.00    +0.000 C 
ATOM      5  O   UNL     1       1.078   3.127  17.892  0.00  0.00    +0.000 OA
ATOM      6  C   UNL     1       2.620   4.558  19.165  0.00  0.00    +0.000 C 
ATOM      7  C   UNL     1       1.629   5.634  19.600  0.00  0.00    +0.000 C 
ATOM      8  C   UNL     1       2.376   6.947  19.745  0.00  0.00    +0.000 C 
ATOM      9  O   UNL     1       2.923   7.379  18.498  0.00  0.00    +0.000 OA
ATOM     10  C   UNL     1       3.643   6.429  17.825  0.00  0.00    +0.000 A 
ATOM     11  C   UNL     1       4.467   6.904  16.802  0.00  0.00    +0.000 A 
ATOM     12  C   UNL     1       5.233   6.017  16.047  0.00  0.00    +0.000 A 
ATOM     13  C   UNL     1       5.175   4.656  16.320  0.00  0.00    +0.000 A 
ATOM     14 CL   UNL     1       6.113   3.552  15.392  0.00  0.00    +0.000 Cl
ATOM     15  C   UNL     1       4.350   4.174  17.337  0.00  0.00    +0.000 A 
ATOM     16  C   UNL     1       3.553   5.056  18.089  0.00  0.00    +0.000 A 
ATOM     17  O   UNL     1       3.402   4.138  20.300  0.00  0.00    +0.000 OA
ATOM     18  H   UNL     1       1.968   1.375  19.648  0.00  0.00    +0.000 HD
ENDROOT
TORSDOF 0
ENDMDL
MODEL 6
REMARK VINA RESULT:      -7.0      2.731      3.916
REMARK  Name = 
REMARK  0 active torsions:
REMARK  status: ('A' for Active; 'I' for Inactive)
REMARK                            x       y       z     vdW  Elec       q    Type
REMARK                         _______ _______ _______ _____ _____    ______ ____
ROOT
ATOM      1  O   UNL     1       7.746   4.715  18.223  0.00  0.00    +0.000 OA
ATOM      2  C   UNL     1       6.582   4.360  18.174  0.00  0.00    +0.000 C 
ATOM      3  N   UNL     1       5.893   4.122  17.048  0.00  0.00    +0.000 N 
ATOM      4  C   UNL     1       4.622   3.764  17.325  0.00  0.00    +0.000 C 
ATOM      5  O   UNL     1       3.768   3.503  16.494  0.00  0.00    +0.000 OA
ATOM      6  C   UNL     1       4.475   3.773  18.833  0.00  0.00    +0.000 C 
ATOM      7  C   UNL     1       4.159   2.367  19.334  0.00  0.00    +0.000 C 
ATOM      8  C   UNL     1       3.803   2.447  20.806  0.00  0.00    +0.000 C 
ATOM      9  O   UNL     1       2.625   3.228  21.018  0.00  0.00    +0.000 OA
ATOM     10  C   UNL     1       2.627   4.452  20.403  0.00  0.00    +0.000 A 
ATOM     11  C   UNL     1       1.674   5.363  20.864  0.00  0.00    +0.000 A 
ATOM     12  C   UNL     1       1.584   6.633  20.296  0.00  0.00    +0.000 A 
ATOM     13  C   UNL     1       2.451   6.989  19.271  0.00  0.00    +0.000 A 
ATOM     14 CL   UNL     1       2.346   8.552  18.559  0.00  0.00    +0.000 Cl
ATOM     15  C   UNL     1       3.402   6.082  18.802  0.00  0.00    +0.000 A 
ATOM     16  C   UNL     1       3.486   4.789  19.350  0.00  0.00    +0.000 A 
ATOM     17  O   UNL     1       5.797   4.151  19.265  0.00  0.00    +0.000 OA
ATOM     18  H   UNL     1       6.273   4.231  16.122  0.00  0.00    +0.000 HD
ENDROOT
TORSDOF 0
ENDMDL
MODEL 7
REMARK VINA RESULT:      -7.0      2.934      4.366
REMARK  Name = 
REMARK  0 active torsions:
REMARK  status: ('A' for Active; 'I' for Inactive)
REMARK                            x       y       z     vdW  Elec       q    Type
REMARK                         _______ _______ _______ _____ _____    ______ ____
ROOT
ATOM      1  O   UNL     1       7.538   5.154  14.968  0.00  0.00    +0.000 OA
ATOM      2  C   UNL     1       6.970   5.352  16.027  0.00  0.00    +0.000 C 
ATOM      3  N   UNL     1       7.529   5.221  17.240  0.00  0.00    +0.000 N 
ATOM      4  C   UNL     1       6.636   5.492  18.215  0.00  0.00    +0.000 C 
ATOM      5  O   UNL     1       6.864   5.439  19.412  0.00  0.00    +0.000 OA
ATOM      6  C   UNL     1       5.328   5.844  17.535  0.00  0.00    +0.000 C 
ATOM      7  C   UNL     1       4.946   7.286  17.857  0.00  0.00    +0.000 C 
ATOM      8  C   UNL     1       3.538   7.537  17.351  0.00  0.00    +0.000 C 
ATOM      9  O   UNL     1       2.586   6.705  18.018  0.00  0.00    +0.000 OA
ATOM     10  C   UNL     1       2.909   5.376  18.057  0.00  0.00    +0.000 A 
ATOM     11  C   UNL     1       1.864   4.507  18.379  0.00  0.00    +0.000 A 
ATOM     12  C   UNL     1       2.089   3.133  18.457  0.00  0.00    +0.000 A 
ATOM     13  C   UNL     1       3.361   2.632  18.208  0.00  0.00    +0.000 A 
ATOM     14 CL   UNL     1       3.653   0.939  18.305  0.00  0.00    +0.000 Cl
ATOM     15  C   UNL     1       4.411   3.495  17.891  0.00  0.00    +0.000 A 
ATOM     16  C   UNL     1       4.201   4.885  17.834  0.00  0.00    +0.000 A 
ATOM     17  O   UNL     1       5.671   5.737  16.140  0.00  0.00    +0.000 OA
ATOM     18  H   UNL     1       8.479   4.928  17.393  0.00  0.00    +0.000 HD
ENDROOT
TORSDOF 0
ENDMDL
MODEL 8
REMARK VINA RESULT:      -7.0      3.405      4.848
REMARK  Name = 
REMARK  0 active torsions:
REMARK  status: ('A' for Active; 'I' for Inactive)
REMARK                            x       y       z     vdW  Elec       q    Type
REMARK                         _______ _______ _______ _____ _____    ______ ____
ROOT
ATOM      1  O   UNL     1       8.710   5.093  20.070  0.00  0.00    +0.000 OA
ATOM      2  C   UNL     1       7.990   5.430  19.147  0.00  0.00    +0.000 C 
ATOM      3  N   UNL     1       7.852   6.684  18.692  0.00  0.00    +0.000 N 
ATOM      4  C   UNL     1       6.967   6.735  17.674  0.00  0.00    +0.000 C 
ATOM      5  O   UNL     1       6.637   7.748  17.080  0.00  0.00    +0.000 OA
ATOM      6  C   UNL     1       6.470   5.322  17.445  0.00  0.00    +0.000 C 
ATOM      7  C   UNL     1       6.868   4.850  16.050  0.00  0.00    +0.000 C 
ATOM      8  C   UNL     1       6.174   3.530  15.770  0.00  0.00    +0.000 C 
ATOM      9  O   UNL     1       4.753   3.678  15.759  0.00  0.00    +0.000 OA
ATOM     10  C   UNL     1       4.234   4.334  16.843  0.00  0.00    +0.000 A 
ATOM     11  C   UNL     1       2.858   4.190  17.037  0.00  0.00    +0.000 A 
ATOM     12  C   UNL     1       2.228   4.826  18.106  0.00  0.00    +0.000 A 
ATOM     13  C   UNL     1       2.978   5.603  18.980  0.00  0.00    +0.000 A 
ATOM     14 CL   UNL     1       2.210   6.398  20.299  0.00  0.00    +0.000 Cl
ATOM     15  C   UNL     1       4.352   5.756  18.789  0.00  0.00    +0.000 A 
ATOM     16  C   UNL     1       4.994   5.139  17.700  0.00  0.00    +0.000 A 
ATOM     17  O   UNL     1       7.209   4.575  18.433  0.00  0.00    +0.000 OA
ATOM     18  H   UNL     1       8.325   7.481  19.085  0.00  0.00    +0.000 HD
ENDROOT
TORSDOF 0
ENDMDL
MODEL 9
REMARK VINA RESULT:      -6.8      1.923      2.758
REMARK  Name = 
REMARK  0 active torsions:
REMARK  status: ('A' for Active; 'I' for Inactive)
REMARK                            x       y       z     vdW  Elec       q    Type
REMARK                         _______ _______ _______ _____ _____    ______ ____
ROOT
ATOM      1  O   UNL     1       2.763   1.611  18.888  0.00  0.00    +0.000 OA
ATOM      2  C   UNL     1       3.120   2.740  18.601  0.00  0.00    +0.000 C 
ATOM      3  N   UNL     1       2.305   3.735  18.221  0.00  0.00    +0.000 N 
ATOM      4  C   UNL     1       3.004   4.858  17.953  0.00  0.00    +0.000 C 
ATOM      5  O   UNL     1       2.522   5.912  17.573  0.00  0.00    +0.000 OA
ATOM      6  C   UNL     1       4.466   4.540  18.195  0.00  0.00    +0.000 C 
ATOM      7  C   UNL     1       5.005   5.405  19.330  0.00  0.00    +0.000 C 
ATOM      8  C   UNL     1       6.510   5.225  19.401  0.00  0.00    +0.000 C 
ATOM      9  O   UNL     1       7.149   5.679  18.205  0.00  0.00    +0.000 OA
ATOM     10  C   UNL     1       6.608   5.194  17.044  0.00  0.00    +0.000 A 
ATOM     11  C   UNL     1       7.402   5.330  15.904  0.00  0.00    +0.000 A 
ATOM     12  C   UNL     1       6.940   4.879  14.667  0.00  0.00    +0.000 A 
ATOM     13  C   UNL     1       5.684   4.292  14.577  0.00  0.00    +0.000 A 
ATOM     14 CL   UNL     1       5.101   3.737  13.056  0.00  0.00    +0.000 Cl
ATOM     15  C   UNL     1       4.883   4.159  15.712  0.00  0.00    +0.000 A 
ATOM     16  C   UNL     1       5.329   4.632  16.960  0.00  0.00    +0.000 A 
ATOM     17  O   UNL     1       4.412   3.164  18.622  0.00  0.00    +0.000 OA
ATOM     18  H   UNL     1       1.308   3.638  18.119  0.00  0.00    +0.000 HD
ENDROOT
TORSDOF 0
ENDMDL
