MODEL 1
REMARK VINA RESULT:      -6.9      0.000      0.000
REMARK  Name = 
REMARK  10 active torsions:
REMARK  status: ('A' for Active; 'I' for Inactive)
REMARK    1  A    between atoms: C_1  and  O_2
REMARK    2  A    between atoms: O_2  and  C_3
REMARK    3  A    between atoms: C_7  and  C_8
REMARK    4  A    between atoms: C_8  and  N_9
REMARK    5  A    between atoms: C_13  and  C_14
REMARK    6  A    between atoms: C_14  and  C_15
REMARK    7  A    between atoms: C_14  and  C_16
REMARK    8  A    between atoms: C_14  and  C_17
REMARK    9  A    between atoms: C_19  and  O_20
REMARK   10  A    between atoms: O_20  and  C_21
REMARK                            x       y       z     vdW  Elec       q    Type
REMARK                         _______ _______ _______ _____ _____    ______ ____
ROOT
ATOM      1  C   UNL     1       6.258   4.871  17.991  0.00  0.00    +0.000 C 
ENDROOT
BRANCH   1   2
ATOM      2  N   UNL     1       6.468   3.824  17.001  0.00  0.00    +0.000 N 
ATOM      3  C   UNL     1       6.826   4.234  15.774  0.00  0.00    +0.000 A 
ATOM      4  N   UNL     1       7.574   5.245  15.389  0.00  0.00    +0.000 NA
ATOM      5  N   UNL     1       7.553   5.250  14.011  0.00  0.00    +0.000 NA
ATOM      6  C   UNL     1       6.786   4.242  13.652  0.00  0.00    +0.000 A 
ATOM      7  O   UNL     1       6.305   3.533  14.725  0.00  0.00    +0.000 OA
ATOM      8  H   UNL     1       5.753   3.104  17.033  0.00  0.00    +0.000 HD
BRANCH   6   9
ATOM      9  C   UNL     1       6.338   3.825  12.284  0.00  0.00    +0.000 C 
ATOM     10  C   UNL     1       6.736   2.361  12.023  0.00  0.00    +0.000 C 
ATOM     11  C   UNL     1       4.810   3.954  12.168  0.00  0.00    +0.000 C 
ATOM     12  C   UNL     1       7.014   4.713  11.225  0.00  0.00    +0.000 C 
ENDBRANCH   6   9
ENDBRANCH   1   2
BRANCH   1  17
ATOM     13  C   UNL     1       2.453   4.639  18.451  0.00  0.00    +0.000 A 
ATOM     14  C   UNL     1       2.096   5.964  18.149  0.00  0.00    +0.000 A 
ATOM     15  C   UNL     1       3.058   6.898  17.779  0.00  0.00    +0.000 A 
ATOM     16  C   UNL     1       4.394   6.527  17.740  0.00  0.00    +0.000 A 
ATOM     17  C   UNL     1       4.787   5.219  18.080  0.00  0.00    +0.000 A 
ATOM     18  C   UNL     1       3.809   4.261  18.434  0.00  0.00    +0.000 A 
BRANCH  13  20
ATOM     19  C   UNL     1       0.941   3.868  20.096  0.00  0.00    +0.000 C 
ATOM     20  O   UNL     1       1.495   3.717  18.790  0.00  0.00    +0.000 OA
ENDBRANCH  13  20
BRANCH  18  21
ATOM     21  O   UNL     1       4.324   3.012  18.672  0.00  0.00    +0.000 OA
ATOM     22  C   UNL     1       4.345   2.496  19.994  0.00  0.00    +0.000 C 
ENDBRANCH  18  21
ENDBRANCH   1  17
TORSDOF 5
ENDMDL
MODEL 2
REMARK VINA RESULT:      -6.7      1.031      1.231
REMARK  Name = 
REMARK  10 active torsions:
REMARK  status: ('A' for Active; 'I' for Inactive)
REMARK    1  A    between atoms: C_1  and  O_2
REMARK    2  A    between atoms: O_2  and  C_3
REMARK    3  A    between atoms: C_7  and  C_8
REMARK    4  A    between atoms: C_8  and  N_9
REMARK    5  A    between atoms: C_13  and  C_14
REMARK    6  A    between atoms: C_14  and  C_15
REMARK    7  A    between atoms: C_14  and  C_16
REMARK    8  A    between atoms: C_14  and  C_17
REMARK    9  A    between atoms: C_19  and  O_20
REMARK   10  A    between atoms: O_20  and  C_21
REMARK                            x       y       z     vdW  Elec       q    Type
REMARK                         _______ _______ _______ _____ _____    ______ ____
ROOT
ATOM      1  C   UNL     1       5.666   4.658  17.927  0.00  0.00    +0.000 C 
ENDROOT
BRANCH   1   2
ATOM      2  N   UNL     1       6.068   3.677  16.930  0.00  0.00    +0.000 N 
ATOM      3  C   UNL     1       6.553   4.169  15.779  0.00  0.00    +0.000 A 
ATOM      4  N   UNL     1       7.278   5.241  15.539  0.00  0.00    +0.000 NA
ATOM      5  N   UNL     1       7.434   5.315  14.172  0.00  0.00    +0.000 NA
ATOM      6  C   UNL     1       6.785   4.284  13.673  0.00  0.00    +0.000 A 
ATOM      7  O   UNL     1       6.217   3.495  14.641  0.00  0.00    +0.000 OA
ATOM      8  H   UNL     1       5.403   2.916  16.836  0.00  0.00    +0.000 HD
BRANCH   6   9
ATOM      9  C   UNL     1       6.544   3.912  12.240  0.00  0.00    +0.000 C 
ATOM     10  C   UNL     1       7.244   2.580  11.917  0.00  0.00    +0.000 C 
ATOM     11  C   UNL     1       5.036   3.758  11.983  0.00  0.00    +0.000 C 
ATOM     12  C   UNL     1       7.116   5.003  11.319  0.00  0.00    +0.000 C 
ENDBRANCH   6   9
ENDBRANCH   1   2
BRANCH   1  17
ATOM     13  C   UNL     1       2.449   3.363  19.576  0.00  0.00    +0.000 A 
ATOM     14  C   UNL     1       1.499   4.122  18.872  0.00  0.00    +0.000 A 
ATOM     15  C   UNL     1       1.888   5.007  17.872  0.00  0.00    +0.000 A 
ATOM     16  C   UNL     1       3.236   5.169  17.587  0.00  0.00    +0.000 A 
ATOM     17  C   UNL     1       4.213   4.456  18.305  0.00  0.00    +0.000 A 
ATOM     18  C   UNL     1       3.820   3.538  19.307  0.00  0.00    +0.000 A 
BRANCH  13  20
ATOM     19  C   UNL     1       1.905   3.023  21.850  0.00  0.00    +0.000 C 
ATOM     20  O   UNL     1       2.055   2.472  20.542  0.00  0.00    +0.000 OA
ENDBRANCH  13  20
BRANCH  18  21
ATOM     21  O   UNL     1       4.869   2.862  19.876  0.00  0.00    +0.000 OA
ATOM     22  C   UNL     1       4.856   1.443  19.918  0.00  0.00    +0.000 C 
ENDBRANCH  18  21
ENDBRANCH   1  17
TORSDOF 5
ENDMDL
MODEL 3
REMARK VINA RESULT:      -6.5      2.821      6.534
REMARK  Name = 
REMARK  10 active torsions:
REMARK  status: ('A' for Active; 'I' for Inactive)
REMARK    1  A    between atoms: C_1  and  O_2
REMARK    2  A    between atoms: O_2  and  C_3
REMARK    3  A    between atoms: C_7  and  C_8
REMARK    4  A    between atoms: C_8  and  N_9
REMARK    5  A    between atoms: C_13  and  C_14
REMARK    6  A    between atoms: C_14  and  C_15
REMARK    7  A    between atoms: C_14  and  C_16
REMARK    8  A    between atoms: C_14  and  C_17
REMARK    9  A    between atoms: C_19  and  O_20
REMARK   10  A    between atoms: O_20  and  C_21
REMARK                            x       y       z     vdW  Elec       q    Type
REMARK                         _______ _______ _______ _____ _____    ______ ____
ROOT
ATOM      1  C   UNL     1       6.019   3.930  16.187  0.00  0.00    +0.000 C 
ENDROOT
BRANCH   1   2
ATOM      2  N   UNL     1       5.242   3.015  17.011  0.00  0.00    +0.000 N 
ATOM      3  C   UNL     1       4.079   3.489  17.484  0.00  0.00    +0.000 A 
ATOM      4  N   UNL     1       3.208   4.320  16.952  0.00  0.00    +0.000 NA
ATOM      5  N   UNL     1       2.227   4.524  17.899  0.00  0.00    +0.000 NA
ATOM      6  C   UNL     1       2.575   3.808  18.947  0.00  0.00    +0.000 A 
ATOM      7  O   UNL     1       3.735   3.101  18.747  0.00  0.00    +0.000 OA
ATOM      8  H   UNL     1       5.812   2.505  17.678  0.00  0.00    +0.000 HD
BRANCH   6   9
ATOM      9  C   UNL     1       1.928   3.717  20.297  0.00  0.00    +0.000 C 
ATOM     10  C   UNL     1       0.513   3.125  20.164  0.00  0.00    +0.000 C 
ATOM     11  C   UNL     1       2.762   2.813  21.220  0.00  0.00    +0.000 C 
ATOM     12  C   UNL     1       1.817   5.123  20.912  0.00  0.00    +0.000 C 
ENDBRANCH   6   9
ENDBRANCH   1   2
BRANCH   1  17
ATOM     13  C   UNL     1       7.386   7.230  17.599  0.00  0.00    +0.000 A 
ATOM     14  C   UNL     1       8.103   6.738  18.701  0.00  0.00    +0.000 A 
ATOM     15  C   UNL     1       8.166   5.373  18.963  0.00  0.00    +0.000 A 
ATOM     16  C   UNL     1       7.483   4.486  18.145  0.00  0.00    +0.000 A 
ATOM     17  C   UNL     1       6.720   4.952  17.058  0.00  0.00    +0.000 A 
ATOM     18  C   UNL     1       6.672   6.337  16.775  0.00  0.00    +0.000 A 
BRANCH  13  20
ATOM     19  C   UNL     1       8.328   9.356  18.017  0.00  0.00    +0.000 C 
ATOM     20  O   UNL     1       7.350   8.575  17.331  0.00  0.00    +0.000 OA
ENDBRANCH  13  20
BRANCH  18  21
ATOM     21  O   UNL     1       5.951   6.644  15.649  0.00  0.00    +0.000 OA
ATOM     22  C   UNL     1       4.627   7.140  15.771  0.00  0.00    +0.000 C 
ENDBRANCH  18  21
ENDBRANCH   1  17
TORSDOF 5
ENDMDL
MODEL 4
REMARK VINA RESULT:      -6.4      5.469      8.074
REMARK  Name = 
REMARK  10 active torsions:
REMARK  status: ('A' for Active; 'I' for Inactive)
REMARK    1  A    between atoms: C_1  and  O_2
REMARK    2  A    between atoms: O_2  and  C_3
REMARK    3  A    between atoms: C_7  and  C_8
REMARK    4  A    between atoms: C_8  and  N_9
REMARK    5  A    between atoms: C_13  and  C_14
REMARK    6  A    between atoms: C_14  and  C_15
REMARK    7  A    between atoms: C_14  and  C_16
REMARK    8  A    between atoms: C_14  and  C_17
REMARK    9  A    between atoms: C_19  and  O_20
REMARK   10  A    between atoms: O_20  and  C_21
REMARK                            x       y       z     vdW  Elec       q    Type
REMARK                         _______ _______ _______ _____ _____    ______ ____
ROOT
ATOM      1  C   UNL     1       1.373   8.793  19.931  0.00  0.00    +0.000 C 
ENDROOT
BRANCH   1   2
ATOM      2  N   UNL     1       2.076   7.677  20.547  0.00  0.00    +0.000 N 
ATOM      3  C   UNL     1       2.195   6.569  19.799  0.00  0.00    +0.000 A 
ATOM      4  N   UNL     1       2.352   6.419  18.501  0.00  0.00    +0.000 NA
ATOM      5  N   UNL     1       2.342   5.063  18.255  0.00  0.00    +0.000 NA
ATOM      6  C   UNL     1       2.170   4.480  19.423  0.00  0.00    +0.000 A 
ATOM      7  O   UNL     1       2.092   5.378  20.458  0.00  0.00    +0.000 OA
ATOM      8  H   UNL     1       1.807   7.527  21.514  0.00  0.00    +0.000 HD
BRANCH   6   9
ATOM      9  C   UNL     1       1.994   3.027  19.746  0.00  0.00    +0.000 C 
ATOM     10  C   UNL     1       1.039   2.373  18.730  0.00  0.00    +0.000 C 
ATOM     11  C   UNL     1       3.351   2.306  19.690  0.00  0.00    +0.000 C 
ATOM     12  C   UNL     1       1.388   2.880  21.153  0.00  0.00    +0.000 C 
ENDBRANCH   6   9
ENDBRANCH   1   2
BRANCH   1  17
ATOM     13  C   UNL     1      -1.000  11.277  21.648  0.00  0.00    +0.000 A 
ATOM     14  C   UNL     1      -0.998  10.747  22.949  0.00  0.00    +0.000 A 
ATOM     15  C   UNL     1      -0.228   9.633  23.267  0.00  0.00    +0.000 A 
ATOM     16  C   UNL     1       0.524   9.015  22.279  0.00  0.00    +0.000 A 
ATOM     17  C   UNL     1       0.509   9.497  20.957  0.00  0.00    +0.000 A 
ATOM     18  C   UNL     1      -0.255  10.642  20.635  0.00  0.00    +0.000 A 
BRANCH  13  20
ATOM     19  C   UNL     1      -2.679  12.784  22.349  0.00  0.00    +0.000 C 
ATOM     20  O   UNL     1      -1.741  12.392  21.348  0.00  0.00    +0.000 OA
ENDBRANCH  13  20
BRANCH  18  21
ATOM     21  O   UNL     1      -0.123  11.042  19.329  0.00  0.00    +0.000 OA
ATOM     22  C   UNL     1      -1.189  10.838  18.416  0.00  0.00    +0.000 C 
ENDBRANCH  18  21
ENDBRANCH   1  17
TORSDOF 5
ENDMDL
MODEL 5
REMARK VINA RESULT:      -6.3      5.521      8.161
REMARK  Name = 
REMARK  10 active torsions:
REMARK  status: ('A' for Active; 'I' for Inactive)
REMARK    1  A    between atoms: C_1  and  O_2
REMARK    2  A    between atoms: O_2  and  C_3
REMARK    3  A    between atoms: C_7  and  C_8
REMARK    4  A    between atoms: C_8  and  N_9
REMARK    5  A    between atoms: C_13  and  C_14
REMARK    6  A    between atoms: C_14  and  C_15
REMARK    7  A    between atoms: C_14  and  C_16
REMARK    8  A    between atoms: C_14  and  C_17
REMARK    9  A    between atoms: C_19  and  O_20
REMARK   10  A    between atoms: O_20  and  C_21
REMARK                            x       y       z     vdW  Elec       q    Type
REMARK                         _______ _______ _______ _____ _____    ______ ____
ROOT
ATOM      1  C   UNL     1       1.321   8.798  20.123  0.00  0.00    +0.000 C 
ENDROOT
BRANCH   1   2
ATOM      2  N   UNL     1       1.847   7.638  20.828  0.00  0.00    +0.000 N 
ATOM      3  C   UNL     1       2.113   6.559  20.076  0.00  0.00    +0.000 A 
ATOM      4  N   UNL     1       2.558   6.458  18.842  0.00  0.00    +0.000 NA
ATOM      5  N   UNL     1       2.579   5.114  18.537  0.00  0.00    +0.000 NA
ATOM      6  C   UNL     1       2.138   4.489  19.608  0.00  0.00    +0.000 A 
ATOM      7  O   UNL     1       1.842   5.345  20.639  0.00  0.00    +0.000 OA
ATOM      8  H   UNL     1       1.363   7.456  21.702  0.00  0.00    +0.000 HD
BRANCH   6   9
ATOM      9  C   UNL     1       1.867   3.029  19.815  0.00  0.00    +0.000 C 
ATOM     10  C   UNL     1       1.445   2.774  21.274  0.00  0.00    +0.000 C 
ATOM     11  C   UNL     1       0.737   2.565  18.881  0.00  0.00    +0.000 C 
ATOM     12  C   UNL     1       3.143   2.220  19.525  0.00  0.00    +0.000 C 
ENDBRANCH   6   9
ENDBRANCH   1   2
BRANCH   1  17
ATOM     13  C   UNL     1      -0.886  11.589  21.565  0.00  0.00    +0.000 A 
ATOM     14  C   UNL     1      -1.095  11.082  22.859  0.00  0.00    +0.000 A 
ATOM     15  C   UNL     1      -0.513   9.884  23.261  0.00  0.00    +0.000 A 
ATOM     16  C   UNL     1       0.256   9.161  22.363  0.00  0.00    +0.000 A 
ATOM     17  C   UNL     1       0.448   9.621  21.046  0.00  0.00    +0.000 A 
ATOM     18  C   UNL     1      -0.123  10.850  20.641  0.00  0.00    +0.000 A 
BRANCH  13  20
ATOM     19  C   UNL     1      -2.741  12.693  20.605  0.00  0.00    +0.000 C 
ATOM     20  O   UNL     1      -1.441  12.785  21.185  0.00  0.00    +0.000 OA
ENDBRANCH  13  20
BRANCH  18  21
ATOM     21  O   UNL     1       0.202  11.210  19.358  0.00  0.00    +0.000 OA
ATOM     22  C   UNL     1       1.177  12.217  19.132  0.00  0.00    +0.000 C 
ENDBRANCH  18  21
ENDBRANCH   1  17
TORSDOF 5
ENDMDL
MODEL 6
REMARK VINA RESULT:      -6.2      5.841      9.303
REMARK  Name = 
REMARK  10 active torsions:
REMARK  status: ('A' for Active; 'I' for Inactive)
REMARK    1  A    between atoms: C_1  and  O_2
REMARK    2  A    between atoms: O_2  and  C_3
REMARK    3  A    between atoms: C_7  and  C_8
REMARK    4  A    between atoms: C_8  and  N_9
REMARK    5  A    between atoms: C_13  and  C_14
REMARK    6  A    between atoms: C_14  and  C_15
REMARK    7  A    between atoms: C_14  and  C_16
REMARK    8  A    between atoms: C_14  and  C_17
REMARK    9  A    between atoms: C_19  and  O_20
REMARK   10  A    between atoms: O_20  and  C_21
REMARK                            x       y       z     vdW  Elec       q    Type
REMARK                         _______ _______ _______ _____ _____    ______ ____
ROOT
ATOM      1  C   UNL     1       1.449   7.191  20.787  0.00  0.00    +0.000 C 
ENDROOT
BRANCH   1   2
ATOM      2  N   UNL     1       1.407   8.619  20.508  0.00  0.00    +0.000 N 
ATOM      3  C   UNL     1       0.853   9.390  21.456  0.00  0.00    +0.000 A 
ATOM      4  N   UNL     1       0.860   9.282  22.768  0.00  0.00    +0.000 NA
ATOM      5  N   UNL     1       0.071  10.303  23.253  0.00  0.00    +0.000 NA
ATOM      6  C   UNL     1      -0.369  10.958  22.201  0.00  0.00    +0.000 A 
ATOM      7  O   UNL     1       0.107  10.448  21.019  0.00  0.00    +0.000 OA
ATOM      8  H   UNL     1       1.128   8.826  19.555  0.00  0.00    +0.000 HD
BRANCH   6   9
ATOM      9  C   UNL     1      -1.333  12.104  22.125  0.00  0.00    +0.000 C 
ATOM     10  C   UNL     1      -0.604  13.427  22.423  0.00  0.00    +0.000 C 
ATOM     11  C   UNL     1      -1.951  12.181  20.720  0.00  0.00    +0.000 C 
ATOM     12  C   UNL     1      -2.446  11.913  23.170  0.00  0.00    +0.000 C 
ENDBRANCH   6   9
ENDBRANCH   1   2
BRANCH   1  17
ATOM     13  C   UNL     1       3.670   4.585  19.050  0.00  0.00    +0.000 A 
ATOM     14  C   UNL     1       4.061   5.321  17.919  0.00  0.00    +0.000 A 
ATOM     15  C   UNL     1       3.640   6.635  17.740  0.00  0.00    +0.000 A 
ATOM     16  C   UNL     1       2.794   7.217  18.672  0.00  0.00    +0.000 A 
ATOM     17  C   UNL     1       2.350   6.490  19.792  0.00  0.00    +0.000 A 
ATOM     18  C   UNL     1       2.794   5.162  19.990  0.00  0.00    +0.000 A 
BRANCH  13  20
ATOM     19  C   UNL     1       3.587   2.340  18.316  0.00  0.00    +0.000 C 
ATOM     20  O   UNL     1       4.112   3.299  19.233  0.00  0.00    +0.000 OA
ENDBRANCH  13  20
BRANCH  18  21
ATOM     21  O   UNL     1       2.341   4.597  21.155  0.00  0.00    +0.000 OA
ATOM     22  C   UNL     1       1.410   3.528  21.107  0.00  0.00    +0.000 C 
ENDBRANCH  18  21
ENDBRANCH   1  17
TORSDOF 5
ENDMDL
MODEL 7
REMARK VINA RESULT:      -6.1      5.454      8.888
REMARK  Name = 
REMARK  10 active torsions:
REMARK  status: ('A' for Active; 'I' for Inactive)
REMARK    1  A    between atoms: C_1  and  O_2
REMARK    2  A    between atoms: O_2  and  C_3
REMARK    3  A    between atoms: C_7  and  C_8
REMARK    4  A    between atoms: C_8  and  N_9
REMARK    5  A    between atoms: C_13  and  C_14
REMARK    6  A    between atoms: C_14  and  C_15
REMARK    7  A    between atoms: C_14  and  C_16
REMARK    8  A    between atoms: C_14  and  C_17
REMARK    9  A    between atoms: C_19  and  O_20
REMARK   10  A    between atoms: O_20  and  C_21
REMARK                            x       y       z     vdW  Elec       q    Type
REMARK                         _______ _______ _______ _____ _____    ______ ____
ROOT
ATOM      1  C   UNL     1       1.603   6.748  20.608  0.00  0.00    +0.000 C 
ENDROOT
BRANCH   1   2
ATOM      2  N   UNL     1       1.649   8.162  20.267  0.00  0.00    +0.000 N 
ATOM      3  C   UNL     1       1.160   9.008  21.188  0.00  0.00    +0.000 A 
ATOM      4  N   UNL     1       1.181   8.956  22.502  0.00  0.00    +0.000 NA
ATOM      5  N   UNL     1       0.467  10.046  22.953  0.00  0.00    +0.000 NA
ATOM      6  C   UNL     1       0.053  10.682  21.878  0.00  0.00    +0.000 A 
ATOM      7  O   UNL     1       0.477  10.091  20.714  0.00  0.00    +0.000 OA
ATOM      8  H   UNL     1       1.368   8.345  19.309  0.00  0.00    +0.000 HD
BRANCH   6   9
ATOM      9  C   UNL     1      -0.837  11.884  21.765  0.00  0.00    +0.000 C 
ATOM     10  C   UNL     1      -1.835  11.912  22.938  0.00  0.00    +0.000 C 
ATOM     11  C   UNL     1       0.007  13.169  21.797  0.00  0.00    +0.000 C 
ATOM     12  C   UNL     1      -1.629  11.818  20.448  0.00  0.00    +0.000 C 
ENDBRANCH   6   9
ENDBRANCH   1   2
BRANCH   1  17
ATOM     13  C   UNL     1       2.619   3.823  18.337  0.00  0.00    +0.000 A 
ATOM     14  C   UNL     1       3.494   4.491  17.466  0.00  0.00    +0.000 A 
ATOM     15  C   UNL     1       3.770   5.845  17.628  0.00  0.00    +0.000 A 
ATOM     16  C   UNL     1       3.146   6.555  18.642  0.00  0.00    +0.000 A 
ATOM     17  C   UNL     1       2.230   5.923  19.504  0.00  0.00    +0.000 A 
ATOM     18  C   UNL     1       1.965   4.541  19.357  0.00  0.00    +0.000 A 
BRANCH  13  20
ATOM     19  C   UNL     1       3.460   1.623  18.530  0.00  0.00    +0.000 C 
ATOM     20  O   UNL     1       2.373   2.481  18.188  0.00  0.00    +0.000 OA
ENDBRANCH  13  20
BRANCH  18  21
ATOM     21  O   UNL     1       1.109   4.041  20.306  0.00  0.00    +0.000 OA
ATOM     22  C   UNL     1       1.619   3.265  21.378  0.00  0.00    +0.000 C 
ENDBRANCH  18  21
ENDBRANCH   1  17
TORSDOF 5
ENDMDL
MODEL 8
REMARK VINA RESULT:      -6.0      1.282      1.685
REMARK  Name = 
REMARK  10 active torsions:
REMARK  status: ('A' for Active; 'I' for Inactive)
REMARK    1  A    between atoms: C_1  and  O_2
REMARK    2  A    between atoms: O_2  and  C_3
REMARK    3  A    between atoms: C_7  and  C_8
REMARK    4  A    between atoms: C_8  and  N_9
REMARK    5  A    between atoms: C_13  and  C_14
REMARK    6  A    between atoms: C_14  and  C_15
REMARK    7  A    between atoms: C_14  and  C_16
REMARK    8  A    between atoms: C_14  and  C_17
REMARK    9  A    between atoms: C_19  and  O_20
REMARK   10  A    between atoms: O_20  and  C_21
REMARK                            x       y       z     vdW  Elec       q    Type
REMARK                         _______ _______ _______ _____ _____    ______ ____
ROOT
ATOM      1  C   UNL     1       5.060   5.683  17.648  0.00  0.00    +0.000 C 
ENDROOT
BRANCH   1   2
ATOM      2  N   UNL     1       4.899   4.540  16.760  0.00  0.00    +0.000 N 
ATOM      3  C   UNL     1       5.790   4.439  15.761  0.00  0.00    +0.000 A 
ATOM      4  N   UNL     1       7.065   4.755  15.708  0.00  0.00    +0.000 NA
ATOM      5  N   UNL     1       7.480   4.515  14.416  0.00  0.00    +0.000 NA
ATOM      6  C   UNL     1       6.423   4.075  13.768  0.00  0.00    +0.000 A 
ATOM      7  O   UNL     1       5.312   3.978  14.567  0.00  0.00    +0.000 OA
ATOM      8  H   UNL     1       3.931   4.373  16.505  0.00  0.00    +0.000 HD
BRANCH   6   9
ATOM      9  C   UNL     1       6.267   3.741  12.314  0.00  0.00    +0.000 C 
ATOM     10  C   UNL     1       4.786   3.845  11.906  0.00  0.00    +0.000 C 
ATOM     11  C   UNL     1       7.090   4.717  11.458  0.00  0.00    +0.000 C 
ATOM     12  C   UNL     1       6.745   2.300  12.061  0.00  0.00    +0.000 C 
ENDBRANCH   6   9
ENDBRANCH   1   2
BRANCH   1  17
ATOM     13  C   UNL     1       2.693   4.690  20.504  0.00  0.00    +0.000 A 
ATOM     14  C   UNL     1       1.847   5.811  20.512  0.00  0.00    +0.000 A 
ATOM     15  C   UNL     1       2.021   6.846  19.598  0.00  0.00    +0.000 A 
ATOM     16  C   UNL     1       3.065   6.789  18.688  0.00  0.00    +0.000 A 
ATOM     17  C   UNL     1       3.956   5.699  18.685  0.00  0.00    +0.000 A 
ATOM     18  C   UNL     1       3.769   4.634  19.596  0.00  0.00    +0.000 A 
BRANCH  13  20
ATOM     19  C   UNL     1       1.281   2.936  21.220  0.00  0.00    +0.000 C 
ATOM     20  O   UNL     1       2.498   3.661  21.390  0.00  0.00    +0.000 OA
ENDBRANCH  13  20
BRANCH  18  21
ATOM     21  O   UNL     1       4.665   3.608  19.436  0.00  0.00    +0.000 OA
ATOM     22  C   UNL     1       4.196   2.298  19.155  0.00  0.00    +0.000 C 
ENDBRANCH  18  21
ENDBRANCH   1  17
TORSDOF 5
ENDMDL
MODEL 9
REMARK VINA RESULT:      -6.0      5.032      8.028
REMARK  Name = 
REMARK  10 active torsions:
REMARK  status: ('A' for Active; 'I' for Inactive)
REMARK    1  A    between atoms: C_1  and  O_2
REMARK    2  A    between atoms: O_2  and  C_3
REMARK    3  A    between atoms: C_7  and  C_8
REMARK    4  A    between atoms: C_8  and  N_9
REMARK    5  A    between atoms: C_13  and  C_14
REMARK    6  A    between atoms: C_14  and  C_15
REMARK    7  A    between atoms: C_14  and  C_16
REMARK    8  A    between atoms: C_14  and  C_17
REMARK    9  A    between atoms: C_19  and  O_20
REMARK   10  A    between atoms: O_20  and  C_21
REMARK                            x       y       z     vdW  Elec       q    Type
REMARK                         _______ _______ _______ _____ _____    ______ ____
ROOT
ATOM      1  C   UNL     1       2.113   7.212  19.778  0.00  0.00    +0.000 C 
ENDROOT
BRANCH   1   2
ATOM      2  N   UNL     1       2.003   8.450  19.019  0.00  0.00    +0.000 N 
ATOM      3  C   UNL     1       1.145   9.364  19.500  0.00  0.00    +0.000 A 
ATOM      4  N   UNL     1       0.820   9.672  20.737  0.00  0.00    +0.000 NA
ATOM      5  N   UNL     1      -0.166  10.632  20.659  0.00  0.00    +0.000 NA
ATOM      6  C   UNL     1      -0.379  10.836  19.376  0.00  0.00    +0.000 A 
ATOM      7  O   UNL     1       0.439  10.078  18.575  0.00  0.00    +0.000 OA
ATOM      8  H   UNL     1       1.964   8.296  18.017  0.00  0.00    +0.000 HD
BRANCH   6   9
ATOM      9  C   UNL     1      -1.399  11.706  18.705  0.00  0.00    +0.000 C 
ATOM     10  C   UNL     1      -2.074  10.935  17.556  0.00  0.00    +0.000 C 
ATOM     11  C   UNL     1      -2.474  12.133  19.718  0.00  0.00    +0.000 C 
ATOM     12  C   UNL     1      -0.712  12.953  18.123  0.00  0.00    +0.000 C 
ENDBRANCH   6   9
ENDBRANCH   1   2
BRANCH   1  17
ATOM     13  C   UNL     1       3.927   3.995  18.729  0.00  0.00    +0.000 A 
ATOM     14  C   UNL     1       4.542   4.442  17.548  0.00  0.00    +0.000 A 
ATOM     15  C   UNL     1       4.395   5.758  17.119  0.00  0.00    +0.000 A 
ATOM     16  C   UNL     1       3.604   6.632  17.848  0.00  0.00    +0.000 A 
ATOM     17  C   UNL     1       2.940   6.201  19.012  0.00  0.00    +0.000 A 
ATOM     18  C   UNL     1       3.105   4.871  19.464  0.00  0.00    +0.000 A 
BRANCH  13  20
ATOM     19  C   UNL     1       3.445   1.709  18.372  0.00  0.00    +0.000 C 
ATOM     20  O   UNL     1       4.098   2.703  19.160  0.00  0.00    +0.000 OA
ENDBRANCH  13  20
BRANCH  18  21
ATOM     21  O   UNL     1       2.460   4.607  20.645  0.00  0.00    +0.000 OA
ATOM     22  C   UNL     1       1.237   3.887  20.637  0.00  0.00    +0.000 C 
ENDBRANCH  18  21
ENDBRANCH   1  17
TORSDOF 5
ENDMDL
