MODEL 1
REMARK VINA RESULT:      -7.1      0.000      0.000
REMARK  Name = 
REMARK  8 active torsions:
REMARK  status: ('A' for Active; 'I' for Inactive)
REMARK    1  A    between atoms: C_1  and  C_2
REMARK    2  A    between atoms: C_2  and  N_3
REMARK    3  A    between atoms: N_3  and  C_4
REMARK    4  A    between atoms: C_4  and  C_5
REMARK    5  A    between atoms: C_6  and  C_8
REMARK    6  A    between atoms: C_8  and  C_9
REMARK    7  A    between atoms: C_20  and  C_21
REMARK    8  A    between atoms: C_21  and  N_22
REMARK                            x       y       z     vdW  Elec       q    Type
REMARK                         _______ _______ _______ _____ _____    ______ ____
ROOT
ATOM      1  C   UNL     1       5.147   4.689  16.202  0.00  0.00    +0.000 C 
ATOM      2  C   UNL     1       6.274   3.648  15.925  0.00  0.00    +0.000 C 
ATOM      3  C   UNL     1       5.199   3.818  14.915  0.00  0.00    +0.000 C 
ENDROOT
BRANCH   1   4
ATOM      4  C   UNL     1       4.066   4.190  17.216  0.00  0.00    +0.000 A 
ATOM      5  C   UNL     1       4.015   2.808  17.522  0.00  0.00    +0.000 A 
ATOM      6  C   UNL     1       3.309   2.310  18.608  0.00  0.00    +0.000 A 
ATOM      7  C   UNL     1       2.669   3.200  19.464  0.00  0.00    +0.000 A 
ATOM      8  C   UNL     1       2.679   4.577  19.204  0.00  0.00    +0.000 A 
ATOM      9  C   UNL     1       2.101   5.463  20.126  0.00  0.00    +0.000 A 
ATOM     10  C   UNL     1       2.112   6.837  19.902  0.00  0.00    +0.000 A 
ATOM     11  C   UNL     1       2.651   7.335  18.727  0.00  0.00    +0.000 A 
ATOM     12  C   UNL     1       3.234   6.470  17.804  0.00  0.00    +0.000 A 
ATOM     13  C   UNL     1       3.315   5.079  18.039  0.00  0.00    +0.000 A 
ENDBRANCH   1   4
BRANCH   1  15
ATOM     14  N   UNL     1       6.596   6.522  17.248  0.00  0.00    +0.000 N 
ATOM     15  C   UNL     1       5.664   6.124  16.272  0.00  0.00    +0.000 C 
ATOM     16  O   UNL     1       5.231   6.927  15.442  0.00  0.00    +0.000 OA
BRANCH  14  18
ATOM     17  C   UNL     1       8.263   8.147  18.133  0.00  0.00    +0.000 C 
ATOM     18  C   UNL     1       7.116   7.894  17.161  0.00  0.00    +0.000 C 
ENDBRANCH  14  18
BRANCH  14  19
ATOM     19  C   UNL     1       7.205   5.570  18.176  0.00  0.00    +0.000 C 
ATOM     20  C   UNL     1       6.546   5.341  19.533  0.00  0.00    +0.000 C 
ENDBRANCH  14  19
ENDBRANCH   1  15
BRANCH   3  21
ATOM     21  C   UNL     1       5.572   4.286  13.558  0.00  0.00    +0.000 C 
BRANCH  21  22
ATOM     22  N   UNL     1       6.295   3.208  12.896  0.00  0.00    +0.000 NA
ATOM     23  H   UNL     1       5.685   2.392  12.827  0.00  0.00    +0.000 HD
ATOM     24  H   UNL     1       7.060   2.915  13.503  0.00  0.00    +0.000 HD
ENDBRANCH  21  22
ENDBRANCH   3  21
TORSDOF 6
ENDMDL
MODEL 2
REMARK VINA RESULT:      -6.9      2.561      5.061
REMARK  Name = 
REMARK  8 active torsions:
REMARK  status: ('A' for Active; 'I' for Inactive)
REMARK    1  A    between atoms: C_1  and  C_2
REMARK    2  A    between atoms: C_2  and  N_3
REMARK    3  A    between atoms: N_3  and  C_4
REMARK    4  A    between atoms: C_4  and  C_5
REMARK    5  A    between atoms: C_6  and  C_8
REMARK    6  A    between atoms: C_8  and  C_9
REMARK    7  A    between atoms: C_20  and  C_21
REMARK    8  A    between atoms: C_21  and  N_22
REMARK                            x       y       z     vdW  Elec       q    Type
REMARK                         _______ _______ _______ _____ _____    ______ ____
ROOT
ATOM      1  C   UNL     1       3.640   3.843  18.076  0.00  0.00    +0.000 C 
ATOM      2  C   UNL     1       2.435   3.286  17.257  0.00  0.00    +0.000 C 
ATOM      3  C   UNL     1       3.403   2.324  17.844  0.00  0.00    +0.000 C 
ENDROOT
BRANCH   1   4
ATOM      4  C   UNL     1       4.795   4.409  17.188  0.00  0.00    +0.000 A 
ATOM      5  C   UNL     1       4.579   4.526  15.793  0.00  0.00    +0.000 A 
ATOM      6  C   UNL     1       5.408   5.275  14.970  0.00  0.00    +0.000 A 
ATOM      7  C   UNL     1       6.461   5.986  15.536  0.00  0.00    +0.000 A 
ATOM      8  C   UNL     1       6.726   5.899  16.909  0.00  0.00    +0.000 A 
ATOM      9  C   UNL     1       7.738   6.690  17.473  0.00  0.00    +0.000 A 
ATOM     10  C   UNL     1       8.012   6.638  18.837  0.00  0.00    +0.000 A 
ATOM     11  C   UNL     1       7.315   5.752  19.642  0.00  0.00    +0.000 A 
ATOM     12  C   UNL     1       6.303   4.964  19.100  0.00  0.00    +0.000 A 
ATOM     13  C   UNL     1       5.943   5.054  17.737  0.00  0.00    +0.000 A 
ENDBRANCH   1   4
BRANCH   1  15
ATOM     14  N   UNL     1       2.721   5.899  19.293  0.00  0.00    +0.000 N 
ATOM     15  C   UNL     1       3.210   4.581  19.343  0.00  0.00    +0.000 C 
ATOM     16  O   UNL     1       3.310   3.979  20.414  0.00  0.00    +0.000 OA
BRANCH  14  18
ATOM     17  C   UNL     1       1.616   7.862  20.355  0.00  0.00    +0.000 C 
ATOM     18  C   UNL     1       2.229   6.480  20.550  0.00  0.00    +0.000 C 
ENDBRANCH  14  18
BRANCH  14  19
ATOM     19  C   UNL     1       2.493   6.598  18.030  0.00  0.00    +0.000 C 
ATOM     20  C   UNL     1       3.493   7.661  17.585  0.00  0.00    +0.000 C 
ENDBRANCH  14  19
ENDBRANCH   1  15
BRANCH   3  21
ATOM     21  C   UNL     1       2.911   1.353  18.850  0.00  0.00    +0.000 C 
BRANCH  21  22
ATOM     22  N   UNL     1       1.492   1.610  19.065  0.00  0.00    +0.000 NA
ATOM     23  H   UNL     1       1.169   1.051  19.856  0.00  0.00    +0.000 HD
ATOM     24  H   UNL     1       0.977   1.254  18.260  0.00  0.00    +0.000 HD
ENDBRANCH  21  22
ENDBRANCH   3  21
TORSDOF 6
ENDMDL
MODEL 3
REMARK VINA RESULT:      -6.7      2.564      5.618
REMARK  Name = 
REMARK  8 active torsions:
REMARK  status: ('A' for Active; 'I' for Inactive)
REMARK    1  A    between atoms: C_1  and  C_2
REMARK    2  A    between atoms: C_2  and  N_3
REMARK    3  A    between atoms: N_3  and  C_4
REMARK    4  A    between atoms: C_4  and  C_5
REMARK    5  A    between atoms: C_6  and  C_8
REMARK    6  A    between atoms: C_8  and  C_9
REMARK    7  A    between atoms: C_20  and  C_21
REMARK    8  A    between atoms: C_21  and  N_22
REMARK                            x       y       z     vdW  Elec       q    Type
REMARK                         _______ _______ _______ _____ _____    ______ ____
ROOT
ATOM      1  C   UNL     1       3.434   5.965  18.374  0.00  0.00    +0.000 C 
ATOM      2  C   UNL     1       3.060   6.801  19.638  0.00  0.00    +0.000 C 
ATOM      3  C   UNL     1       2.989   7.454  18.305  0.00  0.00    +0.000 C 
ENDROOT
BRANCH   1   4
ATOM      4  C   UNL     1       4.974   5.794  18.168  0.00  0.00    +0.000 A 
ATOM      5  C   UNL     1       5.808   5.751  19.312  0.00  0.00    +0.000 A 
ATOM      6  C   UNL     1       7.124   5.314  19.261  0.00  0.00    +0.000 A 
ATOM      7  C   UNL     1       7.634   4.846  18.054  0.00  0.00    +0.000 A 
ATOM      8  C   UNL     1       6.857   4.876  16.888  0.00  0.00    +0.000 A 
ATOM      9  C   UNL     1       7.361   4.321  15.702  0.00  0.00    +0.000 A 
ATOM     10  C   UNL     1       6.605   4.319  14.534  0.00  0.00    +0.000 A 
ATOM     11  C   UNL     1       5.358   4.924  14.525  0.00  0.00    +0.000 A 
ATOM     12  C   UNL     1       4.840   5.473  15.695  0.00  0.00    +0.000 A 
ATOM     13  C   UNL     1       5.546   5.416  16.917  0.00  0.00    +0.000 A 
ENDBRANCH   1   4
BRANCH   1  15
ATOM     14  N   UNL     1       2.612   3.590  18.860  0.00  0.00    +0.000 N 
ATOM     15  C   UNL     1       2.489   4.790  18.135  0.00  0.00    +0.000 C 
ATOM     16  O   UNL     1       1.614   4.928  17.278  0.00  0.00    +0.000 OA
BRANCH  14  18
ATOM     17  C   UNL     1       0.441   2.652  19.638  0.00  0.00    +0.000 C 
ATOM     18  C   UNL     1       1.587   2.562  18.637  0.00  0.00    +0.000 C 
ENDBRANCH  14  18
BRANCH  14  19
ATOM     19  C   UNL     1       3.572   3.436  19.953  0.00  0.00    +0.000 C 
ATOM     20  C   UNL     1       4.513   2.236  19.942  0.00  0.00    +0.000 C 
ENDBRANCH  14  19
ENDBRANCH   1  15
BRANCH   3  21
ATOM     21  C   UNL     1       1.675   7.951  17.833  0.00  0.00    +0.000 C 
BRANCH  21  22
ATOM     22  N   UNL     1       1.851   9.328  17.386  0.00  0.00    +0.000 NA
ATOM     23  H   UNL     1       2.818   9.457  17.083  0.00  0.00    +0.000 HD
ATOM     24  H   UNL     1       1.741   9.942  18.192  0.00  0.00    +0.000 HD
ENDBRANCH  21  22
ENDBRANCH   3  21
TORSDOF 6
ENDMDL
MODEL 4
REMARK VINA RESULT:      -6.6      1.744      3.687
REMARK  Name = 
REMARK  8 active torsions:
REMARK  status: ('A' for Active; 'I' for Inactive)
REMARK    1  A    between atoms: C_1  and  C_2
REMARK    2  A    between atoms: C_2  and  N_3
REMARK    3  A    between atoms: N_3  and  C_4
REMARK    4  A    between atoms: C_4  and  C_5
REMARK    5  A    between atoms: C_6  and  C_8
REMARK    6  A    between atoms: C_8  and  C_9
REMARK    7  A    between atoms: C_20  and  C_21
REMARK    8  A    between atoms: C_21  and  N_22
REMARK                            x       y       z     vdW  Elec       q    Type
REMARK                         _______ _______ _______ _____ _____    ______ ____
ROOT
ATOM      1  C   UNL     1       5.971   4.836  17.954  0.00  0.00    +0.000 C 
ATOM      2  C   UNL     1       5.916   6.342  18.357  0.00  0.00    +0.000 C 
ATOM      3  C   UNL     1       6.566   5.380  19.283  0.00  0.00    +0.000 C 
ENDROOT
BRANCH   1   4
ATOM      4  C   UNL     1       4.620   4.079  18.171  0.00  0.00    +0.000 A 
ATOM      5  C   UNL     1       4.580   2.685  17.926  0.00  0.00    +0.000 A 
ATOM      6  C   UNL     1       3.538   1.879  18.362  0.00  0.00    +0.000 A 
ATOM      7  C   UNL     1       2.517   2.446  19.118  0.00  0.00    +0.000 A 
ATOM      8  C   UNL     1       2.500   3.822  19.383  0.00  0.00    +0.000 A 
ATOM      9  C   UNL     1       1.508   4.357  20.218  0.00  0.00    +0.000 A 
ATOM     10  C   UNL     1       1.478   5.717  20.513  0.00  0.00    +0.000 A 
ATOM     11  C   UNL     1       2.406   6.565  19.930  0.00  0.00    +0.000 A 
ATOM     12  C   UNL     1       3.401   6.049  19.104  0.00  0.00    +0.000 A 
ATOM     13  C   UNL     1       3.512   4.664  18.852  0.00  0.00    +0.000 A 
ENDBRANCH   1   4
BRANCH   1  15
ATOM     14  N   UNL     1       6.282   4.831  15.413  0.00  0.00    +0.000 N 
ATOM     15  C   UNL     1       6.801   4.585  16.697  0.00  0.00    +0.000 C 
ATOM     16  O   UNL     1       7.946   4.153  16.849  0.00  0.00    +0.000 OA
BRANCH  14  18
ATOM     17  C   UNL     1       6.557   3.910  13.116  0.00  0.00    +0.000 C 
ATOM     18  C   UNL     1       7.197   4.664  14.275  0.00  0.00    +0.000 C 
ENDBRANCH  14  18
BRANCH  14  19
ATOM     19  C   UNL     1       4.969   5.440  15.208  0.00  0.00    +0.000 C 
ATOM     20  C   UNL     1       4.847   6.960  15.256  0.00  0.00    +0.000 C 
ENDBRANCH  14  19
ENDBRANCH   1  15
BRANCH   3  21
ATOM     21  C   UNL     1       8.006   5.555  19.588  0.00  0.00    +0.000 C 
BRANCH  21  22
ATOM     22  N   UNL     1       8.211   5.223  20.992  0.00  0.00    +0.000 NA
ATOM     23  H   UNL     1       7.315   5.276  21.480  0.00  0.00    +0.000 HD
ATOM     24  H   UNL     1       8.786   5.952  21.413  0.00  0.00    +0.000 HD
ENDBRANCH  21  22
ENDBRANCH   3  21
TORSDOF 6
ENDMDL
MODEL 5
REMARK VINA RESULT:      -6.6      2.482      4.579
REMARK  Name = 
REMARK  8 active torsions:
REMARK  status: ('A' for Active; 'I' for Inactive)
REMARK    1  A    between atoms: C_1  and  C_2
REMARK    2  A    between atoms: C_2  and  N_3
REMARK    3  A    between atoms: N_3  and  C_4
REMARK    4  A    between atoms: C_4  and  C_5
REMARK    5  A    between atoms: C_6  and  C_8
REMARK    6  A    between atoms: C_8  and  C_9
REMARK    7  A    between atoms: C_20  and  C_21
REMARK    8  A    between atoms: C_21  and  N_22
REMARK                            x       y       z     vdW  Elec       q    Type
REMARK                         _______ _______ _______ _____ _____    ______ ____
ROOT
ATOM      1  C   UNL     1       2.978   5.918  18.720  0.00  0.00    +0.000 C 
ATOM      2  C   UNL     1       1.979   4.986  19.474  0.00  0.00    +0.000 C 
ATOM      3  C   UNL     1       1.931   5.030  17.990  0.00  0.00    +0.000 C 
ENDROOT
BRANCH   1   4
ATOM      4  C   UNL     1       2.568   7.427  18.743  0.00  0.00    +0.000 A 
ATOM      5  C   UNL     1       2.787   8.204  17.579  0.00  0.00    +0.000 A 
ATOM      6  C   UNL     1       2.202   9.448  17.391  0.00  0.00    +0.000 A 
ATOM      7  C   UNL     1       1.321   9.933  18.352  0.00  0.00    +0.000 A 
ATOM      8  C   UNL     1       1.075   9.211  19.528  0.00  0.00    +0.000 A 
ATOM      9  C   UNL     1       0.119   9.677  20.443  0.00  0.00    +0.000 A 
ATOM     10  C   UNL     1      -0.159   8.971  21.610  0.00  0.00    +0.000 A 
ATOM     11  C   UNL     1       0.556   7.821  21.901  0.00  0.00    +0.000 A 
ATOM     12  C   UNL     1       1.504   7.340  21.000  0.00  0.00    +0.000 A 
ATOM     13  C   UNL     1       1.750   7.986  19.769  0.00  0.00    +0.000 A 
ENDBRANCH   1   4
BRANCH   1  15
ATOM     14  N   UNL     1       5.346   5.496  17.844  0.00  0.00    +0.000 N 
ATOM     15  C   UNL     1       4.437   5.513  18.918  0.00  0.00    +0.000 C 
ATOM     16  O   UNL     1       4.790   5.197  20.056  0.00  0.00    +0.000 OA
BRANCH  14  18
ATOM     17  C   UNL     1       7.598   6.461  18.284  0.00  0.00    +0.000 C 
ATOM     18  C   UNL     1       6.751   5.200  18.158  0.00  0.00    +0.000 C 
ENDBRANCH  14  18
BRANCH  14  19
ATOM     19  C   UNL     1       4.982   5.965  16.508  0.00  0.00    +0.000 C 
ATOM     20  C   UNL     1       5.567   5.254  15.293  0.00  0.00    +0.000 C 
ENDBRANCH  14  19
ENDBRANCH   1  15
BRANCH   3  21
ATOM     21  C   UNL     1       2.215   3.785  17.237  0.00  0.00    +0.000 C 
BRANCH  21  22
ATOM     22  N   UNL     1       2.112   2.667  18.166  0.00  0.00    +0.000 NA
ATOM     23  H   UNL     1       2.431   1.816  17.699  0.00  0.00    +0.000 HD
ATOM     24  H   UNL     1       1.126   2.506  18.365  0.00  0.00    +0.000 HD
ENDBRANCH  21  22
ENDBRANCH   3  21
TORSDOF 6
ENDMDL
MODEL 6
REMARK VINA RESULT:      -6.6      2.700      5.378
REMARK  Name = 
REMARK  8 active torsions:
REMARK  status: ('A' for Active; 'I' for Inactive)
REMARK    1  A    between atoms: C_1  and  C_2
REMARK    2  A    between atoms: C_2  and  N_3
REMARK    3  A    between atoms: N_3  and  C_4
REMARK    4  A    between atoms: C_4  and  C_5
REMARK    5  A    between atoms: C_6  and  C_8
REMARK    6  A    between atoms: C_8  and  C_9
REMARK    7  A    between atoms: C_20  and  C_21
REMARK    8  A    between atoms: C_21  and  N_22
REMARK                            x       y       z     vdW  Elec       q    Type
REMARK                         _______ _______ _______ _____ _____    ______ ____
ROOT
ATOM      1  C   UNL     1       3.649   4.361  18.795  0.00  0.00    +0.000 C 
ATOM      2  C   UNL     1       2.791   3.846  17.598  0.00  0.00    +0.000 C 
ATOM      3  C   UNL     1       3.509   2.854  18.438  0.00  0.00    +0.000 C 
ENDROOT
BRANCH   1   4
ATOM      4  C   UNL     1       5.033   4.949  18.367  0.00  0.00    +0.000 A 
ATOM      5  C   UNL     1       5.955   5.312  19.380  0.00  0.00    +0.000 A 
ATOM      6  C   UNL     1       7.294   5.559  19.116  0.00  0.00    +0.000 A 
ATOM      7  C   UNL     1       7.771   5.391  17.820  0.00  0.00    +0.000 A 
ATOM      8  C   UNL     1       6.902   5.042  16.777  0.00  0.00    +0.000 A 
ATOM      9  C   UNL     1       7.417   4.794  15.496  0.00  0.00    +0.000 A 
ATOM     10  C   UNL     1       6.580   4.428  14.446  0.00  0.00    +0.000 A 
ATOM     11  C   UNL     1       5.212   4.361  14.652  0.00  0.00    +0.000 A 
ATOM     12  C   UNL     1       4.685   4.597  15.919  0.00  0.00    +0.000 A 
ATOM     13  C   UNL     1       5.513   4.888  17.025  0.00  0.00    +0.000 A 
ENDBRANCH   1   4
BRANCH   1  15
ATOM     14  N   UNL     1       2.163   6.276  19.619  0.00  0.00    +0.000 N 
ATOM     15  C   UNL     1       2.816   5.055  19.870  0.00  0.00    +0.000 C 
ATOM     16  O   UNL     1       2.740   4.507  20.972  0.00  0.00    +0.000 OA
BRANCH  14  18
ATOM     17  C   UNL     1       1.417   8.316  20.836  0.00  0.00    +0.000 C 
ATOM     18  C   UNL     1       1.297   6.804  20.682  0.00  0.00    +0.000 C 
ENDBRANCH  14  18
BRANCH  14  19
ATOM     19  C   UNL     1       2.150   6.893  18.294  0.00  0.00    +0.000 C 
ATOM     20  C   UNL     1       3.267   7.863  17.923  0.00  0.00    +0.000 C 
ENDBRANCH  14  19
ENDBRANCH   1  15
BRANCH   3  21
ATOM     21  C   UNL     1       2.712   1.851  19.184  0.00  0.00    +0.000 C 
BRANCH  21  22
ATOM     22  N   UNL     1       1.396   1.773  18.562  0.00  0.00    +0.000 NA
ATOM     23  H   UNL     1       1.499   1.876  17.551  0.00  0.00    +0.000 HD
ATOM     24  H   UNL     1       0.854   2.585  18.857  0.00  0.00    +0.000 HD
ENDBRANCH  21  22
ENDBRANCH   3  21
TORSDOF 6
ENDMDL
MODEL 7
REMARK VINA RESULT:      -6.5      6.638      9.849
REMARK  Name = 
REMARK  8 active torsions:
REMARK  status: ('A' for Active; 'I' for Inactive)
REMARK    1  A    between atoms: C_1  and  C_2
REMARK    2  A    between atoms: C_2  and  N_3
REMARK    3  A    between atoms: N_3  and  C_4
REMARK    4  A    between atoms: C_4  and  C_5
REMARK    5  A    between atoms: C_6  and  C_8
REMARK    6  A    between atoms: C_8  and  C_9
REMARK    7  A    between atoms: C_20  and  C_21
REMARK    8  A    between atoms: C_21  and  N_22
REMARK                            x       y       z     vdW  Elec       q    Type
REMARK                         _______ _______ _______ _____ _____    ______ ____
ROOT
ATOM      1  C   UNL     1      -0.891  12.332  20.284  0.00  0.00    +0.000 C 
ATOM      2  C   UNL     1      -0.455  13.654  20.989  0.00  0.00    +0.000 C 
ATOM      3  C   UNL     1       0.074  13.362  19.632  0.00  0.00    +0.000 C 
ENDROOT
BRANCH   1   4
ATOM      4  C   UNL     1      -0.143  11.064  20.810  0.00  0.00    +0.000 A 
ATOM      5  C   UNL     1      -0.545  10.509  22.049  0.00  0.00    +0.000 A 
ATOM      6  C   UNL     1      -0.159   9.240  22.459  0.00  0.00    +0.000 A 
ATOM      7  C   UNL     1       0.605   8.456  21.601  0.00  0.00    +0.000 A 
ATOM      8  C   UNL     1       1.038   8.958  20.367  0.00  0.00    +0.000 A 
ATOM      9  C   UNL     1       1.735   8.122  19.481  0.00  0.00    +0.000 A 
ATOM     10  C   UNL     1       2.161   8.588  18.241  0.00  0.00    +0.000 A 
ATOM     11  C   UNL     1       1.946   9.912  17.897  0.00  0.00    +0.000 A 
ATOM     12  C   UNL     1       1.251  10.755  18.761  0.00  0.00    +0.000 A 
ATOM     13  C   UNL     1       0.731  10.291  19.990  0.00  0.00    +0.000 A 
ENDBRANCH   1   4
BRANCH   1  15
ATOM     14  N   UNL     1      -2.878  11.877  18.735  0.00  0.00    +0.000 N 
ATOM     15  C   UNL     1      -2.389  12.278  19.992  0.00  0.00    +0.000 C 
ATOM     16  O   UNL     1      -3.158  12.603  20.899  0.00  0.00    +0.000 OA
BRANCH  14  18
ATOM     17  C   UNL     1      -4.784  11.800  17.134  0.00  0.00    +0.000 C 
ATOM     18  C   UNL     1      -4.335  11.750  18.590  0.00  0.00    +0.000 C 
ENDBRANCH  14  18
BRANCH  14  19
ATOM     19  C   UNL     1      -1.996  11.387  17.677  0.00  0.00    +0.000 C 
ATOM     20  C   UNL     1      -1.898   9.883  17.438  0.00  0.00    +0.000 C 
ENDBRANCH  14  19
ENDBRANCH   1  15
BRANCH   3  21
ATOM     21  C   UNL     1      -0.259  14.294  18.528  0.00  0.00    +0.000 C 
BRANCH  21  22
ATOM     22  N   UNL     1      -0.897  15.468  19.111  0.00  0.00    +0.000 NA
ATOM     23  H   UNL     1      -1.889  15.462  18.868  0.00  0.00    +0.000 HD
ATOM     24  H   UNL     1      -0.517  16.298  18.656  0.00  0.00    +0.000 HD
ENDBRANCH  21  22
ENDBRANCH   3  21
TORSDOF 6
ENDMDL
MODEL 8
REMARK VINA RESULT:      -6.5      1.822      4.457
REMARK  Name = 
REMARK  8 active torsions:
REMARK  status: ('A' for Active; 'I' for Inactive)
REMARK    1  A    between atoms: C_1  and  C_2
REMARK    2  A    between atoms: C_2  and  N_3
REMARK    3  A    between atoms: N_3  and  C_4
REMARK    4  A    between atoms: C_4  and  C_5
REMARK    5  A    between atoms: C_6  and  C_8
REMARK    6  A    between atoms: C_8  and  C_9
REMARK    7  A    between atoms: C_20  and  C_21
REMARK    8  A    between atoms: C_21  and  N_22
REMARK                            x       y       z     vdW  Elec       q    Type
REMARK                         _______ _______ _______ _____ _____    ______ ____
ROOT
ATOM      1  C   UNL     1       6.211   5.501  17.937  0.00  0.00    +0.000 C 
ATOM      2  C   UNL     1       6.895   6.887  18.149  0.00  0.00    +0.000 C 
ATOM      3  C   UNL     1       7.031   5.855  19.209  0.00  0.00    +0.000 C 
ENDROOT
BRANCH   1   4
ATOM      4  C   UNL     1       4.669   5.515  18.199  0.00  0.00    +0.000 A 
ATOM      5  C   UNL     1       3.974   6.743  18.073  0.00  0.00    +0.000 A 
ATOM      6  C   UNL     1       2.591   6.813  17.993  0.00  0.00    +0.000 A 
ATOM      7  C   UNL     1       1.854   5.633  17.979  0.00  0.00    +0.000 A 
ATOM      8  C   UNL     1       2.489   4.391  18.110  0.00  0.00    +0.000 A 
ATOM      9  C   UNL     1       1.736   3.212  18.007  0.00  0.00    +0.000 A 
ATOM     10  C   UNL     1       2.342   1.963  18.115  0.00  0.00    +0.000 A 
ATOM     11  C   UNL     1       3.699   1.882  18.383  0.00  0.00    +0.000 A 
ATOM     12  C   UNL     1       4.462   3.043  18.482  0.00  0.00    +0.000 A 
ATOM     13  C   UNL     1       3.894   4.322  18.294  0.00  0.00    +0.000 A 
ENDBRANCH   1   4
BRANCH   1  15
ATOM     14  N   UNL     1       6.143   4.727  15.497  0.00  0.00    +0.000 N 
ATOM     15  C   UNL     1       6.784   4.728  16.751  0.00  0.00    +0.000 C 
ATOM     16  O   UNL     1       7.828   4.100  16.932  0.00  0.00    +0.000 OA
BRANCH  14  18
ATOM     17  C   UNL     1       5.893   3.699  13.244  0.00  0.00    +0.000 C 
ATOM     18  C   UNL     1       6.832   4.046  14.392  0.00  0.00    +0.000 C 
ENDBRANCH  14  18
BRANCH  14  19
ATOM     19  C   UNL     1       4.963   5.546  15.225  0.00  0.00    +0.000 C 
ATOM     20  C   UNL     1       5.155   7.009  14.841  0.00  0.00    +0.000 C 
ENDBRANCH  14  19
ENDBRANCH   1  15
BRANCH   3  21
ATOM     21  C   UNL     1       8.388   5.357  19.539  0.00  0.00    +0.000 C 
BRANCH  21  22
ATOM     22  N   UNL     1       8.457   5.171  20.984  0.00  0.00    +0.000 NA
ATOM     23  H   UNL     1       9.142   4.443  21.192  0.00  0.00    +0.000 HD
ATOM     24  H   UNL     1       7.565   4.794  21.301  0.00  0.00    +0.000 HD
ENDBRANCH  21  22
ENDBRANCH   3  21
TORSDOF 6
ENDMDL
MODEL 9
REMARK VINA RESULT:      -6.5      1.015      1.358
REMARK  Name = 
REMARK  8 active torsions:
REMARK  status: ('A' for Active; 'I' for Inactive)
REMARK    1  A    between atoms: C_1  and  C_2
REMARK    2  A    between atoms: C_2  and  N_3
REMARK    3  A    between atoms: N_3  and  C_4
REMARK    4  A    between atoms: C_4  and  C_5
REMARK    5  A    between atoms: C_6  and  C_8
REMARK    6  A    between atoms: C_8  and  C_9
REMARK    7  A    between atoms: C_20  and  C_21
REMARK    8  A    between atoms: C_21  and  N_22
REMARK                            x       y       z     vdW  Elec       q    Type
REMARK                         _______ _______ _______ _____ _____    ______ ____
ROOT
ATOM      1  C   UNL     1       5.075   5.219  16.875  0.00  0.00    +0.000 C 
ATOM      2  C   UNL     1       5.901   3.905  16.721  0.00  0.00    +0.000 C 
ATOM      3  C   UNL     1       4.826   4.190  15.737  0.00  0.00    +0.000 C 
ENDROOT
BRANCH   1   4
ATOM      4  C   UNL     1       3.984   5.147  17.993  0.00  0.00    +0.000 A 
ATOM      5  C   UNL     1       3.989   4.035  18.871  0.00  0.00    +0.000 A 
ATOM      6  C   UNL     1       3.269   4.017  20.057  0.00  0.00    +0.000 A 
ATOM      7  C   UNL     1       2.556   5.152  20.432  0.00  0.00    +0.000 A 
ATOM      8  C   UNL     1       2.508   6.276  19.598  0.00  0.00    +0.000 A 
ATOM      9  C   UNL     1       1.856   7.439  20.034  0.00  0.00    +0.000 A 
ATOM     10  C   UNL     1       1.808   8.577  19.235  0.00  0.00    +0.000 A 
ATOM     11  C   UNL     1       2.364   8.546  17.966  0.00  0.00    +0.000 A 
ATOM     12  C   UNL     1       3.021   7.402  17.519  0.00  0.00    +0.000 A 
ATOM     13  C   UNL     1       3.161   6.260  18.338  0.00  0.00    +0.000 A 
ENDBRANCH   1   4
BRANCH   1  15
ATOM     14  N   UNL     1       6.811   6.907  17.707  0.00  0.00    +0.000 N 
ATOM     15  C   UNL     1       5.921   6.479  16.704  0.00  0.00    +0.000 C 
ATOM     16  O   UNL     1       5.792   7.113  15.655  0.00  0.00    +0.000 OA
BRANCH  14  18
ATOM     17  C   UNL     1       8.477   8.527  18.602  0.00  0.00    +0.000 C 
ATOM     18  C   UNL     1       7.660   8.067  17.400  0.00  0.00    +0.000 C 
ENDBRANCH  14  18
BRANCH  14  19
ATOM     19  C   UNL     1       7.061   6.121  18.913  0.00  0.00    +0.000 C 
ATOM     20  C   UNL     1       8.181   5.085  18.898  0.00  0.00    +0.000 C 
ENDBRANCH  14  19
ENDBRANCH   1  15
BRANCH   3  21
ATOM     21  C   UNL     1       5.199   4.357  14.312  0.00  0.00    +0.000 C 
BRANCH  21  22
ATOM     22  N   UNL     1       6.371   3.528  14.056  0.00  0.00    +0.000 NA
ATOM     23  H   UNL     1       6.519   2.907  14.852  0.00  0.00    +0.000 HD
ATOM     24  H   UNL     1       7.191   4.132  14.035  0.00  0.00    +0.000 HD
ENDBRANCH  21  22
ENDBRANCH   3  21
TORSDOF 6
ENDMDL
