MODEL 1
REMARK VINA RESULT:      -9.6      0.000      0.000
REMARK  Name = 
REMARK  8 active torsions:
REMARK  status: ('A' for Active; 'I' for Inactive)
REMARK    1  A    between atoms: C_1  and  C_2
REMARK    2  A    between atoms: C_4  and  C_5
REMARK    3  A    between atoms: N_14  and  C_15
REMARK    4  A    between atoms: C_15  and  C_16
REMARK    5  A    between atoms: C_16  and  O_17
REMARK    6  A    between atoms: C_21  and  C_23
REMARK    7  A    between atoms: C_23  and  C_24
REMARK    8  A    between atoms: C_24  and  C_25
REMARK                            x       y       z     vdW  Elec       q    Type
REMARK                         _______ _______ _______ _____ _____    ______ ____
ROOT
ATOM      1  C   UNL     1       4.671   4.375  18.560  0.00  0.00    +0.000 C 
ATOM      2  C   UNL     1       5.186   4.500  17.102  0.00  0.00    +0.000 C 
ATOM      3  C   UNL     1       6.729   4.644  17.070  0.00  0.00    +0.000 C 
ATOM      4  N   UNL     1       7.174   5.727  17.956  0.00  0.00    +0.000 N 
ATOM      5  C   UNL     1       7.797   6.858  17.452  0.00  0.00    +0.000 C 
ATOM      6  O   UNL     1       8.047   6.996  16.255  0.00  0.00    +0.000 OA
ATOM      7  C   UNL     1       6.741   5.580  19.334  0.00  0.00    +0.000 C 
ATOM      8  C   UNL     1       5.229   5.553  19.360  0.00  0.00    +0.000 C 
ENDROOT
BRANCH   1   9
ATOM      9  O   UNL     1       5.220   3.160  19.087  0.00  0.00    +0.000 OA
ATOM     10  H   UNL     1       6.105   3.020  18.688  0.00  0.00    +0.000 HD
ENDBRANCH   1   9
BRANCH   1  11
ATOM     11  C   UNL     1       3.112   4.358  18.711  0.00  0.00    +0.000 C 
BRANCH  11  19
ATOM     12  C   UNL     1       3.174   7.165  17.431  0.00  0.00    +0.000 C 
ATOM     13  C   UNL     1       2.539   6.857  18.783  0.00  0.00    +0.000 A 
ATOM     14  N   UNL     1       2.020   7.892  19.350  0.00  0.00    +0.000 NA
ATOM     15  C   UNL     1       1.418   7.750  20.557  0.00  0.00    +0.000 A 
ATOM     16  C   UNL     1       1.375   6.600  21.227  0.00  0.00    +0.000 A 
ATOM     17  C   UNL     1       2.007   5.417  20.610  0.00  0.00    +0.000 A 
ATOM     18  O   UNL     1       1.998   4.344  21.209  0.00  0.00    +0.000 OA
ATOM     19  N   UNL     1       2.546   5.602  19.331  0.00  0.00    +0.000 N 
BRANCH  15  20
ATOM     20  C   UNL     1       0.775   8.949  21.117  0.00  0.00    +0.000 A 
ATOM     21  C   UNL     1       0.556  10.075  20.315  0.00  0.00    +0.000 A 
ATOM     22  C   UNL     1      -0.074  11.204  20.844  0.00  0.00    +0.000 A 
ATOM     23  C   UNL     1      -0.498  11.210  22.173  0.00  0.00    +0.000 A 
ATOM     24  C   UNL     1      -0.304  10.084  22.973  0.00  0.00    +0.000 A 
ATOM     25  C   UNL     1       0.327   8.954  22.444  0.00  0.00    +0.000 A 
ENDBRANCH  15  20
ENDBRANCH  11  19
ENDBRANCH   1  11
BRANCH   5  26
ATOM     26  C   UNL     1       8.155   7.941  18.467  0.00  0.00    +0.000 C 
BRANCH  26  27
ATOM     27  C   UNL     1       8.129   9.348  17.878  0.00  0.00    +0.000 C 
BRANCH  27  28
ATOM     28  C   UNL     1       9.139  10.250  18.554  0.00  0.00    +0.000 A 
ATOM     29  C   UNL     1       9.139  10.382  19.950  0.00  0.00    +0.000 A 
ATOM     30  C   UNL     1      10.052  11.226  20.584  0.00  0.00    +0.000 A 
ATOM     31  C   UNL     1      10.972  11.951  19.830  0.00  0.00    +0.000 A 
ATOM     32  C   UNL     1      10.981  11.829  18.441  0.00  0.00    +0.000 A 
ATOM     33  C   UNL     1      10.066  10.986  17.806  0.00  0.00    +0.000 A 
ENDBRANCH  27  28
ENDBRANCH  26  27
ENDBRANCH   5  26
TORSDOF 7
ENDMDL
MODEL 2
REMARK VINA RESULT:      -9.6      0.101      1.210
REMARK  Name = 
REMARK  8 active torsions:
REMARK  status: ('A' for Active; 'I' for Inactive)
REMARK    1  A    between atoms: C_1  and  C_2
REMARK    2  A    between atoms: C_4  and  C_5
REMARK    3  A    between atoms: N_14  and  C_15
REMARK    4  A    between atoms: C_15  and  C_16
REMARK    5  A    between atoms: C_16  and  O_17
REMARK    6  A    between atoms: C_21  and  C_23
REMARK    7  A    between atoms: C_23  and  C_24
REMARK    8  A    between atoms: C_24  and  C_25
REMARK                            x       y       z     vdW  Elec       q    Type
REMARK                         _______ _______ _______ _____ _____    ______ ____
ROOT
ATOM      1  C   UNL     1       4.729   4.393  18.519  0.00  0.00    +0.000 C 
ATOM      2  C   UNL     1       5.249   4.532  17.064  0.00  0.00    +0.000 C 
ATOM      3  C   UNL     1       6.791   4.686  17.039  0.00  0.00    +0.000 C 
ATOM      4  N   UNL     1       7.225   5.767  17.933  0.00  0.00    +0.000 N 
ATOM      5  C   UNL     1       7.841   6.906  17.438  0.00  0.00    +0.000 C 
ATOM      6  O   UNL     1       8.095   7.053  16.242  0.00  0.00    +0.000 OA
ATOM      7  C   UNL     1       6.787   5.609  19.308  0.00  0.00    +0.000 C 
ATOM      8  C   UNL     1       5.275   5.571  19.328  0.00  0.00    +0.000 C 
ENDROOT
BRANCH   1   9
ATOM      9  O   UNL     1       5.285   3.180  19.040  0.00  0.00    +0.000 OA
ATOM     10  H   UNL     1       6.175   3.375  19.402  0.00  0.00    +0.000 HD
ENDBRANCH   1   9
BRANCH   1  11
ATOM     11  C   UNL     1       3.170   4.365  18.663  0.00  0.00    +0.000 C 
BRANCH  11  19
ATOM     12  C   UNL     1       3.225   7.163  17.364  0.00  0.00    +0.000 C 
ATOM     13  C   UNL     1       2.580   6.860  18.712  0.00  0.00    +0.000 A 
ATOM     14  N   UNL     1       2.050   7.895  19.267  0.00  0.00    +0.000 NA
ATOM     15  C   UNL     1       1.438   7.758  20.470  0.00  0.00    +0.000 A 
ATOM     16  C   UNL     1       1.397   6.613  21.148  0.00  0.00    +0.000 A 
ATOM     17  C   UNL     1       2.041   5.430  20.545  0.00  0.00    +0.000 A 
ATOM     18  O   UNL     1       2.034   4.360  21.151  0.00  0.00    +0.000 OA
ATOM     19  N   UNL     1       2.590   5.609  19.270  0.00  0.00    +0.000 N 
BRANCH  15  20
ATOM     20  C   UNL     1       0.782   8.957  21.016  0.00  0.00    +0.000 A 
ATOM     21  C   UNL     1       0.303   8.964  22.331  0.00  0.00    +0.000 A 
ATOM     22  C   UNL     1      -0.299  10.111  22.855  0.00  0.00    +0.000 A 
ATOM     23  C   UNL     1      -0.415  11.259  22.072  0.00  0.00    +0.000 A 
ATOM     24  C   UNL     1       0.082  11.269  20.769  0.00  0.00    +0.000 A 
ATOM     25  C   UNL     1       0.684  10.121  20.244  0.00  0.00    +0.000 A 
ENDBRANCH  15  20
ENDBRANCH  11  19
ENDBRANCH   1  11
BRANCH   5  26
ATOM     26  C   UNL     1       8.188   7.986  18.461  0.00  0.00    +0.000 C 
BRANCH  26  27
ATOM     27  C   UNL     1       8.144   9.396  17.882  0.00  0.00    +0.000 C 
BRANCH  27  28
ATOM     28  C   UNL     1       9.170  10.295  18.537  0.00  0.00    +0.000 A 
ATOM     29  C   UNL     1      10.136  10.945  17.756  0.00  0.00    +0.000 A 
ATOM     30  C   UNL     1      11.100  11.762  18.350  0.00  0.00    +0.000 A 
ATOM     31  C   UNL     1      11.111  11.934  19.733  0.00  0.00    +0.000 A 
ATOM     32  C   UNL     1      10.157  11.292  20.521  0.00  0.00    +0.000 A 
ATOM     33  C   UNL     1       9.193  10.474  19.926  0.00  0.00    +0.000 A 
ENDBRANCH  27  28
ENDBRANCH  26  27
ENDBRANCH   5  26
TORSDOF 7
ENDMDL
MODEL 3
REMARK VINA RESULT:      -9.1      1.011      1.535
REMARK  Name = 
REMARK  8 active torsions:
REMARK  status: ('A' for Active; 'I' for Inactive)
REMARK    1  A    between atoms: C_1  and  C_2
REMARK    2  A    between atoms: C_4  and  C_5
REMARK    3  A    between atoms: N_14  and  C_15
REMARK    4  A    between atoms: C_15  and  C_16
REMARK    5  A    between atoms: C_16  and  O_17
REMARK    6  A    between atoms: C_21  and  C_23
REMARK    7  A    between atoms: C_23  and  C_24
REMARK    8  A    between atoms: C_24  and  C_25
REMARK                            x       y       z     vdW  Elec       q    Type
REMARK                         _______ _______ _______ _____ _____    ______ ____
ROOT
ATOM      1  C   UNL     1       4.829   4.239  18.522  0.00  0.00    +0.000 C 
ATOM      2  C   UNL     1       5.395   4.332  17.080  0.00  0.00    +0.000 C 
ATOM      3  C   UNL     1       6.925   4.576  17.101  0.00  0.00    +0.000 C 
ATOM      4  N   UNL     1       7.264   5.724  17.950  0.00  0.00    +0.000 N 
ATOM      5  C   UNL     1       7.833   6.870  17.417  0.00  0.00    +0.000 C 
ATOM      6  O   UNL     1       8.123   6.971  16.225  0.00  0.00    +0.000 OA
ATOM      7  C   UNL     1       6.785   5.611  19.316  0.00  0.00    +0.000 C 
ATOM      8  C   UNL     1       5.277   5.486  19.286  0.00  0.00    +0.000 C 
ENDROOT
BRANCH   1   9
ATOM      9  O   UNL     1       5.433   3.088  19.127  0.00  0.00    +0.000 OA
ATOM     10  H   UNL     1       5.736   2.485  18.415  0.00  0.00    +0.000 HD
ENDBRANCH   1   9
BRANCH   1  11
ATOM     11  C   UNL     1       3.270   4.127  18.614  0.00  0.00    +0.000 C 
BRANCH  11  19
ATOM     12  C   UNL     1       2.023   4.156  21.436  0.00  0.00    +0.000 C 
ATOM     13  C   UNL     1       2.064   5.365  20.509  0.00  0.00    +0.000 A 
ATOM     14  N   UNL     1       1.524   6.418  21.019  0.00  0.00    +0.000 NA
ATOM     15  C   UNL     1       1.501   7.565  20.295  0.00  0.00    +0.000 A 
ATOM     16  C   UNL     1       1.962   7.658  19.050  0.00  0.00    +0.000 A 
ATOM     17  C   UNL     1       2.540   6.448  18.435  0.00  0.00    +0.000 A 
ATOM     18  O   UNL     1       2.962   6.495  17.281  0.00  0.00    +0.000 OA
ATOM     19  N   UNL     1       2.609   5.313  19.253  0.00  0.00    +0.000 N 
BRANCH  15  20
ATOM     20  C   UNL     1       0.942   8.753  20.961  0.00  0.00    +0.000 A 
ATOM     21  C   UNL     1       0.908   9.985  20.297  0.00  0.00    +0.000 A 
ATOM     22  C   UNL     1       0.357  11.106  20.923  0.00  0.00    +0.000 A 
ATOM     23  C   UNL     1      -0.171  11.000  22.209  0.00  0.00    +0.000 A 
ATOM     24  C   UNL     1      -0.162   9.771  22.868  0.00  0.00    +0.000 A 
ATOM     25  C   UNL     1       0.389   8.649  22.242  0.00  0.00    +0.000 A 
ENDBRANCH  15  20
ENDBRANCH  11  19
ENDBRANCH   1  11
BRANCH   5  26
ATOM     26  C   UNL     1       8.079   8.019  18.392  0.00  0.00    +0.000 C 
BRANCH  26  27
ATOM     27  C   UNL     1       7.948   9.394  17.745  0.00  0.00    +0.000 C 
BRANCH  27  28
ATOM     28  C   UNL     1       8.844  10.411  18.418  0.00  0.00    +0.000 A 
ATOM     29  C   UNL     1       9.361  10.156  19.696  0.00  0.00    +0.000 A 
ATOM     30  C   UNL     1      10.173  11.094  20.335  0.00  0.00    +0.000 A 
ATOM     31  C   UNL     1      10.474  12.299  19.705  0.00  0.00    +0.000 A 
ATOM     32  C   UNL     1       9.965  12.566  18.435  0.00  0.00    +0.000 A 
ATOM     33  C   UNL     1       9.151  11.627  17.795  0.00  0.00    +0.000 A 
ENDBRANCH  27  28
ENDBRANCH  26  27
ENDBRANCH   5  26
TORSDOF 7
ENDMDL
MODEL 4
REMARK VINA RESULT:      -9.1      1.028      1.927
REMARK  Name = 
REMARK  8 active torsions:
REMARK  status: ('A' for Active; 'I' for Inactive)
REMARK    1  A    between atoms: C_1  and  C_2
REMARK    2  A    between atoms: C_4  and  C_5
REMARK    3  A    between atoms: N_14  and  C_15
REMARK    4  A    between atoms: C_15  and  C_16
REMARK    5  A    between atoms: C_16  and  O_17
REMARK    6  A    between atoms: C_21  and  C_23
REMARK    7  A    between atoms: C_23  and  C_24
REMARK    8  A    between atoms: C_24  and  C_25
REMARK                            x       y       z     vdW  Elec       q    Type
REMARK                         _______ _______ _______ _____ _____    ______ ____
ROOT
ATOM      1  C   UNL     1       4.837   4.171  18.511  0.00  0.00    +0.000 C 
ATOM      2  C   UNL     1       5.398   4.273  17.068  0.00  0.00    +0.000 C 
ATOM      3  C   UNL     1       6.927   4.524  17.084  0.00  0.00    +0.000 C 
ATOM      4  N   UNL     1       7.262   5.671  17.937  0.00  0.00    +0.000 N 
ATOM      5  C   UNL     1       7.824   6.822  17.408  0.00  0.00    +0.000 C 
ATOM      6  O   UNL     1       8.109   6.929  16.215  0.00  0.00    +0.000 OA
ATOM      7  C   UNL     1       6.788   5.550  19.304  0.00  0.00    +0.000 C 
ATOM      8  C   UNL     1       5.281   5.417  19.278  0.00  0.00    +0.000 C 
ENDROOT
BRANCH   1   9
ATOM      9  O   UNL     1       5.448   3.021  19.108  0.00  0.00    +0.000 OA
ATOM     10  H   UNL     1       5.119   2.936  20.028  0.00  0.00    +0.000 HD
ENDBRANCH   1   9
BRANCH   1  11
ATOM     11  C   UNL     1       3.279   4.050  18.607  0.00  0.00    +0.000 C 
BRANCH  11  19
ATOM     12  C   UNL     1       1.944   4.073  21.388  0.00  0.00    +0.000 C 
ATOM     13  C   UNL     1       2.028   5.288  20.472  0.00  0.00    +0.000 A 
ATOM     14  N   UNL     1       1.484   6.344  20.974  0.00  0.00    +0.000 NA
ATOM     15  C   UNL     1       1.497   7.496  20.259  0.00  0.00    +0.000 A 
ATOM     16  C   UNL     1       1.998   7.593  19.029  0.00  0.00    +0.000 A 
ATOM     17  C   UNL     1       2.582   6.381  18.423  0.00  0.00    +0.000 A 
ATOM     18  O   UNL     1       3.040   6.432  17.284  0.00  0.00    +0.000 OA
ATOM     19  N   UNL     1       2.612   5.239  19.234  0.00  0.00    +0.000 N 
BRANCH  15  20
ATOM     20  C   UNL     1       0.932   8.685  20.916  0.00  0.00    +0.000 A 
ATOM     21  C   UNL     1       0.496   8.619  22.245  0.00  0.00    +0.000 A 
ATOM     22  C   UNL     1      -0.020   9.756  22.874  0.00  0.00    +0.000 A 
ATOM     23  C   UNL     1      -0.093  10.965  22.182  0.00  0.00    +0.000 A 
ATOM     24  C   UNL     1       0.361  11.045  20.866  0.00  0.00    +0.000 A 
ATOM     25  C   UNL     1       0.877   9.908  20.237  0.00  0.00    +0.000 A 
ENDBRANCH  15  20
ENDBRANCH  11  19
ENDBRANCH   1  11
BRANCH   5  26
ATOM     26  C   UNL     1       8.067   7.968  18.387  0.00  0.00    +0.000 C 
BRANCH  26  27
ATOM     27  C   UNL     1       7.852   9.344  17.765  0.00  0.00    +0.000 C 
BRANCH  27  28
ATOM     28  C   UNL     1       8.746  10.386  18.403  0.00  0.00    +0.000 A 
ATOM     29  C   UNL     1       9.000  11.595  17.740  0.00  0.00    +0.000 A 
ATOM     30  C   UNL     1       9.839  12.555  18.308  0.00  0.00    +0.000 A 
ATOM     31  C   UNL     1      10.435  12.315  19.545  0.00  0.00    +0.000 A 
ATOM     32  C   UNL     1      10.191  11.117  20.214  0.00  0.00    +0.000 A 
ATOM     33  C   UNL     1       9.353  10.155  19.643  0.00  0.00    +0.000 A 
ENDBRANCH  27  28
ENDBRANCH  26  27
ENDBRANCH   5  26
TORSDOF 7
ENDMDL
MODEL 5
REMARK VINA RESULT:      -8.3      4.387      7.896
REMARK  Name = 
REMARK  8 active torsions:
REMARK  status: ('A' for Active; 'I' for Inactive)
REMARK    1  A    between atoms: C_1  and  C_2
REMARK    2  A    between atoms: C_4  and  C_5
REMARK    3  A    between atoms: N_14  and  C_15
REMARK    4  A    between atoms: C_15  and  C_16
REMARK    5  A    between atoms: C_16  and  O_17
REMARK    6  A    between atoms: C_21  and  C_23
REMARK    7  A    between atoms: C_23  and  C_24
REMARK    8  A    between atoms: C_24  and  C_25
REMARK                            x       y       z     vdW  Elec       q    Type
REMARK                         _______ _______ _______ _____ _____    ______ ____
ROOT
ATOM      1  C   UNL     1       0.723  10.200  20.116  0.00  0.00    +0.000 C 
ATOM      2  C   UNL     1       1.223  10.528  18.685  0.00  0.00    +0.000 C 
ATOM      3  C   UNL     1       1.225   9.259  17.795  0.00  0.00    +0.000 C 
ATOM      4  N   UNL     1       1.953   8.162  18.444  0.00  0.00    +0.000 N 
ATOM      5  C   UNL     1       3.119   7.649  17.898  0.00  0.00    +0.000 C 
ATOM      6  O   UNL     1       3.579   8.050  16.829  0.00  0.00    +0.000 OA
ATOM      7  C   UNL     1       1.448   7.816  19.761  0.00  0.00    +0.000 C 
ATOM      8  C   UNL     1       1.556   9.034  20.651  0.00  0.00    +0.000 C 
ENDROOT
BRANCH   1   9
ATOM      9  O   UNL     1      -0.638   9.771  19.988  0.00  0.00    +0.000 OA
ATOM     10  H   UNL     1      -1.224  10.543  20.136  0.00  0.00    +0.000 HD
ENDBRANCH   1   9
BRANCH   1  11
ATOM     11  C   UNL     1       0.808  11.387  21.134  0.00  0.00    +0.000 C 
BRANCH  11  19
ATOM     12  C   UNL     1      -0.809  13.555  19.649  0.00  0.00    +0.000 C 
ATOM     13  C   UNL     1      -1.279  12.862  20.923  0.00  0.00    +0.000 A 
ATOM     14  N   UNL     1      -2.433  13.270  21.329  0.00  0.00    +0.000 NA
ATOM     15  C   UNL     1      -2.967  12.727  22.451  0.00  0.00    +0.000 A 
ATOM     16  C   UNL     1      -2.339  11.823  23.201  0.00  0.00    +0.000 A 
ATOM     17  C   UNL     1      -0.997  11.382  22.774  0.00  0.00    +0.000 A 
ATOM     18  O   UNL     1      -0.385  10.559  23.452  0.00  0.00    +0.000 OA
ATOM     19  N   UNL     1      -0.527  11.916  21.568  0.00  0.00    +0.000 N 
BRANCH  15  20
ATOM     20  C   UNL     1      -4.319  13.174  22.820  0.00  0.00    +0.000 A 
ATOM     21  C   UNL     1      -4.982  12.597  23.910  0.00  0.00    +0.000 A 
ATOM     22  C   UNL     1      -6.257  13.039  24.272  0.00  0.00    +0.000 A 
ATOM     23  C   UNL     1      -6.871  14.066  23.555  0.00  0.00    +0.000 A 
ATOM     24  C   UNL     1      -6.208  14.663  22.483  0.00  0.00    +0.000 A 
ATOM     25  C   UNL     1      -4.931  14.221  22.120  0.00  0.00    +0.000 A 
ENDBRANCH  15  20
ENDBRANCH  11  19
ENDBRANCH   1  11
BRANCH   5  26
ATOM     26  C   UNL     1       3.817   6.554  18.701  0.00  0.00    +0.000 C 
BRANCH  26  27
ATOM     27  C   UNL     1       3.555   5.153  18.159  0.00  0.00    +0.000 C 
BRANCH  27  28
ATOM     28  C   UNL     1       2.628   4.373  19.066  0.00  0.00    +0.000 A 
ATOM     29  C   UNL     1       2.802   4.418  20.456  0.00  0.00    +0.000 A 
ATOM     30  C   UNL     1       1.966   3.687  21.302  0.00  0.00    +0.000 A 
ATOM     31  C   UNL     1       0.948   2.901  20.766  0.00  0.00    +0.000 A 
ATOM     32  C   UNL     1       0.765   2.847  19.385  0.00  0.00    +0.000 A 
ATOM     33  C   UNL     1       1.603   3.577  18.538  0.00  0.00    +0.000 A 
ENDBRANCH  27  28
ENDBRANCH  26  27
ENDBRANCH   5  26
TORSDOF 7
ENDMDL
MODEL 6
REMARK VINA RESULT:      -8.2      3.961      6.976
REMARK  Name = 
REMARK  8 active torsions:
REMARK  status: ('A' for Active; 'I' for Inactive)
REMARK    1  A    between atoms: C_1  and  C_2
REMARK    2  A    between atoms: C_4  and  C_5
REMARK    3  A    between atoms: N_14  and  C_15
REMARK    4  A    between atoms: C_15  and  C_16
REMARK    5  A    between atoms: C_16  and  O_17
REMARK    6  A    between atoms: C_21  and  C_23
REMARK    7  A    between atoms: C_23  and  C_24
REMARK    8  A    between atoms: C_24  and  C_25
REMARK                            x       y       z     vdW  Elec       q    Type
REMARK                         _______ _______ _______ _____ _____    ______ ____
ROOT
ATOM      1  C   UNL     1       0.829   9.975  20.112  0.00  0.00    +0.000 C 
ATOM      2  C   UNL     1       1.495  10.161  18.723  0.00  0.00    +0.000 C 
ATOM      3  C   UNL     1       1.487   8.834  17.923  0.00  0.00    +0.000 C 
ATOM      4  N   UNL     1       2.057   7.738  18.716  0.00  0.00    +0.000 N 
ATOM      5  C   UNL     1       3.229   7.105  18.330  0.00  0.00    +0.000 C 
ATOM      6  O   UNL     1       3.825   7.393  17.292  0.00  0.00    +0.000 OA
ATOM      7  C   UNL     1       1.397   7.526  19.991  0.00  0.00    +0.000 C 
ATOM      8  C   UNL     1       1.510   8.795  20.807  0.00  0.00    +0.000 C 
ENDROOT
BRANCH   1   9
ATOM      9  O   UNL     1      -0.542   9.636  19.868  0.00  0.00    +0.000 OA
ATOM     10  H   UNL     1      -0.890  10.229  19.169  0.00  0.00    +0.000 HD
ENDBRANCH   1   9
BRANCH   1  11
ATOM     11  C   UNL     1       0.904  11.223  21.053  0.00  0.00    +0.000 C 
BRANCH  11  19
ATOM     12  C   UNL     1      -0.779  13.248  19.445  0.00  0.00    +0.000 C 
ATOM     13  C   UNL     1      -1.216  12.639  20.772  0.00  0.00    +0.000 A 
ATOM     14  N   UNL     1      -2.372  13.051  21.165  0.00  0.00    +0.000 NA
ATOM     15  C   UNL     1      -2.879  12.579  22.332  0.00  0.00    +0.000 A 
ATOM     16  C   UNL     1      -2.222  11.742  23.134  0.00  0.00    +0.000 A 
ATOM     17  C   UNL     1      -0.877  11.299  22.718  0.00  0.00    +0.000 A 
ATOM     18  O   UNL     1      -0.238  10.539  23.442  0.00  0.00    +0.000 OA
ATOM     19  N   UNL     1      -0.435  11.756  21.470  0.00  0.00    +0.000 N 
BRANCH  15  20
ATOM     20  C   UNL     1      -4.235  13.024  22.690  0.00  0.00    +0.000 A 
ATOM     21  C   UNL     1      -4.966  13.837  21.815  0.00  0.00    +0.000 A 
ATOM     22  C   UNL     1      -6.262  14.240  22.147  0.00  0.00    +0.000 A 
ATOM     23  C   UNL     1      -6.837  13.826  23.348  0.00  0.00    +0.000 A 
ATOM     24  C   UNL     1      -6.124  12.997  24.215  0.00  0.00    +0.000 A 
ATOM     25  C   UNL     1      -4.827  12.593  23.882  0.00  0.00    +0.000 A 
ENDBRANCH  15  20
ENDBRANCH  11  19
ENDBRANCH   1  11
BRANCH   5  26
ATOM     26  C   UNL     1       3.754   6.025  19.272  0.00  0.00    +0.000 C 
BRANCH  26  27
ATOM     27  C   UNL     1       3.787   4.638  18.636  0.00  0.00    +0.000 C 
BRANCH  27  28
ATOM     28  C   UNL     1       4.961   4.489  17.693  0.00  0.00    +0.000 A 
ATOM     29  C   UNL     1       6.264   4.740  18.147  0.00  0.00    +0.000 A 
ATOM     30  C   UNL     1       7.353   4.624  17.282  0.00  0.00    +0.000 A 
ATOM     31  C   UNL     1       7.152   4.261  15.952  0.00  0.00    +0.000 A 
ATOM     32  C   UNL     1       5.861   4.011  15.488  0.00  0.00    +0.000 A 
ATOM     33  C   UNL     1       4.770   4.128  16.353  0.00  0.00    +0.000 A 
ENDBRANCH  27  28
ENDBRANCH  26  27
ENDBRANCH   5  26
TORSDOF 7
ENDMDL
MODEL 7
REMARK VINA RESULT:      -8.1      4.756     10.258
REMARK  Name = 
REMARK  8 active torsions:
REMARK  status: ('A' for Active; 'I' for Inactive)
REMARK    1  A    between atoms: C_1  and  C_2
REMARK    2  A    between atoms: C_4  and  C_5
REMARK    3  A    between atoms: N_14  and  C_15
REMARK    4  A    between atoms: C_15  and  C_16
REMARK    5  A    between atoms: C_16  and  O_17
REMARK    6  A    between atoms: C_21  and  C_23
REMARK    7  A    between atoms: C_23  and  C_24
REMARK    8  A    between atoms: C_24  and  C_25
REMARK                            x       y       z     vdW  Elec       q    Type
REMARK                         _______ _______ _______ _____ _____    ______ ____
ROOT
ATOM      1  C   UNL     1      -0.254  11.460  19.008  0.00  0.00    +0.000 C 
ATOM      2  C   UNL     1      -1.125  10.341  18.379  0.00  0.00    +0.000 C 
ATOM      3  C   UNL     1      -2.318  10.943  17.595  0.00  0.00    +0.000 C 
ATOM      4  N   UNL     1      -3.071  11.888  18.428  0.00  0.00    +0.000 N 
ATOM      5  C   UNL     1      -4.387  11.641  18.787  0.00  0.00    +0.000 C 
ATOM      6  O   UNL     1      -5.003  10.649  18.397  0.00  0.00    +0.000 OA
ATOM      7  C   UNL     1      -2.268  12.969  18.969  0.00  0.00    +0.000 C 
ATOM      8  C   UNL     1      -1.173  12.371  19.824  0.00  0.00    +0.000 C 
ENDROOT
BRANCH   1   9
ATOM      9  O   UNL     1       0.293  12.216  17.920  0.00  0.00    +0.000 OA
ATOM     10  H   UNL     1      -0.436  12.455  17.310  0.00  0.00    +0.000 HD
ENDBRANCH   1   9
BRANCH   1  11
ATOM     11  C   UNL     1       0.904  10.955  19.934  0.00  0.00    +0.000 C 
BRANCH  11  19
ATOM     12  C   UNL     1       0.574   8.427  21.672  0.00  0.00    +0.000 C 
ATOM     13  C   UNL     1       1.272   8.446  20.317  0.00  0.00    +0.000 A 
ATOM     14  N   UNL     1       1.717   7.291  19.957  0.00  0.00    +0.000 NA
ATOM     15  C   UNL     1       2.356   7.172  18.766  0.00  0.00    +0.000 A 
ATOM     16  C   UNL     1       2.601   8.201  17.957  0.00  0.00    +0.000 A 
ATOM     17  C   UNL     1       2.138   9.537  18.379  0.00  0.00    +0.000 A 
ATOM     18  O   UNL     1       2.361  10.511  17.662  0.00  0.00    +0.000 OA
ATOM     19  N   UNL     1       1.418   9.591  19.579  0.00  0.00    +0.000 N 
BRANCH  15  20
ATOM     20  C   UNL     1       2.771   5.816  18.374  0.00  0.00    +0.000 A 
ATOM     21  C   UNL     1       1.827   4.895  17.905  0.00  0.00    +0.000 A 
ATOM     22  C   UNL     1       2.228   3.615  17.512  0.00  0.00    +0.000 A 
ATOM     23  C   UNL     1       3.573   3.253  17.576  0.00  0.00    +0.000 A 
ATOM     24  C   UNL     1       4.523   4.173  18.020  0.00  0.00    +0.000 A 
ATOM     25  C   UNL     1       4.123   5.453  18.413  0.00  0.00    +0.000 A 
ENDBRANCH  15  20
ENDBRANCH  11  19
ENDBRANCH   1  11
BRANCH   5  26
ATOM     26  C   UNL     1      -5.041  12.668  19.708  0.00  0.00    +0.000 C 
BRANCH  26  27
ATOM     27  C   UNL     1      -5.303  12.133  21.113  0.00  0.00    +0.000 C 
BRANCH  27  28
ATOM     28  C   UNL     1      -4.571  12.945  22.160  0.00  0.00    +0.000 A 
ATOM     29  C   UNL     1      -3.386  12.456  22.727  0.00  0.00    +0.000 A 
ATOM     30  C   UNL     1      -2.712  13.186  23.707  0.00  0.00    +0.000 A 
ATOM     31  C   UNL     1      -3.218  14.412  24.134  0.00  0.00    +0.000 A 
ATOM     32  C   UNL     1      -4.396  14.909  23.578  0.00  0.00    +0.000 A 
ATOM     33  C   UNL     1      -5.071  14.177  22.598  0.00  0.00    +0.000 A 
ENDBRANCH  27  28
ENDBRANCH  26  27
ENDBRANCH   5  26
TORSDOF 7
ENDMDL
MODEL 8
REMARK VINA RESULT:      -8.0      1.354      7.553
REMARK  Name = 
REMARK  8 active torsions:
REMARK  status: ('A' for Active; 'I' for Inactive)
REMARK    1  A    between atoms: C_1  and  C_2
REMARK    2  A    between atoms: C_4  and  C_5
REMARK    3  A    between atoms: N_14  and  C_15
REMARK    4  A    between atoms: C_15  and  C_16
REMARK    5  A    between atoms: C_16  and  O_17
REMARK    6  A    between atoms: C_21  and  C_23
REMARK    7  A    between atoms: C_23  and  C_24
REMARK    8  A    between atoms: C_24  and  C_25
REMARK                            x       y       z     vdW  Elec       q    Type
REMARK                         _______ _______ _______ _____ _____    ______ ____
ROOT
ATOM      1  C   UNL     1       4.850   4.351  17.759  0.00  0.00    +0.000 C 
ATOM      2  C   UNL     1       4.459   3.600  19.058  0.00  0.00    +0.000 C 
ATOM      3  C   UNL     1       2.935   3.708  19.322  0.00  0.00    +0.000 C 
ATOM      4  N   UNL     1       2.494   5.107  19.286  0.00  0.00    +0.000 N 
ATOM      5  C   UNL     1       1.986   5.731  20.415  0.00  0.00    +0.000 C 
ATOM      6  O   UNL     1       1.838   5.140  21.486  0.00  0.00    +0.000 OA
ATOM      7  C   UNL     1       2.809   5.795  18.047  0.00  0.00    +0.000 C 
ATOM      8  C   UNL     1       4.310   5.779  17.858  0.00  0.00    +0.000 C 
ENDROOT
BRANCH   1   9
ATOM      9  O   UNL     1       4.185   3.682  16.680  0.00  0.00    +0.000 OA
ATOM     10  H   UNL     1       4.660   3.886  15.847  0.00  0.00    +0.000 HD
ENDBRANCH   1   9
BRANCH   1  11
ATOM     11  C   UNL     1       6.388   4.416  17.471  0.00  0.00    +0.000 C 
BRANCH  11  19
ATOM     12  C   UNL     1       6.033   6.759  15.496  0.00  0.00    +0.000 C 
ATOM     13  C   UNL     1       6.830   6.850  16.792  0.00  0.00    +0.000 A 
ATOM     14  N   UNL     1       7.348   8.013  16.993  0.00  0.00    +0.000 NA
ATOM     15  C   UNL     1       8.078   8.226  18.116  0.00  0.00    +0.000 A 
ATOM     16  C   UNL     1       8.341   7.277  19.013  0.00  0.00    +0.000 A 
ATOM     17  C   UNL     1       7.793   5.928  18.772  0.00  0.00    +0.000 A 
ATOM     18  O   UNL     1       8.029   5.026  19.573  0.00  0.00    +0.000 OA
ATOM     19  N   UNL     1       6.984   5.784  17.639  0.00  0.00    +0.000 N 
BRANCH  15  20
ATOM     20  C   UNL     1       8.578   9.593  18.328  0.00  0.00    +0.000 A 
ATOM     21  C   UNL     1       8.184  10.630  17.474  0.00  0.00    +0.000 A 
ATOM     22  C   UNL     1       8.642  11.933  17.691  0.00  0.00    +0.000 A 
ATOM     23  C   UNL     1       9.486  12.207  18.767  0.00  0.00    +0.000 A 
ATOM     24  C   UNL     1       9.864  11.184  19.636  0.00  0.00    +0.000 A 
ATOM     25  C   UNL     1       9.406   9.881  19.419  0.00  0.00    +0.000 A 
ENDBRANCH  15  20
ENDBRANCH  11  19
ENDBRANCH   1  11
BRANCH   5  26
ATOM     26  C   UNL     1       1.621   7.206  20.267  0.00  0.00    +0.000 C 
BRANCH  26  27
ATOM     27  C   UNL     1       1.377   7.901  21.603  0.00  0.00    +0.000 C 
BRANCH  27  28
ATOM     28  C   UNL     1       0.525   9.140  21.434  0.00  0.00    +0.000 A 
ATOM     29  C   UNL     1       0.277   9.654  20.154  0.00  0.00    +0.000 A 
ATOM     30  C   UNL     1      -0.491  10.807  19.987  0.00  0.00    +0.000 A 
ATOM     31  C   UNL     1      -1.017  11.462  21.099  0.00  0.00    +0.000 A 
ATOM     32  C   UNL     1      -0.777  10.962  22.378  0.00  0.00    +0.000 A 
ATOM     33  C   UNL     1      -0.006   9.808  22.545  0.00  0.00    +0.000 A 
ENDBRANCH  27  28
ENDBRANCH  26  27
ENDBRANCH   5  26
TORSDOF 7
ENDMDL
MODEL 9
REMARK VINA RESULT:      -8.0      4.189      7.676
REMARK  Name = 
REMARK  8 active torsions:
REMARK  status: ('A' for Active; 'I' for Inactive)
REMARK    1  A    between atoms: C_1  and  C_2
REMARK    2  A    between atoms: C_4  and  C_5
REMARK    3  A    between atoms: N_14  and  C_15
REMARK    4  A    between atoms: C_15  and  C_16
REMARK    5  A    between atoms: C_16  and  O_17
REMARK    6  A    between atoms: C_21  and  C_23
REMARK    7  A    between atoms: C_23  and  C_24
REMARK    8  A    between atoms: C_24  and  C_25
REMARK                            x       y       z     vdW  Elec       q    Type
REMARK                         _______ _______ _______ _____ _____    ______ ____
ROOT
ATOM      1  C   UNL     1       1.084   9.835  19.811  0.00  0.00    +0.000 C 
ATOM      2  C   UNL     1       1.679  10.011  18.389  0.00  0.00    +0.000 C 
ATOM      3  C   UNL     1       1.732   8.656  17.639  0.00  0.00    +0.000 C 
ATOM      4  N   UNL     1       2.409   7.634  18.447  0.00  0.00    +0.000 N 
ATOM      5  C   UNL     1       3.606   7.067  18.036  0.00  0.00    +0.000 C 
ATOM      6  O   UNL     1       4.138   7.355  16.963  0.00  0.00    +0.000 OA
ATOM      7  C   UNL     1       1.817   7.427  19.756  0.00  0.00    +0.000 C 
ATOM      8  C   UNL     1       1.873   8.732  20.519  0.00  0.00    +0.000 C 
ENDROOT
BRANCH   1   9
ATOM      9  O   UNL     1      -0.268   9.393  19.639  0.00  0.00    +0.000 OA
ATOM     10  H   UNL     1      -0.485   8.763  20.358  0.00  0.00    +0.000 HD
ENDBRANCH   1   9
BRANCH   1  11
ATOM     11  C   UNL     1       1.110  11.122  20.702  0.00  0.00    +0.000 C 
BRANCH  11  19
ATOM     12  C   UNL     1      -0.197   9.880  23.206  0.00  0.00    +0.000 C 
ATOM     13  C   UNL     1      -0.830  10.991  22.375  0.00  0.00    +0.000 A 
ATOM     14  N   UNL     1      -1.977  11.372  22.822  0.00  0.00    +0.000 NA
ATOM     15  C   UNL     1      -2.643  12.359  22.174  0.00  0.00    +0.000 A 
ATOM     16  C   UNL     1      -2.202  12.933  21.056  0.00  0.00    +0.000 A 
ATOM     17  C   UNL     1      -0.912  12.474  20.506  0.00  0.00    +0.000 A 
ATOM     18  O   UNL     1      -0.483  12.972  19.468  0.00  0.00    +0.000 OA
ATOM     19  N   UNL     1      -0.231  11.507  21.257  0.00  0.00    +0.000 N 
BRANCH  15  20
ATOM     20  C   UNL     1      -3.910  12.805  22.776  0.00  0.00    +0.000 A 
ATOM     21  C   UNL     1      -4.816  13.571  22.031  0.00  0.00    +0.000 A 
ATOM     22  C   UNL     1      -6.028  13.974  22.598  0.00  0.00    +0.000 A 
ATOM     23  C   UNL     1      -6.345  13.606  23.905  0.00  0.00    +0.000 A 
ATOM     24  C   UNL     1      -5.459  12.824  24.645  0.00  0.00    +0.000 A 
ATOM     25  C   UNL     1      -4.246  12.420  24.079  0.00  0.00    +0.000 A 
ENDBRANCH  15  20
ENDBRANCH  11  19
ENDBRANCH   1  11
BRANCH   5  26
ATOM     26  C   UNL     1       4.243   6.064  18.993  0.00  0.00    +0.000 C 
BRANCH  26  27
ATOM     27  C   UNL     1       4.141   4.622  18.506  0.00  0.00    +0.000 C 
BRANCH  27  28
ATOM     28  C   UNL     1       2.897   3.944  19.037  0.00  0.00    +0.000 A 
ATOM     29  C   UNL     1       2.648   3.912  20.416  0.00  0.00    +0.000 A 
ATOM     30  C   UNL     1       1.514   3.273  20.920  0.00  0.00    +0.000 A 
ATOM     31  C   UNL     1       0.617   2.657  20.050  0.00  0.00    +0.000 A 
ATOM     32  C   UNL     1       0.854   2.680  18.676  0.00  0.00    +0.000 A 
ATOM     33  C   UNL     1       1.990   3.318  18.172  0.00  0.00    +0.000 A 
ENDBRANCH  27  28
ENDBRANCH  26  27
ENDBRANCH   5  26
TORSDOF 7
ENDMDL
