MODEL 1
REMARK VINA RESULT:      -8.0      0.000      0.000
REMARK  Name = 
REMARK  8 active torsions:
REMARK  status: ('A' for Active; 'I' for Inactive)
REMARK    1  A    between atoms: C_1  and  C_2
REMARK    2  A    between atoms: C_4  and  C_5
REMARK    3  A    between atoms: C_8  and  O_9
REMARK    4  A    between atoms: O_9  and  C_10
REMARK    5  A    between atoms: C_10  and  C_11
REMARK    6  A    between atoms: C_11  and  C_12
REMARK    7  A    between atoms: C_12  and  N_13
REMARK    8  A    between atoms: C_17  and  C_18
REMARK                            x       y       z     vdW  Elec       q    Type
REMARK                         _______ _______ _______ _____ _____    ______ ____
ROOT
ATOM      1  C   UNL     1       5.128   5.794  17.143  0.00  0.00    +0.000 A 
ATOM      2  C   UNL     1       5.442   5.254  18.392  0.00  0.00    +0.000 A 
ATOM      3  C   UNL     1       4.572   5.429  19.462  0.00  0.00    +0.000 A 
ATOM      4  C   UNL     1       3.390   6.161  19.310  0.00  0.00    +0.000 A 
ATOM      5  C   UNL     1       3.128   6.784  18.090  0.00  0.00    +0.000 A 
ATOM      6  C   UNL     1       3.996   6.606  17.006  0.00  0.00    +0.000 A 
ENDROOT
BRANCH   1  10
ATOM      7  C   UNL     1       5.288   3.495  12.700  0.00  0.00    +0.000 C 
ATOM      8  C   UNL     1       5.892   4.299  13.803  0.00  0.00    +0.000 A 
ATOM      9  C   UNL     1       5.250   4.585  14.940  0.00  0.00    +0.000 A 
ATOM     10  C   UNL     1       5.934   5.435  15.945  0.00  0.00    +0.000 A 
ATOM     11  N   UNL     1       7.136   5.902  15.799  0.00  0.00    +0.000 NA
ATOM     12  N   UNL     1       7.787   5.561  14.647  0.00  0.00    +0.000 N 
ATOM     13  C   UNL     1       7.273   4.812  13.618  0.00  0.00    +0.000 A 
ATOM     14  O   UNL     1       7.908   4.576  12.596  0.00  0.00    +0.000 OA
ATOM     15  H   UNL     1       8.725   5.931  14.535  0.00  0.00    +0.000 HD
ENDBRANCH   1  10
BRANCH   4  16
ATOM     16  O   UNL     1       2.429   6.296  20.290  0.00  0.00    +0.000 OA
BRANCH  16  17
ATOM     17  C   UNL     1       2.223   5.109  21.065  0.00  0.00    +0.000 C 
BRANCH  17  18
ATOM     18  C   UNL     1       1.053   4.289  20.547  0.00  0.00    +0.000 C 
BRANCH  18  19
ATOM     19  C   UNL     1       1.392   2.787  20.582  0.00  0.00    +0.000 C 
BRANCH  19  20
ATOM     20  N   UNL     1       1.718   2.242  19.266  0.00  0.00    +0.000 NA
ATOM     21  C   UNL     1       1.428   3.138  18.143  0.00  0.00    +0.000 C 
ATOM     22  C   UNL     1       2.670   3.141  17.274  0.00  0.00    +0.000 C 
ATOM     23  C   UNL     1       3.331   1.818  17.596  0.00  0.00    +0.000 C 
ATOM     24  C   UNL     1       3.048   1.635  19.087  0.00  0.00    +0.000 C 
ATOM     25  C   UNL     1       4.189   2.208  19.932  0.00  0.00    +0.000 C 
ENDBRANCH  19  20
ENDBRANCH  18  19
ENDBRANCH  17  18
ENDBRANCH  16  17
ENDBRANCH   4  16
TORSDOF 6
ENDMDL
MODEL 2
REMARK VINA RESULT:      -7.0      1.591      2.910
REMARK  Name = 
REMARK  8 active torsions:
REMARK  status: ('A' for Active; 'I' for Inactive)
REMARK    1  A    between atoms: C_1  and  C_2
REMARK    2  A    between atoms: C_4  and  C_5
REMARK    3  A    between atoms: C_8  and  O_9
REMARK    4  A    between atoms: O_9  and  C_10
REMARK    5  A    between atoms: C_10  and  C_11
REMARK    6  A    between atoms: C_11  and  C_12
REMARK    7  A    between atoms: C_12  and  N_13
REMARK    8  A    between atoms: C_17  and  C_18
REMARK                            x       y       z     vdW  Elec       q    Type
REMARK                         _______ _______ _______ _____ _____    ______ ____
ROOT
ATOM      1  C   UNL     1       5.360   3.982  17.122  0.00  0.00    +0.000 A 
ATOM      2  C   UNL     1       5.670   4.478  18.389  0.00  0.00    +0.000 A 
ATOM      3  C   UNL     1       5.051   3.945  19.514  0.00  0.00    +0.000 A 
ATOM      4  C   UNL     1       4.099   2.928  19.391  0.00  0.00    +0.000 A 
ATOM      5  C   UNL     1       3.717   2.504  18.117  0.00  0.00    +0.000 A 
ATOM      6  C   UNL     1       4.343   3.032  16.981  0.00  0.00    +0.000 A 
ENDROOT
BRANCH   1  10
ATOM      7  C   UNL     1       6.191   3.478  12.211  0.00  0.00    +0.000 C 
ATOM      8  C   UNL     1       6.470   4.071  13.552  0.00  0.00    +0.000 A 
ATOM      9  C   UNL     1       5.840   3.691  14.669  0.00  0.00    +0.000 A 
ATOM     10  C   UNL     1       6.166   4.388  15.938  0.00  0.00    +0.000 A 
ATOM     11  N   UNL     1       7.048   5.334  16.037  0.00  0.00    +0.000 NA
ATOM     12  N   UNL     1       7.708   5.675  14.891  0.00  0.00    +0.000 N 
ATOM     13  C   UNL     1       7.493   5.143  13.643  0.00  0.00    +0.000 A 
ATOM     14  O   UNL     1       8.102   5.527  12.651  0.00  0.00    +0.000 OA
ATOM     15  H   UNL     1       8.395   6.418  14.971  0.00  0.00    +0.000 HD
ENDBRANCH   1  10
BRANCH   4  16
ATOM     16  O   UNL     1       3.514   2.279  20.457  0.00  0.00    +0.000 OA
BRANCH  16  17
ATOM     17  C   UNL     1       2.726   3.136  21.293  0.00  0.00    +0.000 C 
BRANCH  17  18
ATOM     18  C   UNL     1       1.296   3.259  20.792  0.00  0.00    +0.000 C 
BRANCH  18  19
ATOM     19  C   UNL     1       0.980   4.721  20.422  0.00  0.00    +0.000 C 
BRANCH  19  20
ATOM     20  N   UNL     1       2.007   5.334  19.581  0.00  0.00    +0.000 NA
ATOM     21  C   UNL     1       1.710   5.322  18.146  0.00  0.00    +0.000 C 
ATOM     22  C   UNL     1       1.970   6.732  17.650  0.00  0.00    +0.000 C 
ATOM     23  C   UNL     1       2.961   7.282  18.653  0.00  0.00    +0.000 C 
ATOM     24  C   UNL     1       2.510   6.660  19.975  0.00  0.00    +0.000 C 
ATOM     25  C   UNL     1       1.531   7.584  20.703  0.00  0.00    +0.000 C 
ENDBRANCH  19  20
ENDBRANCH  18  19
ENDBRANCH  17  18
ENDBRANCH  16  17
ENDBRANCH   4  16
TORSDOF 6
ENDMDL
MODEL 3
REMARK VINA RESULT:      -7.0      5.254      8.721
REMARK  Name = 
REMARK  8 active torsions:
REMARK  status: ('A' for Active; 'I' for Inactive)
REMARK    1  A    between atoms: C_1  and  C_2
REMARK    2  A    between atoms: C_4  and  C_5
REMARK    3  A    between atoms: C_8  and  O_9
REMARK    4  A    between atoms: O_9  and  C_10
REMARK    5  A    between atoms: C_10  and  C_11
REMARK    6  A    between atoms: C_11  and  C_12
REMARK    7  A    between atoms: C_12  and  N_13
REMARK    8  A    between atoms: C_17  and  C_18
REMARK                            x       y       z     vdW  Elec       q    Type
REMARK                         _______ _______ _______ _____ _____    ______ ____
ROOT
ATOM      1  C   UNL     1       4.653   5.346  18.228  0.00  0.00    +0.000 A 
ATOM      2  C   UNL     1       4.534   6.350  17.265  0.00  0.00    +0.000 A 
ATOM      3  C   UNL     1       5.629   7.151  16.958  0.00  0.00    +0.000 A 
ATOM      4  C   UNL     1       6.848   6.978  17.621  0.00  0.00    +0.000 A 
ATOM      5  C   UNL     1       6.936   6.043  18.653  0.00  0.00    +0.000 A 
ATOM      6  C   UNL     1       5.839   5.228  18.961  0.00  0.00    +0.000 A 
ENDROOT
BRANCH   1  10
ATOM      7  C   UNL     1       1.447   3.131  21.369  0.00  0.00    +0.000 C 
ATOM      8  C   UNL     1       2.049   3.351  20.022  0.00  0.00    +0.000 A 
ATOM      9  C   UNL     1       3.083   4.171  19.803  0.00  0.00    +0.000 A 
ATOM     10  C   UNL     1       3.565   4.348  18.411  0.00  0.00    +0.000 A 
ATOM     11  N   UNL     1       3.058   3.733  17.387  0.00  0.00    +0.000 NA
ATOM     12  N   UNL     1       2.031   2.869  17.642  0.00  0.00    +0.000 N 
ATOM     13  C   UNL     1       1.460   2.627  18.867  0.00  0.00    +0.000 A 
ATOM     14  O   UNL     1       0.514   1.860  19.011  0.00  0.00    +0.000 OA
ATOM     15  H   UNL     1       1.634   2.392  16.838  0.00  0.00    +0.000 HD
ENDBRANCH   1  10
BRANCH   4  16
ATOM     16  O   UNL     1       8.004   7.661  17.309  0.00  0.00    +0.000 OA
BRANCH  16  17
ATOM     17  C   UNL     1       8.008   9.024  17.749  0.00  0.00    +0.000 C 
BRANCH  17  18
ATOM     18  C   UNL     1       8.919   9.229  18.949  0.00  0.00    +0.000 C 
BRANCH  18  19
ATOM     19  C   UNL     1       9.166  10.731  19.186  0.00  0.00    +0.000 C 
BRANCH  19  20
ATOM     20  N   UNL     1      10.582  11.092  19.144  0.00  0.00    +0.000 NA
ATOM     21  C   UNL     1      11.045  11.607  17.852  0.00  0.00    +0.000 C 
ATOM     22  C   UNL     1      11.825  12.871  18.156  0.00  0.00    +0.000 C 
ATOM     23  C   UNL     1      12.279  12.671  19.586  0.00  0.00    +0.000 C 
ATOM     24  C   UNL     1      11.104  11.936  20.231  0.00  0.00    +0.000 C 
ATOM     25  C   UNL     1      10.128  12.928  20.869  0.00  0.00    +0.000 C 
ENDBRANCH  19  20
ENDBRANCH  18  19
ENDBRANCH  17  18
ENDBRANCH  16  17
ENDBRANCH   4  16
TORSDOF 6
ENDMDL
MODEL 4
REMARK VINA RESULT:      -6.9      1.022      1.677
REMARK  Name = 
REMARK  8 active torsions:
REMARK  status: ('A' for Active; 'I' for Inactive)
REMARK    1  A    between atoms: C_1  and  C_2
REMARK    2  A    between atoms: C_4  and  C_5
REMARK    3  A    between atoms: C_8  and  O_9
REMARK    4  A    between atoms: O_9  and  C_10
REMARK    5  A    between atoms: C_10  and  C_11
REMARK    6  A    between atoms: C_11  and  C_12
REMARK    7  A    between atoms: C_12  and  N_13
REMARK    8  A    between atoms: C_17  and  C_18
REMARK                            x       y       z     vdW  Elec       q    Type
REMARK                         _______ _______ _______ _____ _____    ______ ____
ROOT
ATOM      1  C   UNL     1       5.903   5.366  16.292  0.00  0.00    +0.000 A 
ATOM      2  C   UNL     1       6.458   4.792  17.438  0.00  0.00    +0.000 A 
ATOM      3  C   UNL     1       5.847   4.979  18.673  0.00  0.00    +0.000 A 
ATOM      4  C   UNL     1       4.691   5.758  18.788  0.00  0.00    +0.000 A 
ATOM      5  C   UNL     1       4.197   6.413  17.659  0.00  0.00    +0.000 A 
ATOM      6  C   UNL     1       4.803   6.222  16.411  0.00  0.00    +0.000 A 
ENDROOT
BRANCH   1  10
ATOM      7  C   UNL     1       5.110   2.920  11.997  0.00  0.00    +0.000 C 
ATOM      8  C   UNL     1       5.919   3.787  12.903  0.00  0.00    +0.000 A 
ATOM      9  C   UNL     1       5.555   4.087  14.154  0.00  0.00    +0.000 A 
ATOM     10  C   UNL     1       6.417   5.000  14.944  0.00  0.00    +0.000 A 
ATOM     11  N   UNL     1       7.524   5.512  14.502  0.00  0.00    +0.000 NA
ATOM     12  N   UNL     1       7.896   5.158  13.236  0.00  0.00    +0.000 N 
ATOM     13  C   UNL     1       7.189   4.352  12.378  0.00  0.00    +0.000 A 
ATOM     14  O   UNL     1       7.572   4.107  11.240  0.00  0.00    +0.000 OA
ATOM     15  H   UNL     1       8.761   5.564  12.891  0.00  0.00    +0.000 HD
ENDBRANCH   1  10
BRANCH   4  16
ATOM     16  O   UNL     1       3.971   5.911  19.953  0.00  0.00    +0.000 OA
BRANCH  16  17
ATOM     17  C   UNL     1       2.556   5.998  19.751  0.00  0.00    +0.000 C 
BRANCH  17  18
ATOM     18  C   UNL     1       1.784   5.191  20.783  0.00  0.00    +0.000 C 
BRANCH  18  19
ATOM     19  C   UNL     1       2.260   3.726  20.785  0.00  0.00    +0.000 C 
BRANCH  19  20
ATOM     20  N   UNL     1       2.864   3.319  19.518  0.00  0.00    +0.000 NA
ATOM     21  C   UNL     1       3.908   2.296  19.638  0.00  0.00    +0.000 C 
ATOM     22  C   UNL     1       3.583   1.238  18.602  0.00  0.00    +0.000 C 
ATOM     23  C   UNL     1       2.773   1.991  17.569  0.00  0.00    +0.000 C 
ATOM     24  C   UNL     1       1.960   2.978  18.408  0.00  0.00    +0.000 C 
ATOM     25  C   UNL     1       0.599   2.382  18.780  0.00  0.00    +0.000 C 
ENDBRANCH  19  20
ENDBRANCH  18  19
ENDBRANCH  17  18
ENDBRANCH  16  17
ENDBRANCH   4  16
TORSDOF 6
ENDMDL
MODEL 5
REMARK VINA RESULT:      -6.9      4.297      7.257
REMARK  Name = 
REMARK  8 active torsions:
REMARK  status: ('A' for Active; 'I' for Inactive)
REMARK    1  A    between atoms: C_1  and  C_2
REMARK    2  A    between atoms: C_4  and  C_5
REMARK    3  A    between atoms: C_8  and  O_9
REMARK    4  A    between atoms: O_9  and  C_10
REMARK    5  A    between atoms: C_10  and  C_11
REMARK    6  A    between atoms: C_11  and  C_12
REMARK    7  A    between atoms: C_12  and  N_13
REMARK    8  A    between atoms: C_17  and  C_18
REMARK                            x       y       z     vdW  Elec       q    Type
REMARK                         _______ _______ _______ _____ _____    ______ ____
ROOT
ATOM      1  C   UNL     1       1.606   8.661  19.319  0.00  0.00    +0.000 A 
ATOM      2  C   UNL     1       1.889   7.544  20.107  0.00  0.00    +0.000 A 
ATOM      3  C   UNL     1       2.777   6.578  19.648  0.00  0.00    +0.000 A 
ATOM      4  C   UNL     1       3.377   6.698  18.390  0.00  0.00    +0.000 A 
ATOM      5  C   UNL     1       3.015   7.762  17.563  0.00  0.00    +0.000 A 
ATOM      6  C   UNL     1       2.127   8.742  18.023  0.00  0.00    +0.000 A 
ENDROOT
BRANCH   1  10
ATOM      7  C   UNL     1      -1.018  10.487  23.171  0.00  0.00    +0.000 C 
ATOM      8  C   UNL     1      -0.411  10.585  21.811  0.00  0.00    +0.000 A 
ATOM      9  C   UNL     1       0.225   9.571  21.215  0.00  0.00    +0.000 A 
ATOM     10  C   UNL     1       0.832   9.801  19.881  0.00  0.00    +0.000 A 
ATOM     11  N   UNL     1       0.764  10.928  19.240  0.00  0.00    +0.000 NA
ATOM     12  N   UNL     1       0.073  11.936  19.852  0.00  0.00    +0.000 N 
ATOM     13  C   UNL     1      -0.513  11.880  21.092  0.00  0.00    +0.000 A 
ATOM     14  O   UNL     1      -1.087  12.842  21.591  0.00  0.00    +0.000 OA
ATOM     15  H   UNL     1       0.025  12.817  19.349  0.00  0.00    +0.000 HD
ENDBRANCH   1  10
BRANCH   4  16
ATOM     16  O   UNL     1       4.340   5.840  17.904  0.00  0.00    +0.000 OA
BRANCH  16  17
ATOM     17  C   UNL     1       5.278   5.404  18.895  0.00  0.00    +0.000 C 
BRANCH  17  18
ATOM     18  C   UNL     1       5.052   3.953  19.292  0.00  0.00    +0.000 C 
BRANCH  18  19
ATOM     19  C   UNL     1       4.080   3.273  18.309  0.00  0.00    +0.000 C 
BRANCH  19  20
ATOM     20  N   UNL     1       2.948   2.631  18.975  0.00  0.00    +0.000 NA
ATOM     21  C   UNL     1       2.835   2.921  20.408  0.00  0.00    +0.000 C 
ATOM     22  C   UNL     1       1.388   3.308  20.647  0.00  0.00    +0.000 C 
ATOM     23  C   UNL     1       0.650   2.635  19.510  0.00  0.00    +0.000 C 
ATOM     24  C   UNL     1       1.626   2.746  18.339  0.00  0.00    +0.000 C 
ATOM     25  C   UNL     1       1.356   4.014  17.526  0.00  0.00    +0.000 C 
ENDBRANCH  19  20
ENDBRANCH  18  19
ENDBRANCH  17  18
ENDBRANCH  16  17
ENDBRANCH   4  16
TORSDOF 6
ENDMDL
MODEL 6
REMARK VINA RESULT:      -6.8      5.491      8.840
REMARK  Name = 
REMARK  8 active torsions:
REMARK  status: ('A' for Active; 'I' for Inactive)
REMARK    1  A    between atoms: C_1  and  C_2
REMARK    2  A    between atoms: C_4  and  C_5
REMARK    3  A    between atoms: C_8  and  O_9
REMARK    4  A    between atoms: O_9  and  C_10
REMARK    5  A    between atoms: C_10  and  C_11
REMARK    6  A    between atoms: C_11  and  C_12
REMARK    7  A    between atoms: C_12  and  N_13
REMARK    8  A    between atoms: C_17  and  C_18
REMARK                            x       y       z     vdW  Elec       q    Type
REMARK                         _______ _______ _______ _____ _____    ______ ____
ROOT
ATOM      1  C   UNL     1       5.288   5.180  18.040  0.00  0.00    +0.000 A 
ATOM      2  C   UNL     1       6.411   4.747  18.749  0.00  0.00    +0.000 A 
ATOM      3  C   UNL     1       7.523   5.574  18.859  0.00  0.00    +0.000 A 
ATOM      4  C   UNL     1       7.542   6.832  18.247  0.00  0.00    +0.000 A 
ATOM      5  C   UNL     1       6.460   7.220  17.456  0.00  0.00    +0.000 A 
ATOM      6  C   UNL     1       5.334   6.395  17.347  0.00  0.00    +0.000 A 
ENDROOT
BRANCH   1  10
ATOM      7  C   UNL     1       1.104   4.107  20.570  0.00  0.00    +0.000 C 
ATOM      8  C   UNL     1       2.023   3.970  19.402  0.00  0.00    +0.000 A 
ATOM      9  C   UNL     1       3.214   4.574  19.328  0.00  0.00    +0.000 A 
ATOM     10  C   UNL     1       4.020   4.403  18.094  0.00  0.00    +0.000 A 
ATOM     11  N   UNL     1       3.650   3.679  17.084  0.00  0.00    +0.000 NA
ATOM     12  N   UNL     1       2.449   3.038  17.201  0.00  0.00    +0.000 N 
ATOM     13  C   UNL     1       1.583   3.125  18.263  0.00  0.00    +0.000 A 
ATOM     14  O   UNL     1       0.503   2.545  18.280  0.00  0.00    +0.000 OA
ATOM     15  H   UNL     1       2.161   2.474  16.407  0.00  0.00    +0.000 HD
ENDBRANCH   1  10
BRANCH   4  16
ATOM     16  O   UNL     1       8.560   7.749  18.390  0.00  0.00    +0.000 OA
BRANCH  16  17
ATOM     17  C   UNL     1       8.207   9.075  17.976  0.00  0.00    +0.000 C 
BRANCH  17  18
ATOM     18  C   UNL     1       9.050  10.131  18.674  0.00  0.00    +0.000 C 
BRANCH  18  19
ATOM     19  C   UNL     1       8.828  11.510  18.025  0.00  0.00    +0.000 C 
BRANCH  19  20
ATOM     20  N   UNL     1       9.882  12.470  18.347  0.00  0.00    +0.000 NA
ATOM     21  C   UNL     1      10.981  12.521  17.378  0.00  0.00    +0.000 C 
ATOM     22  C   UNL     1      11.206  13.989  17.072  0.00  0.00    +0.000 C 
ATOM     23  C   UNL     1      10.675  14.692  18.302  0.00  0.00    +0.000 C 
ATOM     24  C   UNL     1       9.474  13.838  18.708  0.00  0.00    +0.000 C 
ATOM     25  C   UNL     1       8.189  14.369  18.068  0.00  0.00    +0.000 C 
ENDBRANCH  19  20
ENDBRANCH  18  19
ENDBRANCH  17  18
ENDBRANCH  16  17
ENDBRANCH   4  16
TORSDOF 6
ENDMDL
MODEL 7
REMARK VINA RESULT:      -6.8      5.077      8.464
REMARK  Name = 
REMARK  8 active torsions:
REMARK  status: ('A' for Active; 'I' for Inactive)
REMARK    1  A    between atoms: C_1  and  C_2
REMARK    2  A    between atoms: C_4  and  C_5
REMARK    3  A    between atoms: C_8  and  O_9
REMARK    4  A    between atoms: O_9  and  C_10
REMARK    5  A    between atoms: C_10  and  C_11
REMARK    6  A    between atoms: C_11  and  C_12
REMARK    7  A    between atoms: C_12  and  N_13
REMARK    8  A    between atoms: C_17  and  C_18
REMARK                            x       y       z     vdW  Elec       q    Type
REMARK                         _______ _______ _______ _____ _____    ______ ____
ROOT
ATOM      1  C   UNL     1       5.021   4.691  17.953  0.00  0.00    +0.000 A 
ATOM      2  C   UNL     1       5.872   4.990  19.019  0.00  0.00    +0.000 A 
ATOM      3  C   UNL     1       6.897   5.914  18.851  0.00  0.00    +0.000 A 
ATOM      4  C   UNL     1       7.102   6.536  17.615  0.00  0.00    +0.000 A 
ATOM      5  C   UNL     1       6.316   6.161  16.525  0.00  0.00    +0.000 A 
ATOM      6  C   UNL     1       5.277   5.236  16.690  0.00  0.00    +0.000 A 
ENDROOT
BRANCH   1  10
ATOM      7  C   UNL     1       0.771   4.072  20.524  0.00  0.00    +0.000 C 
ATOM      8  C   UNL     1       1.759   3.681  19.476  0.00  0.00    +0.000 A 
ATOM      9  C   UNL     1       2.916   4.323  19.281  0.00  0.00    +0.000 A 
ATOM     10  C   UNL     1       3.797   3.874  18.175  0.00  0.00    +0.000 A 
ATOM     11  N   UNL     1       3.525   2.874  17.394  0.00  0.00    +0.000 NA
ATOM     12  N   UNL     1       2.357   2.209  17.640  0.00  0.00    +0.000 N 
ATOM     13  C   UNL     1       1.431   2.526  18.603  0.00  0.00    +0.000 A 
ATOM     14  O   UNL     1       0.385   1.901  18.740  0.00  0.00    +0.000 OA
ATOM     15  H   UNL     1       2.145   1.430  17.025  0.00  0.00    +0.000 HD
ENDBRANCH   1  10
BRANCH   4  16
ATOM     16  O   UNL     1       8.028   7.533  17.392  0.00  0.00    +0.000 OA
BRANCH  16  17
ATOM     17  C   UNL     1       7.598   8.828  17.827  0.00  0.00    +0.000 C 
BRANCH  17  18
ATOM     18  C   UNL     1       8.745   9.827  17.855  0.00  0.00    +0.000 C 
BRANCH  18  19
ATOM     19  C   UNL     1       9.157  10.131  19.308  0.00  0.00    +0.000 C 
BRANCH  19  20
ATOM     20  N   UNL     1      10.275  11.068  19.402  0.00  0.00    +0.000 NA
ATOM     21  C   UNL     1      10.443  11.940  18.235  0.00  0.00    +0.000 C 
ATOM     22  C   UNL     1      10.602  13.346  18.780  0.00  0.00    +0.000 C 
ATOM     23  C   UNL     1      11.128  13.125  20.182  0.00  0.00    +0.000 C 
ATOM     24  C   UNL     1      10.401  11.859  20.636  0.00  0.00    +0.000 C 
ATOM     25  C   UNL     1       9.104  12.211  21.370  0.00  0.00    +0.000 C 
ENDBRANCH  19  20
ENDBRANCH  18  19
ENDBRANCH  17  18
ENDBRANCH  16  17
ENDBRANCH   4  16
TORSDOF 6
ENDMDL
MODEL 8
REMARK VINA RESULT:      -6.8      5.953      8.997
REMARK  Name = 
REMARK  8 active torsions:
REMARK  status: ('A' for Active; 'I' for Inactive)
REMARK    1  A    between atoms: C_1  and  C_2
REMARK    2  A    between atoms: C_4  and  C_5
REMARK    3  A    between atoms: C_8  and  O_9
REMARK    4  A    between atoms: O_9  and  C_10
REMARK    5  A    between atoms: C_10  and  C_11
REMARK    6  A    between atoms: C_11  and  C_12
REMARK    7  A    between atoms: C_12  and  N_13
REMARK    8  A    between atoms: C_17  and  C_18
REMARK                            x       y       z     vdW  Elec       q    Type
REMARK                         _______ _______ _______ _____ _____    ______ ____
ROOT
ATOM      1  C   UNL     1       6.187   5.778  18.248  0.00  0.00    +0.000 A 
ATOM      2  C   UNL     1       7.416   5.844  18.907  0.00  0.00    +0.000 A 
ATOM      3  C   UNL     1       8.232   6.958  18.744  0.00  0.00    +0.000 A 
ATOM      4  C   UNL     1       7.846   8.009  17.904  0.00  0.00    +0.000 A 
ATOM      5  C   UNL     1       6.667   7.894  17.169  0.00  0.00    +0.000 A 
ATOM      6  C   UNL     1       5.837   6.779  17.335  0.00  0.00    +0.000 A 
ENDROOT
BRANCH   1  10
ATOM      7  C   UNL     1       1.549   3.974  17.712  0.00  0.00    +0.000 C 
ATOM      8  C   UNL     1       2.943   3.918  18.240  0.00  0.00    +0.000 A 
ATOM      9  C   UNL     1       3.841   4.890  18.049  0.00  0.00    +0.000 A 
ATOM     10  C   UNL     1       5.214   4.702  18.579  0.00  0.00    +0.000 A 
ATOM     11  N   UNL     1       5.594   3.654  19.244  0.00  0.00    +0.000 NA
ATOM     12  N   UNL     1       4.647   2.694  19.463  0.00  0.00    +0.000 N 
ATOM     13  C   UNL     1       3.351   2.715  19.008  0.00  0.00    +0.000 A 
ATOM     14  O   UNL     1       2.567   1.795  19.216  0.00  0.00    +0.000 OA
ATOM     15  H   UNL     1       4.949   1.874  19.980  0.00  0.00    +0.000 HD
ENDBRANCH   1  10
BRANCH   4  16
ATOM     16  O   UNL     1       8.548   9.187  17.765  0.00  0.00    +0.000 OA
BRANCH  16  17
ATOM     17  C   UNL     1       8.866   9.821  19.010  0.00  0.00    +0.000 C 
BRANCH  17  18
ATOM     18  C   UNL     1      10.091  10.715  18.895  0.00  0.00    +0.000 C 
BRANCH  18  19
ATOM     19  C   UNL     1       9.790  12.115  19.460  0.00  0.00    +0.000 C 
BRANCH  19  20
ATOM     20  N   UNL     1      10.638  13.159  18.887  0.00  0.00    +0.000 NA
ATOM     21  C   UNL     1      11.523  12.707  17.810  0.00  0.00    +0.000 C 
ATOM     22  C   UNL     1      11.356  13.705  16.680  0.00  0.00    +0.000 C 
ATOM     23  C   UNL     1      10.890  14.961  17.384  0.00  0.00    +0.000 C 
ATOM     24  C   UNL     1       9.996  14.427  18.504  0.00  0.00    +0.000 C 
ATOM     25  C   UNL     1       8.537  14.355  18.047  0.00  0.00    +0.000 C 
ENDBRANCH  19  20
ENDBRANCH  18  19
ENDBRANCH  17  18
ENDBRANCH  16  17
ENDBRANCH   4  16
TORSDOF 6
ENDMDL
MODEL 9
REMARK VINA RESULT:      -6.8      6.037      9.055
REMARK  Name = 
REMARK  8 active torsions:
REMARK  status: ('A' for Active; 'I' for Inactive)
REMARK    1  A    between atoms: C_1  and  C_2
REMARK    2  A    between atoms: C_4  and  C_5
REMARK    3  A    between atoms: C_8  and  O_9
REMARK    4  A    between atoms: O_9  and  C_10
REMARK    5  A    between atoms: C_10  and  C_11
REMARK    6  A    between atoms: C_11  and  C_12
REMARK    7  A    between atoms: C_12  and  N_13
REMARK    8  A    between atoms: C_17  and  C_18
REMARK                            x       y       z     vdW  Elec       q    Type
REMARK                         _______ _______ _______ _____ _____    ______ ____
ROOT
ATOM      1  C   UNL     1       6.233   5.743  18.270  0.00  0.00    +0.000 A 
ATOM      2  C   UNL     1       7.447   5.827  18.954  0.00  0.00    +0.000 A 
ATOM      3  C   UNL     1       8.287   6.915  18.746  0.00  0.00    +0.000 A 
ATOM      4  C   UNL     1       7.941   7.922  17.838  0.00  0.00    +0.000 A 
ATOM      5  C   UNL     1       6.777   7.785  17.082  0.00  0.00    +0.000 A 
ATOM      6  C   UNL     1       5.923   6.695  17.292  0.00  0.00    +0.000 A 
ENDROOT
BRANCH   1  10
ATOM      7  C   UNL     1       1.563   4.014  17.755  0.00  0.00    +0.000 C 
ATOM      8  C   UNL     1       2.949   3.955  18.305  0.00  0.00    +0.000 A 
ATOM      9  C   UNL     1       3.871   4.897  18.080  0.00  0.00    +0.000 A 
ATOM     10  C   UNL     1       5.232   4.706  18.639  0.00  0.00    +0.000 A 
ATOM     11  N   UNL     1       5.581   3.684  19.358  0.00  0.00    +0.000 NA
ATOM     12  N   UNL     1       4.610   2.755  19.609  0.00  0.00    +0.000 N 
ATOM     13  C   UNL     1       3.321   2.782  19.136  0.00  0.00    +0.000 A 
ATOM     14  O   UNL     1       2.514   1.891  19.377  0.00  0.00    +0.000 OA
ATOM     15  H   UNL     1       4.887   1.955  20.170  0.00  0.00    +0.000 HD
ENDBRANCH   1  10
BRANCH   4  16
ATOM     16  O   UNL     1       8.668   9.078  17.648  0.00  0.00    +0.000 OA
BRANCH  16  17
ATOM     17  C   UNL     1       8.588   9.997  18.744  0.00  0.00    +0.000 C 
BRANCH  17  18
ATOM     18  C   UNL     1       9.013  11.400  18.340  0.00  0.00    +0.000 C 
BRANCH  18  19
ATOM     19  C   UNL     1      10.445  11.385  17.773  0.00  0.00    +0.000 C 
BRANCH  19  20
ATOM     20  N   UNL     1      11.058  12.712  17.730  0.00  0.00    +0.000 NA
ATOM     21  C   UNL     1      10.117  13.826  17.879  0.00  0.00    +0.000 C 
ATOM     22  C   UNL     1      10.719  14.749  18.922  0.00  0.00    +0.000 C 
ATOM     23  C   UNL     1      12.200  14.448  18.848  0.00  0.00    +0.000 C 
ATOM     24  C   UNL     1      12.243  12.945  18.572  0.00  0.00    +0.000 C 
ATOM     25  C   UNL     1      12.329  12.155  19.880  0.00  0.00    +0.000 C 
ENDBRANCH  19  20
ENDBRANCH  18  19
ENDBRANCH  17  18
ENDBRANCH  16  17
ENDBRANCH   4  16
TORSDOF 6
ENDMDL
