MODEL 1
REMARK VINA RESULT:      -7.7      0.000      0.000
REMARK  Name = 
REMARK  6 active torsions:
REMARK  status: ('A' for Active; 'I' for Inactive)
REMARK    1  A    between atoms: C_1  and  C_2
REMARK    2  A    between atoms: N_4  and  C_5
REMARK    3  A    between atoms: C_8  and  C_9
REMARK    4  A    between atoms: N_14  and  C_15
REMARK    5  A    between atoms: C_15  and  C_16
REMARK    6  A    between atoms: C_16  and  O_18
REMARK                            x       y       z     vdW  Elec       q    Type
REMARK                         _______ _______ _______ _____ _____    ______ ____
ROOT
ATOM      1  C   UNL     1       3.252   7.813  17.590  0.00  0.00    +0.000 C 
ATOM      2  C   UNL     1       3.586   6.521  17.455  0.00  0.00    +0.000 C 
ATOM      3  S   UNL     1       2.922   5.175  18.297  0.00  0.00    +0.000 S 
ATOM      4  C   UNL     1       3.963   4.034  17.473  0.00  0.00    +0.000 C 
ATOM      5  O   UNL     1       3.898   2.829  17.651  0.00  0.00    +0.000 OA
ATOM      6  N   UNL     1       4.825   4.699  16.645  0.00  0.00    +0.000 N 
ATOM      7  C   UNL     1       4.646   6.051  16.524  0.00  0.00    +0.000 C 
ATOM      8  O   UNL     1       5.242   6.749  15.713  0.00  0.00    +0.000 OA
ENDROOT
BRANCH   1  12
ATOM      9  C   UNL     1       0.410   9.362  20.402  0.00  0.00    +0.000 A 
ATOM     10  C   UNL     1       0.513   9.886  19.113  0.00  0.00    +0.000 A 
ATOM     11  C   UNL     1       1.435   9.367  18.200  0.00  0.00    +0.000 A 
ATOM     12  C   UNL     1       2.278   8.315  18.564  0.00  0.00    +0.000 A 
ATOM     13  C   UNL     1       2.194   7.794  19.857  0.00  0.00    +0.000 A 
ATOM     14  C   UNL     1       1.272   8.322  20.774  0.00  0.00    +0.000 A 
BRANCH   9  18
ATOM     15  C   UNL     1      -1.507  11.206  23.082  0.00  0.00    +0.000 C 
ATOM     16  C   UNL     1      -0.404  11.028  22.070  0.00  0.00    +0.000 C 
ATOM     17  O   UNL     1       0.463  11.886  21.941  0.00  0.00    +0.000 OA
ATOM     18  N   UNL     1      -0.511   9.844  21.358  0.00  0.00    +0.000 N 
ATOM     19  H   UNL     1      -1.365   9.312  21.475  0.00  0.00    +0.000 HD
ENDBRANCH   9  18
ENDBRANCH   1  12
BRANCH   6  20
ATOM     20  C   UNL     1       5.860   3.988  15.912  0.00  0.00    +0.000 C 
BRANCH  20  21
ATOM     21  C   UNL     1       7.244   4.566  16.162  0.00  0.00    +0.000 C 
ATOM     22  O   UNL     1       7.843   4.454  17.222  0.00  0.00    +0.000 OA
BRANCH  21  23
ATOM     23  O   UNL     1       7.730   5.316  15.145  0.00  0.00    +0.000 OA
ATOM     24  H   UNL     1       7.465   5.020  14.242  0.00  0.00    +0.000 HD
ENDBRANCH  21  23
ENDBRANCH  20  21
ENDBRANCH   6  20
TORSDOF 5
ENDMDL
MODEL 2
REMARK VINA RESULT:      -7.5      1.733      2.635
REMARK  Name = 
REMARK  6 active torsions:
REMARK  status: ('A' for Active; 'I' for Inactive)
REMARK    1  A    between atoms: C_1  and  C_2
REMARK    2  A    between atoms: N_4  and  C_5
REMARK    3  A    between atoms: C_8  and  C_9
REMARK    4  A    between atoms: N_14  and  C_15
REMARK    5  A    between atoms: C_15  and  C_16
REMARK    6  A    between atoms: C_16  and  O_18
REMARK                            x       y       z     vdW  Elec       q    Type
REMARK                         _______ _______ _______ _____ _____    ______ ____
ROOT
ATOM      1  C   UNL     1       2.935   5.961  17.981  0.00  0.00    +0.000 C 
ATOM      2  C   UNL     1       4.178   5.906  17.482  0.00  0.00    +0.000 C 
ATOM      3  S   UNL     1       5.374   7.142  17.516  0.00  0.00    +0.000 S 
ATOM      4  C   UNL     1       6.542   6.158  16.660  0.00  0.00    +0.000 C 
ATOM      5  O   UNL     1       7.679   6.533  16.422  0.00  0.00    +0.000 OA
ATOM      6  N   UNL     1       5.980   4.961  16.310  0.00  0.00    +0.000 N 
ATOM      7  C   UNL     1       4.716   4.713  16.775  0.00  0.00    +0.000 C 
ATOM      8  O   UNL     1       4.148   3.633  16.667  0.00  0.00    +0.000 OA
ENDROOT
BRANCH   1  12
ATOM      9  C   UNL     1       1.174   9.393  19.852  0.00  0.00    +0.000 A 
ATOM     10  C   UNL     1       1.491   8.250  20.587  0.00  0.00    +0.000 A 
ATOM     11  C   UNL     1       2.074   7.140  19.970  0.00  0.00    +0.000 A 
ATOM     12  C   UNL     1       2.347   7.152  18.601  0.00  0.00    +0.000 A 
ATOM     13  C   UNL     1       2.018   8.285  17.853  0.00  0.00    +0.000 A 
ATOM     14  C   UNL     1       1.425   9.395  18.474  0.00  0.00    +0.000 A 
BRANCH   9  18
ATOM     15  C   UNL     1      -0.927  12.374  20.833  0.00  0.00    +0.000 C 
ATOM     16  C   UNL     1      -0.638  11.090  20.098  0.00  0.00    +0.000 C 
ATOM     17  O   UNL     1      -1.455  10.633  19.306  0.00  0.00    +0.000 OA
ATOM     18  N   UNL     1       0.591  10.543  20.429  0.00  0.00    +0.000 N 
ATOM     19  H   UNL     1       1.085  10.958  21.210  0.00  0.00    +0.000 HD
ENDBRANCH   9  18
ENDBRANCH   1  12
BRANCH   6  20
ATOM     20  C   UNL     1       6.710   3.995  15.505  0.00  0.00    +0.000 C 
BRANCH  20  21
ATOM     21  C   UNL     1       6.633   4.306  14.019  0.00  0.00    +0.000 C 
ATOM     22  O   UNL     1       5.934   3.683  13.233  0.00  0.00    +0.000 OA
BRANCH  21  23
ATOM     23  O   UNL     1       7.488   5.269  13.603  0.00  0.00    +0.000 OA
ATOM     24  H   UNL     1       7.160   5.827  12.858  0.00  0.00    +0.000 HD
ENDBRANCH  21  23
ENDBRANCH  20  21
ENDBRANCH   6  20
TORSDOF 5
ENDMDL
MODEL 3
REMARK VINA RESULT:      -7.5      1.739      2.451
REMARK  Name = 
REMARK  6 active torsions:
REMARK  status: ('A' for Active; 'I' for Inactive)
REMARK    1  A    between atoms: C_1  and  C_2
REMARK    2  A    between atoms: N_4  and  C_5
REMARK    3  A    between atoms: C_8  and  C_9
REMARK    4  A    between atoms: N_14  and  C_15
REMARK    5  A    between atoms: C_15  and  C_16
REMARK    6  A    between atoms: C_16  and  O_18
REMARK                            x       y       z     vdW  Elec       q    Type
REMARK                         _______ _______ _______ _____ _____    ______ ____
ROOT
ATOM      1  C   UNL     1       2.974   5.942  18.000  0.00  0.00    +0.000 C 
ATOM      2  C   UNL     1       4.231   5.933  17.535  0.00  0.00    +0.000 C 
ATOM      3  S   UNL     1       5.384   7.209  17.610  0.00  0.00    +0.000 S 
ATOM      4  C   UNL     1       6.607   6.271  16.779  0.00  0.00    +0.000 C 
ATOM      5  O   UNL     1       7.736   6.685  16.575  0.00  0.00    +0.000 OA
ATOM      6  N   UNL     1       6.095   5.058  16.406  0.00  0.00    +0.000 N 
ATOM      7  C   UNL     1       4.828   4.765  16.835  0.00  0.00    +0.000 C 
ATOM      8  O   UNL     1       4.300   3.667  16.704  0.00  0.00    +0.000 OA
ENDROOT
BRANCH   1  12
ATOM      9  C   UNL     1       1.129   9.405  19.729  0.00  0.00    +0.000 A 
ATOM     10  C   UNL     1       1.402   9.335  18.362  0.00  0.00    +0.000 A 
ATOM     11  C   UNL     1       1.994   8.198  17.806  0.00  0.00    +0.000 A 
ATOM     12  C   UNL     1       2.329   7.108  18.611  0.00  0.00    +0.000 A 
ATOM     13  C   UNL     1       2.076   7.174  19.984  0.00  0.00    +0.000 A 
ATOM     14  C   UNL     1       1.488   8.321  20.540  0.00  0.00    +0.000 A 
BRANCH   9  18
ATOM     15  C   UNL     1      -1.021  12.325  20.783  0.00  0.00    +0.000 C 
ATOM     16  C   UNL     1      -0.706  11.072  20.007  0.00  0.00    +0.000 C 
ATOM     17  O   UNL     1      -1.506  10.634  19.186  0.00  0.00    +0.000 OA
ATOM     18  N   UNL     1       0.524  10.527  20.337  0.00  0.00    +0.000 N 
ATOM     19  H   UNL     1       1.001  10.920  21.140  0.00  0.00    +0.000 HD
ENDBRANCH   9  18
ENDBRANCH   1  12
BRANCH   6  20
ATOM     20  C   UNL     1       6.879   4.123  15.616  0.00  0.00    +0.000 C 
BRANCH  20  21
ATOM     21  C   UNL     1       6.873   4.471  14.136  0.00  0.00    +0.000 C 
ATOM     22  O   UNL     1       6.199   3.881  13.305  0.00  0.00    +0.000 OA
BRANCH  21  23
ATOM     23  O   UNL     1       7.761   5.429  13.782  0.00  0.00    +0.000 OA
ATOM     24  H   UNL     1       7.831   5.599  12.812  0.00  0.00    +0.000 HD
ENDBRANCH  21  23
ENDBRANCH  20  21
ENDBRANCH   6  20
TORSDOF 5
ENDMDL
MODEL 4
REMARK VINA RESULT:      -7.4      0.597      1.184
REMARK  Name = 
REMARK  6 active torsions:
REMARK  status: ('A' for Active; 'I' for Inactive)
REMARK    1  A    between atoms: C_1  and  C_2
REMARK    2  A    between atoms: N_4  and  C_5
REMARK    3  A    between atoms: C_8  and  C_9
REMARK    4  A    between atoms: N_14  and  C_15
REMARK    5  A    between atoms: C_15  and  C_16
REMARK    6  A    between atoms: C_16  and  O_18
REMARK                            x       y       z     vdW  Elec       q    Type
REMARK                         _______ _______ _______ _____ _____    ______ ____
ROOT
ATOM      1  C   UNL     1       3.298   7.831  17.431  0.00  0.00    +0.000 C 
ATOM      2  C   UNL     1       3.657   6.540  17.395  0.00  0.00    +0.000 C 
ATOM      3  S   UNL     1       3.068   5.263  18.386  0.00  0.00    +0.000 S 
ATOM      4  C   UNL     1       4.096   4.073  17.616  0.00  0.00    +0.000 C 
ATOM      5  O   UNL     1       4.071   2.888  17.905  0.00  0.00    +0.000 OA
ATOM      6  N   UNL     1       4.900   4.678  16.689  0.00  0.00    +0.000 N 
ATOM      7  C   UNL     1       4.682   6.009  16.457  0.00  0.00    +0.000 C 
ATOM      8  O   UNL     1       5.220   6.643  15.558  0.00  0.00    +0.000 OA
ENDROOT
BRANCH   1  12
ATOM      9  C   UNL     1       0.536   9.411  20.304  0.00  0.00    +0.000 A 
ATOM     10  C   UNL     1       1.286   8.266  20.574  0.00  0.00    +0.000 A 
ATOM     11  C   UNL     1       2.192   7.765  19.635  0.00  0.00    +0.000 A 
ATOM     12  C   UNL     1       2.359   8.399  18.403  0.00  0.00    +0.000 A 
ATOM     13  C   UNL     1       1.601   9.537  18.116  0.00  0.00    +0.000 A 
ATOM     14  C   UNL     1       0.687  10.033  19.058  0.00  0.00    +0.000 A 
BRANCH   9  18
ATOM     15  C   UNL     1      -1.399  10.659  23.297  0.00  0.00    +0.000 C 
ATOM     16  C   UNL     1      -0.183  10.128  22.583  0.00  0.00    +0.000 C 
ATOM     17  O   UNL     1       0.847   9.893  23.205  0.00  0.00    +0.000 OA
ATOM     18  N   UNL     1      -0.386   9.963  21.222  0.00  0.00    +0.000 N 
ATOM     19  H   UNL     1      -1.241  10.342  20.834  0.00  0.00    +0.000 HD
ENDBRANCH   9  18
ENDBRANCH   1  12
BRANCH   6  20
ATOM     20  C   UNL     1       5.917   3.925  15.972  0.00  0.00    +0.000 C 
BRANCH  20  21
ATOM     21  C   UNL     1       7.308   4.507  16.163  0.00  0.00    +0.000 C 
ATOM     22  O   UNL     1       7.973   4.351  17.177  0.00  0.00    +0.000 OA
BRANCH  21  23
ATOM     23  O   UNL     1       7.722   5.310  15.156  0.00  0.00    +0.000 OA
ATOM     24  H   UNL     1       7.084   6.015  14.892  0.00  0.00    +0.000 HD
ENDBRANCH  21  23
ENDBRANCH  20  21
ENDBRANCH   6  20
TORSDOF 5
ENDMDL
MODEL 5
REMARK VINA RESULT:      -7.3      1.634      2.526
REMARK  Name = 
REMARK  6 active torsions:
REMARK  status: ('A' for Active; 'I' for Inactive)
REMARK    1  A    between atoms: C_1  and  C_2
REMARK    2  A    between atoms: N_4  and  C_5
REMARK    3  A    between atoms: C_8  and  C_9
REMARK    4  A    between atoms: N_14  and  C_15
REMARK    5  A    between atoms: C_15  and  C_16
REMARK    6  A    between atoms: C_16  and  O_18
REMARK                            x       y       z     vdW  Elec       q    Type
REMARK                         _______ _______ _______ _____ _____    ______ ____
ROOT
ATOM      1  C   UNL     1       2.909   6.222  18.114  0.00  0.00    +0.000 C 
ATOM      2  C   UNL     1       4.171   6.199  17.661  0.00  0.00    +0.000 C 
ATOM      3  S   UNL     1       5.305   7.493  17.662  0.00  0.00    +0.000 S 
ATOM      4  C   UNL     1       6.549   6.519  16.906  0.00  0.00    +0.000 C 
ATOM      5  O   UNL     1       7.675   6.935  16.685  0.00  0.00    +0.000 OA
ATOM      6  N   UNL     1       6.057   5.278  16.610  0.00  0.00    +0.000 N 
ATOM      7  C   UNL     1       4.790   4.995  17.046  0.00  0.00    +0.000 C 
ATOM      8  O   UNL     1       4.278   3.884  16.984  0.00  0.00    +0.000 OA
ENDROOT
BRANCH   1  12
ATOM      9  C   UNL     1       0.923   9.667  19.715  0.00  0.00    +0.000 A 
ATOM     10  C   UNL     1       1.305   8.605  20.535  0.00  0.00    +0.000 A 
ATOM     11  C   UNL     1       1.962   7.491  20.006  0.00  0.00    +0.000 A 
ATOM     12  C   UNL     1       2.243   7.417  18.640  0.00  0.00    +0.000 A 
ATOM     13  C   UNL     1       1.849   8.468  17.807  0.00  0.00    +0.000 A 
ATOM     14  C   UNL     1       1.184   9.582  18.342  0.00  0.00    +0.000 A 
BRANCH   9  18
ATOM     15  C   UNL     1      -0.118  12.944  21.278  0.00  0.00    +0.000 C 
ATOM     16  C   UNL     1       0.872  11.926  20.774  0.00  0.00    +0.000 C 
ATOM     17  O   UNL     1       2.077  12.125  20.888  0.00  0.00    +0.000 OA
ATOM     18  N   UNL     1       0.265  10.819  20.203  0.00  0.00    +0.000 N 
ATOM     19  H   UNL     1      -0.734  10.870  20.048  0.00  0.00    +0.000 HD
ENDBRANCH   9  18
ENDBRANCH   1  12
BRANCH   6  20
ATOM     20  C   UNL     1       6.861   4.303  15.890  0.00  0.00    +0.000 C 
BRANCH  20  21
ATOM     21  C   UNL     1       6.858   4.547  14.390  0.00  0.00    +0.000 C 
ATOM     22  O   UNL     1       6.149   3.933  13.606  0.00  0.00    +0.000 OA
BRANCH  21  23
ATOM     23  O   UNL     1       7.787   5.434  13.964  0.00  0.00    +0.000 OA
ATOM     24  H   UNL     1       8.274   5.908  14.680  0.00  0.00    +0.000 HD
ENDBRANCH  21  23
ENDBRANCH  20  21
ENDBRANCH   6  20
TORSDOF 5
ENDMDL
MODEL 6
REMARK VINA RESULT:      -7.2      1.111      1.183
REMARK  Name = 
REMARK  6 active torsions:
REMARK  status: ('A' for Active; 'I' for Inactive)
REMARK    1  A    between atoms: C_1  and  C_2
REMARK    2  A    between atoms: N_4  and  C_5
REMARK    3  A    between atoms: C_8  and  C_9
REMARK    4  A    between atoms: N_14  and  C_15
REMARK    5  A    between atoms: C_15  and  C_16
REMARK    6  A    between atoms: C_16  and  O_18
REMARK                            x       y       z     vdW  Elec       q    Type
REMARK                         _______ _______ _______ _____ _____    ______ ____
ROOT
ATOM      1  C   UNL     1       3.332   7.777  17.549  0.00  0.00    +0.000 C 
ATOM      2  C   UNL     1       4.127   6.724  17.787  0.00  0.00    +0.000 C 
ATOM      3  S   UNL     1       4.137   5.715  19.180  0.00  0.00    +0.000 S 
ATOM      4  C   UNL     1       5.445   4.728  18.565  0.00  0.00    +0.000 C 
ATOM      5  O   UNL     1       5.877   3.752  19.158  0.00  0.00    +0.000 OA
ATOM      6  N   UNL     1       5.884   5.225  17.369  0.00  0.00    +0.000 N 
ATOM      7  C   UNL     1       5.179   6.272  16.839  0.00  0.00    +0.000 C 
ATOM      8  O   UNL     1       5.365   6.720  15.714  0.00  0.00    +0.000 OA
ENDROOT
BRANCH   1  12
ATOM      9  C   UNL     1       0.477   9.391  20.310  0.00  0.00    +0.000 A 
ATOM     10  C   UNL     1       0.709   9.993  19.072  0.00  0.00    +0.000 A 
ATOM     11  C   UNL     1       1.633   9.454  18.175  0.00  0.00    +0.000 A 
ATOM     12  C   UNL     1       2.350   8.301  18.503  0.00  0.00    +0.000 A 
ATOM     13  C   UNL     1       2.138   7.699  19.746  0.00  0.00    +0.000 A 
ATOM     14  C   UNL     1       1.213   8.248  20.648  0.00  0.00    +0.000 A 
BRANCH   9  18
ATOM     15  C   UNL     1      -1.463  11.283  22.941  0.00  0.00    +0.000 C 
ATOM     16  C   UNL     1      -0.349  11.085  21.944  0.00  0.00    +0.000 C 
ATOM     17  O   UNL     1       0.523  11.938  21.813  0.00  0.00    +0.000 OA
ATOM     18  N   UNL     1      -0.453   9.891  21.248  0.00  0.00    +0.000 N 
ATOM     19  H   UNL     1      -1.310   9.364  21.363  0.00  0.00    +0.000 HD
ENDBRANCH   9  18
ENDBRANCH   1  12
BRANCH   6  20
ATOM     20  C   UNL     1       7.030   4.642  16.689  0.00  0.00    +0.000 C 
BRANCH  20  21
ATOM     21  C   UNL     1       6.786   4.459  15.199  0.00  0.00    +0.000 C 
ATOM     22  O   UNL     1       6.053   3.599  14.734  0.00  0.00    +0.000 OA
BRANCH  21  23
ATOM     23  O   UNL     1       7.533   5.262  14.407  0.00  0.00    +0.000 OA
ATOM     24  H   UNL     1       8.507   5.112  14.456  0.00  0.00    +0.000 HD
ENDBRANCH  21  23
ENDBRANCH  20  21
ENDBRANCH   6  20
TORSDOF 5
ENDMDL
MODEL 7
REMARK VINA RESULT:      -7.0      1.100      1.564
REMARK  Name = 
REMARK  6 active torsions:
REMARK  status: ('A' for Active; 'I' for Inactive)
REMARK    1  A    between atoms: C_1  and  C_2
REMARK    2  A    between atoms: N_4  and  C_5
REMARK    3  A    between atoms: C_8  and  C_9
REMARK    4  A    between atoms: N_14  and  C_15
REMARK    5  A    between atoms: C_15  and  C_16
REMARK    6  A    between atoms: C_16  and  O_18
REMARK                            x       y       z     vdW  Elec       q    Type
REMARK                         _______ _______ _______ _____ _____    ______ ____
ROOT
ATOM      1  C   UNL     1       3.329   7.791  17.503  0.00  0.00    +0.000 C 
ATOM      2  C   UNL     1       4.120   6.735  17.744  0.00  0.00    +0.000 C 
ATOM      3  S   UNL     1       4.136   5.739  19.148  0.00  0.00    +0.000 S 
ATOM      4  C   UNL     1       5.432   4.738  18.530  0.00  0.00    +0.000 C 
ATOM      5  O   UNL     1       5.862   3.765  19.129  0.00  0.00    +0.000 OA
ATOM      6  N   UNL     1       5.863   5.220  17.325  0.00  0.00    +0.000 N 
ATOM      7  C   UNL     1       5.160   6.267  16.791  0.00  0.00    +0.000 C 
ATOM      8  O   UNL     1       5.338   6.702  15.660  0.00  0.00    +0.000 OA
ENDROOT
BRANCH   1  12
ATOM      9  C   UNL     1       0.480   9.288  20.335  0.00  0.00    +0.000 A 
ATOM     10  C   UNL     1       1.297   8.197  20.636  0.00  0.00    +0.000 A 
ATOM     11  C   UNL     1       2.230   7.723  19.711  0.00  0.00    +0.000 A 
ATOM     12  C   UNL     1       2.359   8.330  18.460  0.00  0.00    +0.000 A 
ATOM     13  C   UNL     1       1.535   9.413  18.142  0.00  0.00    +0.000 A 
ATOM     14  C   UNL     1       0.594   9.882  19.072  0.00  0.00    +0.000 A 
BRANCH   9  18
ATOM     15  C   UNL     1      -1.501  11.210  22.912  0.00  0.00    +0.000 C 
ATOM     16  C   UNL     1      -0.350  10.983  21.966  0.00  0.00    +0.000 C 
ATOM     17  O   UNL     1       0.565  11.798  21.897  0.00  0.00    +0.000 OA
ATOM     18  N   UNL     1      -0.472   9.810  21.239  0.00  0.00    +0.000 N 
ATOM     19  H   UNL     1      -1.356   9.321  21.300  0.00  0.00    +0.000 HD
ENDBRANCH   9  18
ENDBRANCH   1  12
BRANCH   6  20
ATOM     20  C   UNL     1       6.999   4.623  16.640  0.00  0.00    +0.000 C 
BRANCH  20  21
ATOM     21  C   UNL     1       6.751   4.455  15.150  0.00  0.00    +0.000 C 
ATOM     22  O   UNL     1       6.028   3.590  14.677  0.00  0.00    +0.000 OA
BRANCH  21  23
ATOM     23  O   UNL     1       7.484   5.277  14.364  0.00  0.00    +0.000 OA
ATOM     24  H   UNL     1       7.598   4.976  13.431  0.00  0.00    +0.000 HD
ENDBRANCH  21  23
ENDBRANCH  20  21
ENDBRANCH   6  20
TORSDOF 5
ENDMDL
MODEL 8
REMARK VINA RESULT:      -7.0      2.434      3.090
REMARK  Name = 
REMARK  6 active torsions:
REMARK  status: ('A' for Active; 'I' for Inactive)
REMARK    1  A    between atoms: C_1  and  C_2
REMARK    2  A    between atoms: N_4  and  C_5
REMARK    3  A    between atoms: C_8  and  C_9
REMARK    4  A    between atoms: N_14  and  C_15
REMARK    5  A    between atoms: C_15  and  C_16
REMARK    6  A    between atoms: C_16  and  O_18
REMARK                            x       y       z     vdW  Elec       q    Type
REMARK                         _______ _______ _______ _____ _____    ______ ____
ROOT
ATOM      1  C   UNL     1       2.325   7.482  19.228  0.00  0.00    +0.000 C 
ATOM      2  C   UNL     1       2.455   6.188  19.555  0.00  0.00    +0.000 C 
ATOM      3  S   UNL     1       1.627   5.336  20.800  0.00  0.00    +0.000 S 
ATOM      4  C   UNL     1       2.453   3.834  20.441  0.00  0.00    +0.000 C 
ATOM      5  O   UNL     1       2.215   2.789  21.025  0.00  0.00    +0.000 OA
ATOM      6  N   UNL     1       3.374   4.031  19.449  0.00  0.00    +0.000 N 
ATOM      7  C   UNL     1       3.396   5.268  18.864  0.00  0.00    +0.000 C 
ATOM      8  O   UNL     1       4.061   5.543  17.872  0.00  0.00    +0.000 OA
ENDROOT
BRANCH   1  12
ATOM      9  C   UNL     1      -0.144  10.325  21.279  0.00  0.00    +0.000 A 
ATOM     10  C   UNL     1       0.010  10.366  19.892  0.00  0.00    +0.000 A 
ATOM     11  C   UNL     1       0.808   9.429  19.232  0.00  0.00    +0.000 A 
ATOM     12  C   UNL     1       1.474   8.433  19.950  0.00  0.00    +0.000 A 
ATOM     13  C   UNL     1       1.339   8.393  21.340  0.00  0.00    +0.000 A 
ATOM     14  C   UNL     1       0.543   9.341  22.001  0.00  0.00    +0.000 A 
BRANCH   9  18
ATOM     15  C   UNL     1      -1.644  13.233  23.164  0.00  0.00    +0.000 C 
ATOM     16  C   UNL     1      -0.605  12.548  22.314  0.00  0.00    +0.000 C 
ATOM     17  O   UNL     1       0.412  13.145  21.977  0.00  0.00    +0.000 OA
ATOM     18  N   UNL     1      -0.946  11.244  21.992  0.00  0.00    +0.000 N 
ATOM     19  H   UNL     1      -1.886  10.944  22.219  0.00  0.00    +0.000 HD
ENDBRANCH   9  18
ENDBRANCH   1  12
BRANCH   6  20
ATOM     20  C   UNL     1       4.263   2.960  19.027  0.00  0.00    +0.000 C 
BRANCH  20  21
ATOM     21  C   UNL     1       3.544   1.902  18.206  0.00  0.00    +0.000 C 
ATOM     22  O   UNL     1       2.537   2.125  17.548  0.00  0.00    +0.000 OA
BRANCH  21  23
ATOM     23  O   UNL     1       4.044   0.653  18.340  0.00  0.00    +0.000 OA
ATOM     24  H   UNL     1       3.541  -0.054  17.870  0.00  0.00    +0.000 HD
ENDBRANCH  21  23
ENDBRANCH  20  21
ENDBRANCH   6  20
TORSDOF 5
ENDMDL
MODEL 9
REMARK VINA RESULT:      -6.9      1.223      1.458
REMARK  Name = 
REMARK  6 active torsions:
REMARK  status: ('A' for Active; 'I' for Inactive)
REMARK    1  A    between atoms: C_1  and  C_2
REMARK    2  A    between atoms: N_4  and  C_5
REMARK    3  A    between atoms: C_8  and  C_9
REMARK    4  A    between atoms: N_14  and  C_15
REMARK    5  A    between atoms: C_15  and  C_16
REMARK    6  A    between atoms: C_16  and  O_18
REMARK                            x       y       z     vdW  Elec       q    Type
REMARK                         _______ _______ _______ _____ _____    ______ ____
ROOT
ATOM      1  C   UNL     1       2.715   8.122  17.956  0.00  0.00    +0.000 C 
ATOM      2  C   UNL     1       3.149   6.878  18.205  0.00  0.00    +0.000 C 
ATOM      3  S   UNL     1       2.634   5.823  19.463  0.00  0.00    +0.000 S 
ATOM      4  C   UNL     1       3.731   4.552  18.966  0.00  0.00    +0.000 C 
ATOM      5  O   UNL     1       3.774   3.461  19.512  0.00  0.00    +0.000 OA
ATOM      6  N   UNL     1       4.500   4.979  17.919  0.00  0.00    +0.000 N 
ATOM      7  C   UNL     1       4.205   6.211  17.398  0.00  0.00    +0.000 C 
ATOM      8  O   UNL     1       4.708   6.658  16.374  0.00  0.00    +0.000 OA
ENDROOT
BRANCH   1  12
ATOM      9  C   UNL     1      -0.113  10.289  20.341  0.00  0.00    +0.000 A 
ATOM     10  C   UNL     1       0.069  10.580  18.988  0.00  0.00    +0.000 A 
ATOM     11  C   UNL     1       0.985   9.862  18.216  0.00  0.00    +0.000 A 
ATOM     12  C   UNL     1       1.744   8.838  18.788  0.00  0.00    +0.000 A 
ATOM     13  C   UNL     1       1.582   8.549  20.145  0.00  0.00    +0.000 A 
ATOM     14  C   UNL     1       0.666   9.279  20.919  0.00  0.00    +0.000 A 
BRANCH   9  18
ATOM     15  C   UNL     1      -2.177  11.792  23.123  0.00  0.00    +0.000 C 
ATOM     16  C   UNL     1      -0.997  11.055  22.544  0.00  0.00    +0.000 C 
ATOM     17  O   UNL     1      -0.130  10.599  23.282  0.00  0.00    +0.000 OA
ATOM     18  N   UNL     1      -1.032  10.981  21.161  0.00  0.00    +0.000 N 
ATOM     19  H   UNL     1      -1.735  11.535  20.687  0.00  0.00    +0.000 HD
ENDBRANCH   9  18
ENDBRANCH   1  12
BRANCH   6  20
ATOM     20  C   UNL     1       5.560   4.145  17.377  0.00  0.00    +0.000 C 
BRANCH  20  21
ATOM     21  C   UNL     1       6.941   4.607  17.815  0.00  0.00    +0.000 C 
ATOM     22  O   UNL     1       7.923   4.589  17.086  0.00  0.00    +0.000 OA
BRANCH  21  23
ATOM     23  O   UNL     1       7.029   4.948  19.121  0.00  0.00    +0.000 OA
ATOM     24  H   UNL     1       7.641   4.391  19.659  0.00  0.00    +0.000 HD
ENDBRANCH  21  23
ENDBRANCH  20  21
ENDBRANCH   6  20
TORSDOF 5
ENDMDL
