MODEL 1
REMARK VINA RESULT:      -7.6      0.000      0.000
REMARK  Name = 
REMARK  5 active torsions:
REMARK  status: ('A' for Active; 'I' for Inactive)
REMARK    1  A    between atoms: N_1  and  C_2
REMARK    2  A    between atoms: C_4  and  C_5
REMARK    3  A    between atoms: C_5  and  O_7
REMARK    4  A    between atoms: C_10  and  N_11
REMARK    5  A    between atoms: N_11  and  C_12
REMARK                            x       y       z     vdW  Elec       q    Type
REMARK                         _______ _______ _______ _____ _____    ______ ____
ROOT
ATOM      1  C   UNL     1       5.284   4.275  17.904  0.00  0.00    +0.000 A 
ATOM      2  C   UNL     1       6.123   4.136  16.796  0.00  0.00    +0.000 A 
ATOM      3  C   UNL     1       6.083   5.073  15.765  0.00  0.00    +0.000 A 
ATOM      4  C   UNL     1       5.251   6.193  15.883  0.00  0.00    +0.000 A 
ATOM      5  C   UNL     1       4.434   6.357  17.025  0.00  0.00    +0.000 A 
ATOM      6  C   UNL     1       4.445   5.414  18.059  0.00  0.00    +0.000 A 
ENDROOT
BRANCH   1   7
ATOM      7  N   UNL     1       5.391   3.349  18.973  0.00  0.00    +0.000 N 
ATOM      8  H   UNL     1       6.305   2.907  18.999  0.00  0.00    +0.000 HD
ATOM      9  H   UNL     1       4.649   2.657  18.875  0.00  0.00    +0.000 HD
ENDBRANCH   1   7
BRANCH   3  10
ATOM     10  C   UNL     1       6.869   4.755  14.542  0.00  0.00    +0.000 C 
ATOM     11  O   UNL     1       7.755   5.476  14.125  0.00  0.00    +0.000 OA
BRANCH  10  12
ATOM     12  O   UNL     1       6.493   3.615  13.924  0.00  0.00    +0.000 OA
ATOM     13  H   UNL     1       6.791   2.797  14.351  0.00  0.00    +0.000 HD
ENDBRANCH  10  12
ENDBRANCH   3  10
BRANCH   6  14
ATOM     14  N   UNL     1       3.650   5.449  19.211  0.00  0.00    +0.000 N 
ATOM     15  H   UNL     1       4.123   6.012  19.917  0.00  0.00    +0.000 HD
BRANCH  14  16
ATOM     16  C   UNL     1       2.188   5.504  19.268  0.00  0.00    +0.000 C 
ATOM     17  C   UNL     1       1.563   4.448  18.345  0.00  0.00    +0.000 C 
ATOM     18  C   UNL     1       1.822   3.009  18.796  0.00  0.00    +0.000 C 
ATOM     19  C   UNL     1       1.424   2.751  20.245  0.00  0.00    +0.000 C 
ATOM     20  C   UNL     1       1.923   3.820  21.211  0.00  0.00    +0.000 C 
ATOM     21  C   UNL     1       1.706   5.250  20.711  0.00  0.00    +0.000 C 
ENDBRANCH  14  16
ENDBRANCH   6  14
TORSDOF 5
ENDMDL
MODEL 2
REMARK VINA RESULT:      -7.2      2.059      2.402
REMARK  Name = 
REMARK  5 active torsions:
REMARK  status: ('A' for Active; 'I' for Inactive)
REMARK    1  A    between atoms: N_1  and  C_2
REMARK    2  A    between atoms: C_4  and  C_5
REMARK    3  A    between atoms: C_5  and  O_7
REMARK    4  A    between atoms: C_10  and  N_11
REMARK    5  A    between atoms: N_11  and  C_12
REMARK                            x       y       z     vdW  Elec       q    Type
REMARK                         _______ _______ _______ _____ _____    ______ ____
ROOT
ATOM      1  C   UNL     1       5.153   4.240  18.632  0.00  0.00    +0.000 A 
ATOM      2  C   UNL     1       6.297   5.041  18.595  0.00  0.00    +0.000 A 
ATOM      3  C   UNL     1       6.281   6.254  17.909  0.00  0.00    +0.000 A 
ATOM      4  C   UNL     1       5.090   6.698  17.322  0.00  0.00    +0.000 A 
ATOM      5  C   UNL     1       3.920   5.908  17.397  0.00  0.00    +0.000 A 
ATOM      6  C   UNL     1       3.925   4.677  18.063  0.00  0.00    +0.000 A 
ENDROOT
BRANCH   1   7
ATOM      7  N   UNL     1       5.171   3.044  19.394  0.00  0.00    +0.000 N 
ATOM      8  H   UNL     1       5.727   3.143  20.238  0.00  0.00    +0.000 HD
ATOM      9  H   UNL     1       5.526   2.292  18.805  0.00  0.00    +0.000 HD
ENDBRANCH   1   7
BRANCH   3  10
ATOM     10  C   UNL     1       7.585   6.955  17.760  0.00  0.00    +0.000 C 
ATOM     11  O   UNL     1       7.962   7.423  16.703  0.00  0.00    +0.000 OA
BRANCH  10  12
ATOM     12  O   UNL     1       8.321   6.999  18.892  0.00  0.00    +0.000 OA
ATOM     13  H   UNL     1       7.857   6.718  19.695  0.00  0.00    +0.000 HD
ENDBRANCH  10  12
ENDBRANCH   3  10
BRANCH   6  14
ATOM     14  N   UNL     1       2.844   3.793  18.163  0.00  0.00    +0.000 N 
ATOM     15  H   UNL     1       3.202   2.861  18.369  0.00  0.00    +0.000 HD
BRANCH  14  16
ATOM     16  C   UNL     1       1.527   4.078  18.736  0.00  0.00    +0.000 C 
ATOM     17  C   UNL     1       0.833   2.783  19.187  0.00  0.00    +0.000 C 
ATOM     18  C   UNL     1       1.526   2.095  20.365  0.00  0.00    +0.000 C 
ATOM     19  C   UNL     1       1.751   3.020  21.556  0.00  0.00    +0.000 C 
ATOM     20  C   UNL     1       2.342   4.372  21.172  0.00  0.00    +0.000 C 
ATOM     21  C   UNL     1       1.671   5.013  19.954  0.00  0.00    +0.000 C 
ENDBRANCH  14  16
ENDBRANCH   6  14
TORSDOF 5
ENDMDL
MODEL 3
REMARK VINA RESULT:      -7.1      0.763      1.077
REMARK  Name = 
REMARK  5 active torsions:
REMARK  status: ('A' for Active; 'I' for Inactive)
REMARK    1  A    between atoms: N_1  and  C_2
REMARK    2  A    between atoms: C_4  and  C_5
REMARK    3  A    between atoms: C_5  and  O_7
REMARK    4  A    between atoms: C_10  and  N_11
REMARK    5  A    between atoms: N_11  and  C_12
REMARK                            x       y       z     vdW  Elec       q    Type
REMARK                         _______ _______ _______ _____ _____    ______ ____
ROOT
ATOM      1  C   UNL     1       4.866   3.746  17.016  0.00  0.00    +0.000 A 
ATOM      2  C   UNL     1       5.696   3.708  15.892  0.00  0.00    +0.000 A 
ATOM      3  C   UNL     1       6.134   4.894  15.305  0.00  0.00    +0.000 A 
ATOM      4  C   UNL     1       5.799   6.119  15.893  0.00  0.00    +0.000 A 
ATOM      5  C   UNL     1       4.995   6.156  17.056  0.00  0.00    +0.000 A 
ATOM      6  C   UNL     1       4.528   4.976  17.645  0.00  0.00    +0.000 A 
ENDROOT
BRANCH   1   7
ATOM      7  N   UNL     1       4.489   2.527  17.637  0.00  0.00    +0.000 N 
ATOM      8  H   UNL     1       4.320   2.647  18.631  0.00  0.00    +0.000 HD
ATOM      9  H   UNL     1       5.221   1.839  17.467  0.00  0.00    +0.000 HD
ENDBRANCH   1   7
BRANCH   3  10
ATOM     10  C   UNL     1       6.857   4.772  14.010  0.00  0.00    +0.000 C 
ATOM     11  O   UNL     1       6.529   3.981  13.147  0.00  0.00    +0.000 OA
BRANCH  10  12
ATOM     12  O   UNL     1       7.922   5.593  13.893  0.00  0.00    +0.000 OA
ATOM     13  H   UNL     1       7.727   6.537  13.996  0.00  0.00    +0.000 HD
ENDBRANCH  10  12
ENDBRANCH   3  10
BRANCH   6  14
ATOM     14  N   UNL     1       3.694   4.891  18.767  0.00  0.00    +0.000 N 
ATOM     15  H   UNL     1       4.253   5.056  19.603  0.00  0.00    +0.000 HD
BRANCH  14  16
ATOM     16  C   UNL     1       2.305   5.346  18.865  0.00  0.00    +0.000 C 
ATOM     17  C   UNL     1       1.368   4.419  18.076  0.00  0.00    +0.000 C 
ATOM     18  C   UNL     1       1.260   3.011  18.665  0.00  0.00    +0.000 C 
ATOM     19  C   UNL     1       0.894   3.003  20.145  0.00  0.00    +0.000 C 
ATOM     20  C   UNL     1       1.715   3.980  20.979  0.00  0.00    +0.000 C 
ATOM     21  C   UNL     1       1.859   5.365  20.341  0.00  0.00    +0.000 C 
ENDBRANCH  14  16
ENDBRANCH   6  14
TORSDOF 5
ENDMDL
MODEL 4
REMARK VINA RESULT:      -6.9      1.355      2.016
REMARK  Name = 
REMARK  5 active torsions:
REMARK  status: ('A' for Active; 'I' for Inactive)
REMARK    1  A    between atoms: N_1  and  C_2
REMARK    2  A    between atoms: C_4  and  C_5
REMARK    3  A    between atoms: C_5  and  O_7
REMARK    4  A    between atoms: C_10  and  N_11
REMARK    5  A    between atoms: N_11  and  C_12
REMARK                            x       y       z     vdW  Elec       q    Type
REMARK                         _______ _______ _______ _____ _____    ______ ____
ROOT
ATOM      1  C   UNL     1       6.020   4.552  18.183  0.00  0.00    +0.000 A 
ATOM      2  C   UNL     1       6.738   4.753  17.001  0.00  0.00    +0.000 A 
ATOM      3  C   UNL     1       6.114   4.592  15.766  0.00  0.00    +0.000 A 
ATOM      4  C   UNL     1       4.745   4.301  15.718  0.00  0.00    +0.000 A 
ATOM      5  C   UNL     1       4.008   4.141  16.913  0.00  0.00    +0.000 A 
ATOM      6  C   UNL     1       4.624   4.278  18.162  0.00  0.00    +0.000 A 
ENDROOT
BRANCH   1   7
ATOM      7  N   UNL     1       6.657   4.789  19.427  0.00  0.00    +0.000 N 
ATOM      8  H   UNL     1       7.609   5.122  19.307  0.00  0.00    +0.000 HD
ATOM      9  H   UNL     1       6.633   3.928  19.971  0.00  0.00    +0.000 HD
ENDBRANCH   1   7
BRANCH   3  10
ATOM     10  C   UNL     1       6.988   4.641  14.563  0.00  0.00    +0.000 C 
ATOM     11  O   UNL     1       7.847   5.487  14.410  0.00  0.00    +0.000 OA
BRANCH  10  12
ATOM     12  O   UNL     1       6.724   3.682  13.648  0.00  0.00    +0.000 OA
ATOM     13  H   UNL     1       7.440   3.046  13.501  0.00  0.00    +0.000 HD
ENDBRANCH  10  12
ENDBRANCH   3  10
BRANCH   6  14
ATOM     14  N   UNL     1       4.008   4.099  19.407  0.00  0.00    +0.000 N 
ATOM     15  H   UNL     1       3.350   4.864  19.558  0.00  0.00    +0.000 HD
BRANCH  14  16
ATOM     16  C   UNL     1       3.613   2.828  20.018  0.00  0.00    +0.000 C 
ATOM     17  C   UNL     1       2.715   3.064  21.241  0.00  0.00    +0.000 C 
ATOM     18  C   UNL     1       1.349   3.661  20.893  0.00  0.00    +0.000 C 
ATOM     19  C   UNL     1       0.599   2.870  19.827  0.00  0.00    +0.000 C 
ATOM     20  C   UNL     1       1.460   2.507  18.623  0.00  0.00    +0.000 C 
ATOM     21  C   UNL     1       2.844   1.967  18.995  0.00  0.00    +0.000 C 
ENDBRANCH  14  16
ENDBRANCH   6  14
TORSDOF 5
ENDMDL
MODEL 5
REMARK VINA RESULT:      -6.9      0.865      1.653
REMARK  Name = 
REMARK  5 active torsions:
REMARK  status: ('A' for Active; 'I' for Inactive)
REMARK    1  A    between atoms: N_1  and  C_2
REMARK    2  A    between atoms: C_4  and  C_5
REMARK    3  A    between atoms: C_5  and  O_7
REMARK    4  A    between atoms: C_10  and  N_11
REMARK    5  A    between atoms: N_11  and  C_12
REMARK                            x       y       z     vdW  Elec       q    Type
REMARK                         _______ _______ _______ _____ _____    ______ ____
ROOT
ATOM      1  C   UNL     1       4.644   6.024  16.983  0.00  0.00    +0.000 A 
ATOM      2  C   UNL     1       5.379   5.968  15.797  0.00  0.00    +0.000 A 
ATOM      3  C   UNL     1       5.859   4.747  15.326  0.00  0.00    +0.000 A 
ATOM      4  C   UNL     1       5.535   3.570  16.010  0.00  0.00    +0.000 A 
ATOM      5  C   UNL     1       4.753   3.621  17.187  0.00  0.00    +0.000 A 
ATOM      6  C   UNL     1       4.282   4.841  17.686  0.00  0.00    +0.000 A 
ENDROOT
BRANCH   1   7
ATOM      7  N   UNL     1       4.107   7.267  17.406  0.00  0.00    +0.000 N 
ATOM      8  H   UNL     1       3.213   7.461  16.965  0.00  0.00    +0.000 HD
ATOM      9  H   UNL     1       4.786   7.998  17.200  0.00  0.00    +0.000 HD
ENDBRANCH   1   7
BRANCH   3  10
ATOM     10  C   UNL     1       6.786   4.796  14.163  0.00  0.00    +0.000 C 
ATOM     11  O   UNL     1       7.726   5.565  14.105  0.00  0.00    +0.000 OA
BRANCH  10  12
ATOM     12  O   UNL     1       6.473   3.935  13.171  0.00  0.00    +0.000 OA
ATOM     13  H   UNL     1       6.934   4.089  12.332  0.00  0.00    +0.000 HD
ENDBRANCH  10  12
ENDBRANCH   3  10
BRANCH   6  14
ATOM     14  N   UNL     1       3.541   5.018  18.860  0.00  0.00    +0.000 N 
ATOM     15  H   UNL     1       4.046   5.657  19.473  0.00  0.00    +0.000 HD
BRANCH  14  16
ATOM     16  C   UNL     1       2.083   5.091  18.975  0.00  0.00    +0.000 C 
ATOM     17  C   UNL     1       1.421   3.848  18.361  0.00  0.00    +0.000 C 
ATOM     18  C   UNL     1       1.713   2.556  19.128  0.00  0.00    +0.000 C 
ATOM     19  C   UNL     1       1.389   2.652  20.615  0.00  0.00    +0.000 C 
ATOM     20  C   UNL     1       1.927   3.917  21.273  0.00  0.00    +0.000 C 
ATOM     21  C   UNL     1       1.675   5.189  20.459  0.00  0.00    +0.000 C 
ENDBRANCH  14  16
ENDBRANCH   6  14
TORSDOF 5
ENDMDL
MODEL 6
REMARK VINA RESULT:      -6.8      1.181      1.339
REMARK  Name = 
REMARK  5 active torsions:
REMARK  status: ('A' for Active; 'I' for Inactive)
REMARK    1  A    between atoms: N_1  and  C_2
REMARK    2  A    between atoms: C_4  and  C_5
REMARK    3  A    between atoms: C_5  and  O_7
REMARK    4  A    between atoms: C_10  and  N_11
REMARK    5  A    between atoms: N_11  and  C_12
REMARK                            x       y       z     vdW  Elec       q    Type
REMARK                         _______ _______ _______ _____ _____    ______ ____
ROOT
ATOM      1  C   UNL     1       6.076   4.692  18.209  0.00  0.00    +0.000 A 
ATOM      2  C   UNL     1       6.757   4.904  17.008  0.00  0.00    +0.000 A 
ATOM      3  C   UNL     1       6.173   4.538  15.797  0.00  0.00    +0.000 A 
ATOM      4  C   UNL     1       4.870   4.025  15.788  0.00  0.00    +0.000 A 
ATOM      5  C   UNL     1       4.164   3.851  17.000  0.00  0.00    +0.000 A 
ATOM      6  C   UNL     1       4.744   4.193  18.226  0.00  0.00    +0.000 A 
ENDROOT
BRANCH   1   7
ATOM      7  N   UNL     1       6.661   5.136  19.423  0.00  0.00    +0.000 N 
ATOM      8  H   UNL     1       6.731   4.387  20.105  0.00  0.00    +0.000 HD
ATOM      9  H   UNL     1       6.108   5.912  19.782  0.00  0.00    +0.000 HD
ENDBRANCH   1   7
BRANCH   3  10
ATOM     10  C   UNL     1       7.033   4.625  14.586  0.00  0.00    +0.000 C 
ATOM     11  O   UNL     1       7.901   5.466  14.456  0.00  0.00    +0.000 OA
BRANCH  10  12
ATOM     12  O   UNL     1       6.745   3.708  13.637  0.00  0.00    +0.000 OA
ATOM     13  H   UNL     1       6.952   3.977  12.728  0.00  0.00    +0.000 HD
ENDBRANCH  10  12
ENDBRANCH   3  10
BRANCH   6  14
ATOM     14  N   UNL     1       4.160   4.025  19.488  0.00  0.00    +0.000 N 
ATOM     15  H   UNL     1       4.882   3.732  20.146  0.00  0.00    +0.000 HD
BRANCH  14  16
ATOM     16  C   UNL     1       3.094   4.837  20.078  0.00  0.00    +0.000 C 
ATOM     17  C   UNL     1       1.931   5.015  19.090  0.00  0.00    +0.000 C 
ATOM     18  C   UNL     1       1.180   3.717  18.787  0.00  0.00    +0.000 C 
ATOM     19  C   UNL     1       0.707   2.987  20.040  0.00  0.00    +0.000 C 
ATOM     20  C   UNL     1       1.783   2.864  21.113  0.00  0.00    +0.000 C 
ATOM     21  C   UNL     1       2.561   4.160  21.357  0.00  0.00    +0.000 C 
ENDBRANCH  14  16
ENDBRANCH   6  14
TORSDOF 5
ENDMDL
MODEL 7
REMARK VINA RESULT:      -6.7      1.839      2.410
REMARK  Name = 
REMARK  5 active torsions:
REMARK  status: ('A' for Active; 'I' for Inactive)
REMARK    1  A    between atoms: N_1  and  C_2
REMARK    2  A    between atoms: C_4  and  C_5
REMARK    3  A    between atoms: C_5  and  O_7
REMARK    4  A    between atoms: C_10  and  N_11
REMARK    5  A    between atoms: N_11  and  C_12
REMARK                            x       y       z     vdW  Elec       q    Type
REMARK                         _______ _______ _______ _____ _____    ______ ____
ROOT
ATOM      1  C   UNL     1       3.976   5.384  18.594  0.00  0.00    +0.000 A 
ATOM      2  C   UNL     1       5.276   5.681  18.180  0.00  0.00    +0.000 A 
ATOM      3  C   UNL     1       5.807   5.069  17.046  0.00  0.00    +0.000 A 
ATOM      4  C   UNL     1       5.003   4.214  16.283  0.00  0.00    +0.000 A 
ATOM      5  C   UNL     1       3.671   3.947  16.678  0.00  0.00    +0.000 A 
ATOM      6  C   UNL     1       3.130   4.536  17.826  0.00  0.00    +0.000 A 
ENDROOT
BRANCH   1   7
ATOM      7  N   UNL     1       3.432   6.070  19.711  0.00  0.00    +0.000 N 
ATOM      8  H   UNL     1       4.139   6.267  20.413  0.00  0.00    +0.000 HD
ATOM      9  H   UNL     1       2.675   5.508  20.097  0.00  0.00    +0.000 HD
ENDBRANCH   1   7
BRANCH   3  10
ATOM     10  C   UNL     1       7.254   5.295  16.779  0.00  0.00    +0.000 C 
ATOM     11  O   UNL     1       8.087   4.417  16.889  0.00  0.00    +0.000 OA
BRANCH  10  12
ATOM     12  O   UNL     1       7.560   6.565  16.434  0.00  0.00    +0.000 OA
ATOM     13  H   UNL     1       8.285   6.654  15.796  0.00  0.00    +0.000 HD
ENDBRANCH  10  12
ENDBRANCH   3  10
BRANCH   6  14
ATOM     14  N   UNL     1       1.845   4.313  18.336  0.00  0.00    +0.000 N 
ATOM     15  H   UNL     1       1.184   4.895  17.823  0.00  0.00    +0.000 HD
BRANCH  14  16
ATOM     16  C   UNL     1       1.295   3.039  18.806  0.00  0.00    +0.000 C 
ATOM     17  C   UNL     1       2.409   1.997  18.993  0.00  0.00    +0.000 C 
ATOM     18  C   UNL     1       3.380   2.335  20.126  0.00  0.00    +0.000 C 
ATOM     19  C   UNL     1       2.684   2.615  21.454  0.00  0.00    +0.000 C 
ATOM     20  C   UNL     1       1.498   3.564  21.329  0.00  0.00    +0.000 C 
ATOM     21  C   UNL     1       0.572   3.241  20.153  0.00  0.00    +0.000 C 
ENDBRANCH  14  16
ENDBRANCH   6  14
TORSDOF 5
ENDMDL
MODEL 8
REMARK VINA RESULT:      -6.7      2.082      2.921
REMARK  Name = 
REMARK  5 active torsions:
REMARK  status: ('A' for Active; 'I' for Inactive)
REMARK    1  A    between atoms: N_1  and  C_2
REMARK    2  A    between atoms: C_4  and  C_5
REMARK    3  A    between atoms: C_5  and  O_7
REMARK    4  A    between atoms: C_10  and  N_11
REMARK    5  A    between atoms: N_11  and  C_12
REMARK                            x       y       z     vdW  Elec       q    Type
REMARK                         _______ _______ _______ _____ _____    ______ ____
ROOT
ATOM      1  C   UNL     1       3.777   5.548  18.110  0.00  0.00    +0.000 A 
ATOM      2  C   UNL     1       4.965   6.282  18.060  0.00  0.00    +0.000 A 
ATOM      3  C   UNL     1       6.056   5.799  17.339  0.00  0.00    +0.000 A 
ATOM      4  C   UNL     1       5.927   4.615  16.604  0.00  0.00    +0.000 A 
ATOM      5  C   UNL     1       4.710   3.895  16.619  0.00  0.00    +0.000 A 
ATOM      6  C   UNL     1       3.613   4.353  17.356  0.00  0.00    +0.000 A 
ENDROOT
BRANCH   1   7
ATOM      7  N   UNL     1       2.658   6.092  18.793  0.00  0.00    +0.000 N 
ATOM      8  H   UNL     1       2.186   5.393  19.359  0.00  0.00    +0.000 HD
ATOM      9  H   UNL     1       2.027   6.498  18.104  0.00  0.00    +0.000 HD
ENDBRANCH   1   7
BRANCH   3  10
ATOM     10  C   UNL     1       7.337   6.542  17.487  0.00  0.00    +0.000 C 
ATOM     11  O   UNL     1       7.831   7.187  16.582  0.00  0.00    +0.000 OA
BRANCH  10  12
ATOM     12  O   UNL     1       7.914   6.412  18.702  0.00  0.00    +0.000 OA
ATOM     13  H   UNL     1       8.030   5.499  19.006  0.00  0.00    +0.000 HD
ENDBRANCH  10  12
ENDBRANCH   3  10
BRANCH   6  14
ATOM     14  N   UNL     1       2.378   3.705  17.480  0.00  0.00    +0.000 N 
ATOM     15  H   UNL     1       1.803   3.939  16.671  0.00  0.00    +0.000 HD
BRANCH  14  16
ATOM     16  C   UNL     1       2.138   2.370  18.031  0.00  0.00    +0.000 C 
ATOM     17  C   UNL     1       3.268   1.960  18.988  0.00  0.00    +0.000 C 
ATOM     18  C   UNL     1       3.323   2.800  20.265  0.00  0.00    +0.000 C 
ATOM     19  C   UNL     1       1.993   2.858  21.007  0.00  0.00    +0.000 C 
ATOM     20  C   UNL     1       0.804   3.158  20.100  0.00  0.00    +0.000 C 
ATOM     21  C   UNL     1       0.802   2.348  18.801  0.00  0.00    +0.000 C 
ENDBRANCH  14  16
ENDBRANCH   6  14
TORSDOF 5
ENDMDL
MODEL 9
REMARK VINA RESULT:      -6.7      1.629      2.035
REMARK  Name = 
REMARK  5 active torsions:
REMARK  status: ('A' for Active; 'I' for Inactive)
REMARK    1  A    between atoms: N_1  and  C_2
REMARK    2  A    between atoms: C_4  and  C_5
REMARK    3  A    between atoms: C_5  and  O_7
REMARK    4  A    between atoms: C_10  and  N_11
REMARK    5  A    between atoms: N_11  and  C_12
REMARK                            x       y       z     vdW  Elec       q    Type
REMARK                         _______ _______ _______ _____ _____    ______ ____
ROOT
ATOM      1  C   UNL     1       6.759   4.349  16.860  0.00  0.00    +0.000 A 
ATOM      2  C   UNL     1       7.459   4.804  15.740  0.00  0.00    +0.000 A 
ATOM      3  C   UNL     1       6.845   4.820  14.489  0.00  0.00    +0.000 A 
ATOM      4  C   UNL     1       5.500   4.449  14.377  0.00  0.00    +0.000 A 
ATOM      5  C   UNL     1       4.778   4.030  15.518  0.00  0.00    +0.000 A 
ATOM      6  C   UNL     1       5.386   3.987  16.778  0.00  0.00    +0.000 A 
ENDROOT
BRANCH   1   7
ATOM      7  N   UNL     1       7.381   4.407  18.134  0.00  0.00    +0.000 N 
ATOM      8  H   UNL     1       8.234   3.857  18.163  0.00  0.00    +0.000 HD
ATOM      9  H   UNL     1       6.712   4.088  18.834  0.00  0.00    +0.000 HD
ENDBRANCH   1   7
BRANCH   3  10
ATOM     10  C   UNL     1       7.712   5.140  13.322  0.00  0.00    +0.000 C 
ATOM     11  O   UNL     1       8.639   5.923  13.389  0.00  0.00    +0.000 OA
BRANCH  10  12
ATOM     12  O   UNL     1       7.359   4.508  12.182  0.00  0.00    +0.000 OA
ATOM     13  H   UNL     1       8.003   3.862  11.854  0.00  0.00    +0.000 HD
ENDBRANCH  10  12
ENDBRANCH   3  10
BRANCH   6  14
ATOM     14  N   UNL     1       4.786   3.550  17.965  0.00  0.00    +0.000 N 
ATOM     15  H   UNL     1       5.403   2.873  18.413  0.00  0.00    +0.000 HD
BRANCH  14  16
ATOM     16  C   UNL     1       3.990   4.355  18.895  0.00  0.00    +0.000 C 
ATOM     17  C   UNL     1       2.826   5.044  18.166  0.00  0.00    +0.000 C 
ATOM     18  C   UNL     1       1.770   4.070  17.639  0.00  0.00    +0.000 C 
ATOM     19  C   UNL     1       1.241   3.119  18.708  0.00  0.00    +0.000 C 
ATOM     20  C   UNL     1       2.339   2.474  19.545  0.00  0.00    +0.000 C 
ATOM     21  C   UNL     1       3.416   3.458  20.011  0.00  0.00    +0.000 C 
ENDBRANCH  14  16
ENDBRANCH   6  14
TORSDOF 5
ENDMDL
