MODEL 1
REMARK VINA RESULT:      -8.4      0.000      0.000
REMARK  Name = 
REMARK  5 active torsions:
REMARK  status: ('A' for Active; 'I' for Inactive)
REMARK    1  A    between atoms: C_1  and  C_2
REMARK    2  A    between atoms: C_6  and  C_7
REMARK    3  A    between atoms: C_7  and  N_8
REMARK    4  A    between atoms: C_12  and  N_13
REMARK    5  A    between atoms: C_14  and  C_16
REMARK                            x       y       z     vdW  Elec       q    Type
REMARK                         _______ _______ _______ _____ _____    ______ ____
ROOT
ATOM      1  N   UNL     1       5.635   5.474  19.378  0.00  0.00    +0.000 NA
ATOM      2  C   UNL     1       7.028   5.801  19.739  0.00  0.00    +0.000 C 
ATOM      3  C   UNL     1       7.708   5.939  18.402  0.00  0.00    +0.000 C 
ATOM      4  C   UNL     1       7.857   7.297  17.820  0.00  0.00    +0.000 C 
ATOM      5  C   UNL     1       6.695   6.389  17.404  0.00  0.00    +0.000 C 
ATOM      6  C   UNL     1       5.372   6.307  18.162  0.00  0.00    +0.000 C 
ENDROOT
BRANCH   5   7
ATOM      7  N   UNL     1       6.637   6.144  15.973  0.00  0.00    +0.000 N 
ATOM      8  C   UNL     1       6.843   4.848  15.509  0.00  0.00    +0.000 C 
ATOM      9  O   UNL     1       7.048   3.898  16.266  0.00  0.00    +0.000 OA
ATOM     10  H   UNL     1       6.594   6.935  15.351  0.00  0.00    +0.000 HD
BRANCH   8  11
ATOM     11  C   UNL     1       6.839   4.580  14.033  0.00  0.00    +0.000 A 
ATOM     12  C   UNL     1       7.688   5.224  13.124  0.00  0.00    +0.000 A 
ATOM     13  C   UNL     1       7.617   4.920  11.759  0.00  0.00    +0.000 A 
ATOM     14  C   UNL     1       6.696   3.985  11.286  0.00  0.00    +0.000 A 
ATOM     15  C   UNL     1       5.839   3.361  12.184  0.00  0.00    +0.000 A 
ATOM     16  F   UNL     1       4.968   2.455  11.731  0.00  0.00    +0.000 F 
ATOM     17  C   UNL     1       5.904   3.649  13.549  0.00  0.00    +0.000 A 
ENDBRANCH   8  11
ENDBRANCH   5   7
BRANCH   1  18
ATOM     18  C   UNL     1       5.533   4.026  19.068  0.00  0.00    +0.000 C 
BRANCH  18  24
ATOM     19  C   UNL     1       1.213   2.787  21.225  0.00  0.00    +0.000 C 
ATOM     20  C   UNL     1       2.163   2.704  20.060  0.00  0.00    +0.000 A 
ATOM     21  C   UNL     1       1.776   1.987  18.933  0.00  0.00    +0.000 A 
ATOM     22  C   UNL     1       2.543   2.091  17.783  0.00  0.00    +0.000 A 
ATOM     23  C   UNL     1       3.699   2.863  17.800  0.00  0.00    +0.000 A 
ATOM     24  C   UNL     1       4.110   3.447  18.999  0.00  0.00    +0.000 A 
ATOM     25  N   UNL     1       3.340   3.393  20.125  0.00  0.00    +0.000 NA
ENDBRANCH  18  24
ENDBRANCH   1  18
TORSDOF 4
ENDMDL
MODEL 2
REMARK VINA RESULT:      -8.1      3.185      4.457
REMARK  Name = 
REMARK  5 active torsions:
REMARK  status: ('A' for Active; 'I' for Inactive)
REMARK    1  A    between atoms: C_1  and  C_2
REMARK    2  A    between atoms: C_6  and  C_7
REMARK    3  A    between atoms: C_7  and  N_8
REMARK    4  A    between atoms: C_12  and  N_13
REMARK    5  A    between atoms: C_14  and  C_16
REMARK                            x       y       z     vdW  Elec       q    Type
REMARK                         _______ _______ _______ _____ _____    ______ ____
ROOT
ATOM      1  N   UNL     1       3.523   5.344  19.207  0.00  0.00    +0.000 NA
ATOM      2  C   UNL     1       2.461   4.319  19.215  0.00  0.00    +0.000 C 
ATOM      3  C   UNL     1       2.796   3.465  18.020  0.00  0.00    +0.000 C 
ATOM      4  C   UNL     1       3.581   2.223  18.236  0.00  0.00    +0.000 C 
ATOM      5  C   UNL     1       4.271   3.521  17.801  0.00  0.00    +0.000 C 
ATOM      6  C   UNL     1       4.745   4.594  18.778  0.00  0.00    +0.000 C 
ENDROOT
BRANCH   5   7
ATOM      7  N   UNL     1       5.026   3.390  16.567  0.00  0.00    +0.000 N 
ATOM      8  C   UNL     1       5.181   4.511  15.757  0.00  0.00    +0.000 C 
ATOM      9  O   UNL     1       4.725   5.614  16.059  0.00  0.00    +0.000 OA
ATOM     10  H   UNL     1       5.290   2.467  16.261  0.00  0.00    +0.000 HD
BRANCH   8  11
ATOM     11  C   UNL     1       5.913   4.387  14.453  0.00  0.00    +0.000 A 
ATOM     12  C   UNL     1       5.512   3.535  13.415  0.00  0.00    +0.000 A 
ATOM     13  C   UNL     1       6.255   3.476  12.230  0.00  0.00    +0.000 A 
ATOM     14  C   UNL     1       7.405   4.250  12.071  0.00  0.00    +0.000 A 
ATOM     15  C   UNL     1       7.814   5.078  13.108  0.00  0.00    +0.000 A 
ATOM     16  F   UNL     1       8.907   5.830  12.948  0.00  0.00    +0.000 F 
ATOM     17  C   UNL     1       7.079   5.155  14.293  0.00  0.00    +0.000 A 
ENDBRANCH   8  11
ENDBRANCH   5   7
BRANCH   1  18
ATOM     18  C   UNL     1       3.175   6.406  18.229  0.00  0.00    +0.000 C 
BRANCH  18  24
ATOM     19  C   UNL     1       1.001   8.838  21.998  0.00  0.00    +0.000 C 
ATOM     20  C   UNL     1       1.258   8.675  20.524  0.00  0.00    +0.000 A 
ATOM     21  C   UNL     1       0.713   9.604  19.644  0.00  0.00    +0.000 A 
ATOM     22  C   UNL     1       1.127   9.589  18.321  0.00  0.00    +0.000 A 
ATOM     23  C   UNL     1       2.029   8.619  17.898  0.00  0.00    +0.000 A 
ATOM     24  C   UNL     1       2.434   7.629  18.795  0.00  0.00    +0.000 A 
ATOM     25  N   UNL     1       2.074   7.661  20.110  0.00  0.00    +0.000 NA
ENDBRANCH  18  24
ENDBRANCH   1  18
TORSDOF 4
ENDMDL
MODEL 3
REMARK VINA RESULT:      -7.9      3.077      4.252
REMARK  Name = 
REMARK  5 active torsions:
REMARK  status: ('A' for Active; 'I' for Inactive)
REMARK    1  A    between atoms: C_1  and  C_2
REMARK    2  A    between atoms: C_6  and  C_7
REMARK    3  A    between atoms: C_7  and  N_8
REMARK    4  A    between atoms: C_12  and  N_13
REMARK    5  A    between atoms: C_14  and  C_16
REMARK                            x       y       z     vdW  Elec       q    Type
REMARK                         _______ _______ _______ _____ _____    ______ ____
ROOT
ATOM      1  N   UNL     1       3.577   5.560  19.464  0.00  0.00    +0.000 NA
ATOM      2  C   UNL     1       2.635   4.431  19.593  0.00  0.00    +0.000 C 
ATOM      3  C   UNL     1       3.028   3.522  18.458  0.00  0.00    +0.000 C 
ATOM      4  C   UNL     1       3.951   2.394  18.742  0.00  0.00    +0.000 C 
ATOM      5  C   UNL     1       4.481   3.717  18.181  0.00  0.00    +0.000 C 
ATOM      6  C   UNL     1       4.862   4.913  19.051  0.00  0.00    +0.000 C 
ENDROOT
BRANCH   5   7
ATOM      7  N   UNL     1       5.211   3.566  16.933  0.00  0.00    +0.000 N 
ATOM      8  C   UNL     1       5.207   4.621  16.026  0.00  0.00    +0.000 C 
ATOM      9  O   UNL     1       4.631   5.686  16.250  0.00  0.00    +0.000 OA
ATOM     10  H   UNL     1       5.575   2.657  16.697  0.00  0.00    +0.000 HD
BRANCH   8  11
ATOM     11  C   UNL     1       5.911   4.468  14.710  0.00  0.00    +0.000 A 
ATOM     12  C   UNL     1       7.096   5.138  14.380  0.00  0.00    +0.000 A 
ATOM     13  C   UNL     1       7.688   4.943  13.126  0.00  0.00    +0.000 A 
ATOM     14  C   UNL     1       7.103   4.092  12.188  0.00  0.00    +0.000 A 
ATOM     15  C   UNL     1       5.917   3.442  12.507  0.00  0.00    +0.000 A 
ATOM     16  F   UNL     1       5.367   2.615  11.613  0.00  0.00    +0.000 F 
ATOM     17  C   UNL     1       5.319   3.621  13.756  0.00  0.00    +0.000 A 
ENDBRANCH   8  11
ENDBRANCH   5   7
BRANCH   1  18
ATOM     18  C   UNL     1       3.087   6.494  18.418  0.00  0.00    +0.000 C 
BRANCH  18  24
ATOM     19  C   UNL     1       0.606   8.988  21.949  0.00  0.00    +0.000 C 
ATOM     20  C   UNL     1       1.044   8.842  20.517  0.00  0.00    +0.000 A 
ATOM     21  C   UNL     1       0.687   9.828  19.604  0.00  0.00    +0.000 A 
ATOM     22  C   UNL     1       1.269   9.814  18.347  0.00  0.00    +0.000 A 
ATOM     23  C   UNL     1       2.151   8.792  18.013  0.00  0.00    +0.000 A 
ATOM     24  C   UNL     1       2.364   7.754  18.922  0.00  0.00    +0.000 A 
ATOM     25  N   UNL     1       1.836   7.781  20.180  0.00  0.00    +0.000 NA
ENDBRANCH  18  24
ENDBRANCH   1  18
TORSDOF 4
ENDMDL
MODEL 4
REMARK VINA RESULT:      -7.6      4.024      7.561
REMARK  Name = 
REMARK  5 active torsions:
REMARK  status: ('A' for Active; 'I' for Inactive)
REMARK    1  A    between atoms: C_1  and  C_2
REMARK    2  A    between atoms: C_6  and  C_7
REMARK    3  A    between atoms: C_7  and  N_8
REMARK    4  A    between atoms: C_12  and  N_13
REMARK    5  A    between atoms: C_14  and  C_16
REMARK                            x       y       z     vdW  Elec       q    Type
REMARK                         _______ _______ _______ _____ _____    ______ ____
ROOT
ATOM      1  N   UNL     1       3.695   2.750  18.660  0.00  0.00    +0.000 NA
ATOM      2  C   UNL     1       3.693   2.157  20.011  0.00  0.00    +0.000 C 
ATOM      3  C   UNL     1       2.898   3.148  20.822  0.00  0.00    +0.000 C 
ATOM      4  C   UNL     1       1.451   2.890  21.032  0.00  0.00    +0.000 C 
ATOM      5  C   UNL     1       1.926   3.824  19.914  0.00  0.00    +0.000 C 
ATOM      6  C   UNL     1       2.328   3.342  18.523  0.00  0.00    +0.000 C 
ENDROOT
BRANCH   5   7
ATOM      7  N   UNL     1       1.362   5.161  19.999  0.00  0.00    +0.000 N 
ATOM      8  C   UNL     1       2.228   6.245  20.097  0.00  0.00    +0.000 C 
ATOM      9  O   UNL     1       3.453   6.118  20.091  0.00  0.00    +0.000 OA
ATOM     10  H   UNL     1       0.367   5.255  20.129  0.00  0.00    +0.000 HD
BRANCH   8  11
ATOM     11  C   UNL     1       1.667   7.630  20.237  0.00  0.00    +0.000 A 
ATOM     12  C   UNL     1       1.101   8.124  21.419  0.00  0.00    +0.000 A 
ATOM     13  C   UNL     1       0.596   9.429  21.465  0.00  0.00    +0.000 A 
ATOM     14  C   UNL     1       0.637  10.247  20.336  0.00  0.00    +0.000 A 
ATOM     15  C   UNL     1       1.179   9.751  19.156  0.00  0.00    +0.000 A 
ATOM     16  F   UNL     1       1.232  10.542  18.081  0.00  0.00    +0.000 F 
ATOM     17  C   UNL     1       1.695   8.455  19.099  0.00  0.00    +0.000 A 
ENDBRANCH   8  11
ENDBRANCH   5   7
BRANCH   1  18
ATOM     18  C   UNL     1       4.744   3.799  18.584  0.00  0.00    +0.000 C 
BRANCH  18  24
ATOM     19  C   UNL     1       6.218   3.738  13.823  0.00  0.00    +0.000 C 
ATOM     20  C   UNL     1       5.780   4.500  15.046  0.00  0.00    +0.000 A 
ATOM     21  C   UNL     1       5.638   5.881  14.957  0.00  0.00    +0.000 A 
ATOM     22  C   UNL     1       5.027   6.554  16.003  0.00  0.00    +0.000 A 
ATOM     23  C   UNL     1       4.623   5.846  17.129  0.00  0.00    +0.000 A 
ATOM     24  C   UNL     1       4.917   4.485  17.219  0.00  0.00    +0.000 A 
ATOM     25  N   UNL     1       5.473   3.800  16.177  0.00  0.00    +0.000 NA
ENDBRANCH  18  24
ENDBRANCH   1  18
TORSDOF 4
ENDMDL
MODEL 5
REMARK VINA RESULT:      -7.6      4.341      7.661
REMARK  Name = 
REMARK  5 active torsions:
REMARK  status: ('A' for Active; 'I' for Inactive)
REMARK    1  A    between atoms: C_1  and  C_2
REMARK    2  A    between atoms: C_6  and  C_7
REMARK    3  A    between atoms: C_7  and  N_8
REMARK    4  A    between atoms: C_12  and  N_13
REMARK    5  A    between atoms: C_14  and  C_16
REMARK                            x       y       z     vdW  Elec       q    Type
REMARK                         _______ _______ _______ _____ _____    ______ ____
ROOT
ATOM      1  N   UNL     1       3.782   2.683  18.549  0.00  0.00    +0.000 NA
ATOM      2  C   UNL     1       3.746   2.135  19.919  0.00  0.00    +0.000 C 
ATOM      3  C   UNL     1       2.944   3.158  20.680  0.00  0.00    +0.000 C 
ATOM      4  C   UNL     1       1.491   2.919  20.869  0.00  0.00    +0.000 C 
ATOM      5  C   UNL     1       1.997   3.812  19.731  0.00  0.00    +0.000 C 
ATOM      6  C   UNL     1       2.422   3.282  18.364  0.00  0.00    +0.000 C 
ENDROOT
BRANCH   5   7
ATOM      7  N   UNL     1       1.443   5.156  19.760  0.00  0.00    +0.000 N 
ATOM      8  C   UNL     1       2.314   6.233  19.892  0.00  0.00    +0.000 C 
ATOM      9  O   UNL     1       3.536   6.094  19.959  0.00  0.00    +0.000 OA
ATOM     10  H   UNL     1       0.444   5.262  19.830  0.00  0.00    +0.000 HD
BRANCH   8  11
ATOM     11  C   UNL     1       1.761   7.626  19.975  0.00  0.00    +0.000 A 
ATOM     12  C   UNL     1       1.778   8.534  18.908  0.00  0.00    +0.000 A 
ATOM     13  C   UNL     1       1.245   9.818  19.070  0.00  0.00    +0.000 A 
ATOM     14  C   UNL     1       0.702  10.214  20.293  0.00  0.00    +0.000 A 
ATOM     15  C   UNL     1       0.703   9.321  21.358  0.00  0.00    +0.000 A 
ATOM     16  F   UNL     1       0.169   9.696  22.523  0.00  0.00    +0.000 F 
ATOM     17  C   UNL     1       1.224   8.034  21.209  0.00  0.00    +0.000 A 
ENDBRANCH   8  11
ENDBRANCH   5   7
BRANCH   1  18
ATOM     18  C   UNL     1       4.841   3.721  18.461  0.00  0.00    +0.000 C 
BRANCH  18  24
ATOM     19  C   UNL     1       6.147   3.751  13.651  0.00  0.00    +0.000 C 
ATOM     20  C   UNL     1       5.763   4.490  14.905  0.00  0.00    +0.000 A 
ATOM     21  C   UNL     1       5.637   5.874  14.854  0.00  0.00    +0.000 A 
ATOM     22  C   UNL     1       5.074   6.531  15.936  0.00  0.00    +0.000 A 
ATOM     23  C   UNL     1       4.698   5.803  17.059  0.00  0.00    +0.000 A 
ATOM     24  C   UNL     1       4.976   4.436  17.107  0.00  0.00    +0.000 A 
ATOM     25  N   UNL     1       5.486   3.768  16.031  0.00  0.00    +0.000 NA
ENDBRANCH  18  24
ENDBRANCH   1  18
TORSDOF 4
ENDMDL
MODEL 6
REMARK VINA RESULT:      -7.6      4.880      8.133
REMARK  Name = 
REMARK  5 active torsions:
REMARK  status: ('A' for Active; 'I' for Inactive)
REMARK    1  A    between atoms: C_1  and  C_2
REMARK    2  A    between atoms: C_6  and  C_7
REMARK    3  A    between atoms: C_7  and  N_8
REMARK    4  A    between atoms: C_12  and  N_13
REMARK    5  A    between atoms: C_14  and  C_16
REMARK                            x       y       z     vdW  Elec       q    Type
REMARK                         _______ _______ _______ _____ _____    ______ ____
ROOT
ATOM      1  N   UNL     1       2.560   3.522  18.250  0.00  0.00    +0.000 NA
ATOM      2  C   UNL     1       3.422   3.063  19.356  0.00  0.00    +0.000 C 
ATOM      3  C   UNL     1       3.110   4.035  20.463  0.00  0.00    +0.000 C 
ATOM      4  C   UNL     1       2.105   3.646  21.484  0.00  0.00    +0.000 C 
ATOM      5  C   UNL     1       1.708   4.515  20.286  0.00  0.00    +0.000 C 
ATOM      6  C   UNL     1       1.296   3.948  18.930  0.00  0.00    +0.000 C 
ENDROOT
BRANCH   5   7
ATOM      7  N   UNL     1       1.113   5.786  20.665  0.00  0.00    +0.000 N 
ATOM      8  C   UNL     1       1.743   6.961  20.269  0.00  0.00    +0.000 C 
ATOM      9  O   UNL     1       2.771   6.967  19.589  0.00  0.00    +0.000 OA
ATOM     10  H   UNL     1       0.349   5.781  21.321  0.00  0.00    +0.000 HD
BRANCH   8  11
ATOM     11  C   UNL     1       1.175   8.284  20.691  0.00  0.00    +0.000 A 
ATOM     12  C   UNL     1       1.063   9.390  19.838  0.00  0.00    +0.000 A 
ATOM     13  C   UNL     1       0.524  10.591  20.313  0.00  0.00    +0.000 A 
ATOM     14  C   UNL     1       0.104  10.709  21.638  0.00  0.00    +0.000 A 
ATOM     15  C   UNL     1       0.235   9.619  22.491  0.00  0.00    +0.000 A 
ATOM     16  F   UNL     1      -0.182   9.728  23.755  0.00  0.00    +0.000 F 
ATOM     17  C   UNL     1       0.763   8.411  22.029  0.00  0.00    +0.000 A 
ENDBRANCH   8  11
ENDBRANCH   5   7
BRANCH   1  18
ATOM     18  C   UNL     1       3.209   4.665  17.560  0.00  0.00    +0.000 C 
BRANCH  18  24
ATOM     19  C   UNL     1       7.874   5.741  18.948  0.00  0.00    +0.000 C 
ATOM     20  C   UNL     1       6.903   5.226  17.920  0.00  0.00    +0.000 A 
ATOM     21  C   UNL     1       7.400   4.744  16.713  0.00  0.00    +0.000 A 
ATOM     22  C   UNL     1       6.540   4.069  15.862  0.00  0.00    +0.000 A 
ATOM     23  C   UNL     1       5.200   3.937  16.207  0.00  0.00    +0.000 A 
ATOM     24  C   UNL     1       4.731   4.561  17.364  0.00  0.00    +0.000 A 
ATOM     25  N   UNL     1       5.575   5.186  18.236  0.00  0.00    +0.000 NA
ENDBRANCH  18  24
ENDBRANCH   1  18
TORSDOF 4
ENDMDL
MODEL 7
REMARK VINA RESULT:      -7.5      0.756      1.280
REMARK  Name = 
REMARK  5 active torsions:
REMARK  status: ('A' for Active; 'I' for Inactive)
REMARK    1  A    between atoms: C_1  and  C_2
REMARK    2  A    between atoms: C_6  and  C_7
REMARK    3  A    between atoms: C_7  and  N_8
REMARK    4  A    between atoms: C_12  and  N_13
REMARK    5  A    between atoms: C_14  and  C_16
REMARK                            x       y       z     vdW  Elec       q    Type
REMARK                         _______ _______ _______ _____ _____    ______ ____
ROOT
ATOM      1  N   UNL     1       5.317   5.377  19.221  0.00  0.00    +0.000 NA
ATOM      2  C   UNL     1       6.697   5.574  19.706  0.00  0.00    +0.000 C 
ATOM      3  C   UNL     1       7.500   5.673  18.436  0.00  0.00    +0.000 C 
ATOM      4  C   UNL     1       7.815   7.021  17.900  0.00  0.00    +0.000 C 
ATOM      5  C   UNL     1       6.619   6.226  17.365  0.00  0.00    +0.000 C 
ATOM      6  C   UNL     1       5.234   6.248  18.007  0.00  0.00    +0.000 C 
ENDROOT
BRANCH   5   7
ATOM      7  N   UNL     1       6.664   6.009  15.929  0.00  0.00    +0.000 N 
ATOM      8  C   UNL     1       6.584   4.706  15.449  0.00  0.00    +0.000 C 
ATOM      9  O   UNL     1       6.452   3.732  16.192  0.00  0.00    +0.000 OA
ATOM     10  H   UNL     1       6.897   6.787  15.333  0.00  0.00    +0.000 HD
BRANCH   8  11
ATOM     11  C   UNL     1       6.680   4.454  13.973  0.00  0.00    +0.000 A 
ATOM     12  C   UNL     1       7.574   5.123  13.127  0.00  0.00    +0.000 A 
ATOM     13  C   UNL     1       7.597   4.832  11.758  0.00  0.00    +0.000 A 
ATOM     14  C   UNL     1       6.727   3.884  11.217  0.00  0.00    +0.000 A 
ATOM     15  C   UNL     1       5.825   3.236  12.052  0.00  0.00    +0.000 A 
ATOM     16  F   UNL     1       5.004   2.318  11.535  0.00  0.00    +0.000 F 
ATOM     17  C   UNL     1       5.797   3.510  13.421  0.00  0.00    +0.000 A 
ENDBRANCH   8  11
ENDBRANCH   5   7
BRANCH   1  18
ATOM     18  C   UNL     1       5.118   3.948  18.870  0.00  0.00    +0.000 C 
BRANCH  18  24
ATOM     19  C   UNL     1       0.366   2.467  18.604  0.00  0.00    +0.000 C 
ATOM     20  C   UNL     1       1.604   2.744  19.413  0.00  0.00    +0.000 A 
ATOM     21  C   UNL     1       1.585   2.476  20.778  0.00  0.00    +0.000 A 
ATOM     22  C   UNL     1       2.778   2.518  21.481  0.00  0.00    +0.000 A 
ATOM     23  C   UNL     1       3.949   2.875  20.821  0.00  0.00    +0.000 A 
ATOM     24  C   UNL     1       3.882   3.267  19.483  0.00  0.00    +0.000 A 
ATOM     25  N   UNL     1       2.724   3.184  18.767  0.00  0.00    +0.000 NA
ENDBRANCH  18  24
ENDBRANCH   1  18
TORSDOF 4
ENDMDL
MODEL 8
REMARK VINA RESULT:      -7.5      3.062      4.518
REMARK  Name = 
REMARK  5 active torsions:
REMARK  status: ('A' for Active; 'I' for Inactive)
REMARK    1  A    between atoms: C_1  and  C_2
REMARK    2  A    between atoms: C_6  and  C_7
REMARK    3  A    between atoms: C_7  and  N_8
REMARK    4  A    between atoms: C_12  and  N_13
REMARK    5  A    between atoms: C_14  and  C_16
REMARK                            x       y       z     vdW  Elec       q    Type
REMARK                         _______ _______ _______ _____ _____    ______ ____
ROOT
ATOM      1  N   UNL     1       3.299   4.851  19.737  0.00  0.00    +0.000 NA
ATOM      2  C   UNL     1       2.040   4.161  19.394  0.00  0.00    +0.000 C 
ATOM      3  C   UNL     1       2.339   3.546  18.052  0.00  0.00    +0.000 C 
ATOM      4  C   UNL     1       2.779   2.129  18.005  0.00  0.00    +0.000 C 
ATOM      5  C   UNL     1       3.803   3.268  17.978  0.00  0.00    +0.000 C 
ATOM      6  C   UNL     1       4.365   3.930  19.233  0.00  0.00    +0.000 C 
ENDROOT
BRANCH   5   7
ATOM      7  N   UNL     1       4.678   3.231  16.818  0.00  0.00    +0.000 N 
ATOM      8  C   UNL     1       4.899   4.410  16.112  0.00  0.00    +0.000 C 
ATOM      9  O   UNL     1       4.402   5.486  16.447  0.00  0.00    +0.000 OA
ATOM     10  H   UNL     1       4.982   2.335  16.474  0.00  0.00    +0.000 HD
BRANCH   8  11
ATOM     11  C   UNL     1       5.758   4.386  14.882  0.00  0.00    +0.000 A 
ATOM     12  C   UNL     1       6.924   5.147  14.734  0.00  0.00    +0.000 A 
ATOM     13  C   UNL     1       7.668   5.070  13.550  0.00  0.00    +0.000 A 
ATOM     14  C   UNL     1       7.253   4.248  12.502  0.00  0.00    +0.000 A 
ATOM     15  C   UNL     1       6.084   3.509  12.639  0.00  0.00    +0.000 A 
ATOM     16  F   UNL     1       5.697   2.711  11.641  0.00  0.00    +0.000 F 
ATOM     17  C   UNL     1       5.337   3.569  13.818  0.00  0.00    +0.000 A 
ENDBRANCH   8  11
ENDBRANCH   5   7
BRANCH   1  18
ATOM     18  C   UNL     1       3.349   6.161  19.040  0.00  0.00    +0.000 C 
BRANCH  18  24
ATOM     19  C   UNL     1       0.780  10.368  18.299  0.00  0.00    +0.000 C 
ATOM     20  C   UNL     1       1.262   9.277  19.216  0.00  0.00    +0.000 A 
ATOM     21  C   UNL     1       0.847   9.287  20.543  0.00  0.00    +0.000 A 
ATOM     22  C   UNL     1       1.104   8.175  21.329  0.00  0.00    +0.000 A 
ATOM     23  C   UNL     1       1.810   7.105  20.791  0.00  0.00    +0.000 A 
ATOM     24  C   UNL     1       2.320   7.210  19.496  0.00  0.00    +0.000 A 
ATOM     25  N   UNL     1       2.034   8.277  18.695  0.00  0.00    +0.000 NA
ENDBRANCH  18  24
ENDBRANCH   1  18
TORSDOF 4
ENDMDL
MODEL 9
REMARK VINA RESULT:      -7.5      3.533      4.781
REMARK  Name = 
REMARK  5 active torsions:
REMARK  status: ('A' for Active; 'I' for Inactive)
REMARK    1  A    between atoms: C_1  and  C_2
REMARK    2  A    between atoms: C_6  and  C_7
REMARK    3  A    between atoms: C_7  and  N_8
REMARK    4  A    between atoms: C_12  and  N_13
REMARK    5  A    between atoms: C_14  and  C_16
REMARK                            x       y       z     vdW  Elec       q    Type
REMARK                         _______ _______ _______ _____ _____    ______ ____
ROOT
ATOM      1  N   UNL     1       3.441   5.912  19.517  0.00  0.00    +0.000 NA
ATOM      2  C   UNL     1       2.660   4.697  19.816  0.00  0.00    +0.000 C 
ATOM      3  C   UNL     1       2.803   3.876  18.561  0.00  0.00    +0.000 C 
ATOM      4  C   UNL     1       3.854   2.828  18.517  0.00  0.00    +0.000 C 
ATOM      5  C   UNL     1       4.109   4.217  17.924  0.00  0.00    +0.000 C 
ATOM      6  C   UNL     1       4.615   5.405  18.739  0.00  0.00    +0.000 C 
ENDROOT
BRANCH   5   7
ATOM      7  N   UNL     1       4.487   4.187  16.521  0.00  0.00    +0.000 N 
ATOM      8  C   UNL     1       5.838   4.234  16.193  0.00  0.00    +0.000 C 
ATOM      9  O   UNL     1       6.726   4.275  17.046  0.00  0.00    +0.000 OA
ATOM     10  H   UNL     1       3.763   4.278  15.826  0.00  0.00    +0.000 HD
BRANCH   8  11
ATOM     11  C   UNL     1       6.250   4.254  14.750  0.00  0.00    +0.000 A 
ATOM     12  C   UNL     1       5.633   3.485  13.755  0.00  0.00    +0.000 A 
ATOM     13  C   UNL     1       6.080   3.560  12.431  0.00  0.00    +0.000 A 
ATOM     14  C   UNL     1       7.150   4.387  12.087  0.00  0.00    +0.000 A 
ATOM     15  C   UNL     1       7.776   5.135  13.077  0.00  0.00    +0.000 A 
ATOM     16  F   UNL     1       8.790   5.938  12.743  0.00  0.00    +0.000 F 
ATOM     17  C   UNL     1       7.335   5.077  14.401  0.00  0.00    +0.000 A 
ENDBRANCH   8  11
ENDBRANCH   5   7
BRANCH   1  18
ATOM     18  C   UNL     1       2.617   6.840  18.701  0.00  0.00    +0.000 C 
BRANCH  18  24
ATOM     19  C   UNL     1       0.419  11.303  19.001  0.00  0.00    +0.000 C 
ATOM     20  C   UNL     1       0.954  10.064  19.665  0.00  0.00    +0.000 A 
ATOM     21  C   UNL     1       0.816   9.931  21.043  0.00  0.00    +0.000 A 
ATOM     22  C   UNL     1       1.103   8.707  21.626  0.00  0.00    +0.000 A 
ATOM     23  C   UNL     1       1.569   7.665  20.833  0.00  0.00    +0.000 A 
ATOM     24  C   UNL     1       1.819   7.899  19.479  0.00  0.00    +0.000 A 
ATOM     25  N   UNL     1       1.495   9.083  18.884  0.00  0.00    +0.000 NA
ENDBRANCH  18  24
ENDBRANCH   1  18
TORSDOF 4
ENDMDL
