MODEL 1
REMARK VINA RESULT:      -8.1      0.000      0.000
REMARK  Name = 
REMARK  7 active torsions:
REMARK  status: ('A' for Active; 'I' for Inactive)
REMARK    1  A    between atoms: C_1  and  O_2
REMARK    2  A    between atoms: O_2  and  C_3
REMARK    3  A    between atoms: C_3  and  C_4
REMARK    4  A    between atoms: C_4  and  N_5
REMARK    5  A    between atoms: C_6  and  C_8
REMARK    6  A    between atoms: C_10  and  C_11
REMARK    7  A    between atoms: C_12  and  C_13
REMARK                            x       y       z     vdW  Elec       q    Type
REMARK                         _______ _______ _______ _____ _____    ______ ____
ROOT
ATOM      1  C   UNL     1       4.240   4.348  17.425  0.00  0.00    +0.000 A 
ATOM      2  C   UNL     1       4.851   5.240  18.305  0.00  0.00    +0.000 A 
ATOM      3  N   UNL     1       4.175   5.100  19.502  0.00  0.00    +0.000 N 
ATOM      4  C   UNL     1       3.173   4.169  19.408  0.00  0.00    +0.000 A 
ATOM      5  C   UNL     1       2.296   3.702  20.390  0.00  0.00    +0.000 A 
ATOM      6  F   UNL     1       2.390   4.134  21.653  0.00  0.00    +0.000 F 
ATOM      7  C   UNL     1       1.340   2.758  20.046  0.00  0.00    +0.000 A 
ATOM      8  C   UNL     1       1.244   2.342  18.730  0.00  0.00    +0.000 A 
ATOM      9  F   UNL     1       0.306   1.447  18.391  0.00  0.00    +0.000 F 
ATOM     10  C   UNL     1       2.106   2.823  17.739  0.00  0.00    +0.000 A 
ATOM     11  C   UNL     1       3.131   3.731  18.087  0.00  0.00    +0.000 A 
ATOM     12  H   UNL     1       4.378   5.617  20.344  0.00  0.00    +0.000 HD
ENDROOT
BRANCH   2  13
ATOM     13  C   UNL     1       5.958   6.207  18.164  0.00  0.00    +0.000 A 
ATOM     14  C   UNL     1       5.810   7.385  17.412  0.00  0.00    +0.000 A 
ATOM     15  C   UNL     1       6.861   8.296  17.275  0.00  0.00    +0.000 A 
ATOM     16  C   UNL     1       8.063   8.057  17.923  0.00  0.00    +0.000 A 
ATOM     17  F   UNL     1       9.067   8.935  17.806  0.00  0.00    +0.000 F 
ATOM     18  C   UNL     1       8.235   6.918  18.697  0.00  0.00    +0.000 A 
ATOM     19  C   UNL     1       7.190   5.994  18.810  0.00  0.00    +0.000 A 
ENDBRANCH   2  13
BRANCH   1  22
ATOM     20  C   UNL     1       6.246   4.645  14.565  0.00  0.00    +0.000 C 
ATOM     21  C   UNL     1       4.914   5.279  15.035  0.00  0.00    +0.000 C 
ATOM     22  C   UNL     1       4.720   4.081  15.996  0.00  0.00    +0.000 C 
ATOM     23  C   UNL     1       6.252   3.852  15.891  0.00  0.00    +0.000 C 
BRANCH  20  25
ATOM     24  N   UNL     1       4.917   3.695  12.722  0.00  0.00    +0.000 N 
ATOM     25  C   UNL     1       6.190   3.832  13.236  0.00  0.00    +0.000 C 
ATOM     26  O   UNL     1       7.172   3.346  12.672  0.00  0.00    +0.000 OA
ATOM     27  H   UNL     1       4.176   4.283  13.082  0.00  0.00    +0.000 HD
BRANCH  24  28
ATOM     28  C   UNL     1       4.698   3.090  11.419  0.00  0.00    +0.000 C 
BRANCH  28  29
ATOM     29  C   UNL     1       3.272   3.326  10.923  0.00  0.00    +0.000 C 
BRANCH  29  31
ATOM     30  C   UNL     1       2.411   4.745   9.245  0.00  0.00    +0.000 C 
ATOM     31  O   UNL     1       3.323   3.696   9.540  0.00  0.00    +0.000 OA
ENDBRANCH  29  31
ENDBRANCH  28  29
ENDBRANCH  24  28
ENDBRANCH  20  25
ENDBRANCH   1  22
TORSDOF 6
ENDMDL
MODEL 2
REMARK VINA RESULT:      -8.0      1.511      2.050
REMARK  Name = 
REMARK  7 active torsions:
REMARK  status: ('A' for Active; 'I' for Inactive)
REMARK    1  A    between atoms: C_1  and  O_2
REMARK    2  A    between atoms: O_2  and  C_3
REMARK    3  A    between atoms: C_3  and  C_4
REMARK    4  A    between atoms: C_4  and  N_5
REMARK    5  A    between atoms: C_6  and  C_8
REMARK    6  A    between atoms: C_10  and  C_11
REMARK    7  A    between atoms: C_12  and  C_13
REMARK                            x       y       z     vdW  Elec       q    Type
REMARK                         _______ _______ _______ _____ _____    ______ ____
ROOT
ATOM      1  C   UNL     1       4.090   4.472  17.502  0.00  0.00    +0.000 A 
ATOM      2  C   UNL     1       4.757   5.314  18.390  0.00  0.00    +0.000 A 
ATOM      3  N   UNL     1       4.124   5.146  19.606  0.00  0.00    +0.000 N 
ATOM      4  C   UNL     1       3.094   4.244  19.516  0.00  0.00    +0.000 A 
ATOM      5  C   UNL     1       2.242   3.762  20.514  0.00  0.00    +0.000 A 
ATOM      6  F   UNL     1       2.397   4.144  21.788  0.00  0.00    +0.000 F 
ATOM      7  C   UNL     1       1.249   2.857  20.173  0.00  0.00    +0.000 A 
ATOM      8  C   UNL     1       1.093   2.495  18.846  0.00  0.00    +0.000 A 
ATOM      9  F   UNL     1       0.119   1.637  18.511  0.00  0.00    +0.000 F 
ATOM     10  C   UNL     1       1.929   2.991  17.842  0.00  0.00    +0.000 A 
ATOM     11  C   UNL     1       2.991   3.858  18.183  0.00  0.00    +0.000 A 
ATOM     12  H   UNL     1       4.372   5.625  20.458  0.00  0.00    +0.000 HD
ENDROOT
BRANCH   2  13
ATOM     13  C   UNL     1       5.885   6.257  18.242  0.00  0.00    +0.000 A 
ATOM     14  C   UNL     1       7.147   5.980  18.793  0.00  0.00    +0.000 A 
ATOM     15  C   UNL     1       8.211   6.877  18.657  0.00  0.00    +0.000 A 
ATOM     16  C   UNL     1       8.033   8.046  17.933  0.00  0.00    +0.000 A 
ATOM     17  F   UNL     1       9.054   8.899  17.789  0.00  0.00    +0.000 F 
ATOM     18  C   UNL     1       6.807   8.337  17.351  0.00  0.00    +0.000 A 
ATOM     19  C   UNL     1       5.736   7.451  17.512  0.00  0.00    +0.000 A 
ENDBRANCH   2  13
BRANCH   1  22
ATOM     20  C   UNL     1       6.196   4.424  14.699  0.00  0.00    +0.000 C 
ATOM     21  C   UNL     1       5.151   5.418  15.263  0.00  0.00    +0.000 C 
ATOM     22  C   UNL     1       4.508   4.248  16.046  0.00  0.00    +0.000 C 
ATOM     23  C   UNL     1       5.865   3.509  15.900  0.00  0.00    +0.000 C 
BRANCH  20  25
ATOM     24  N   UNL     1       7.021   3.309  12.664  0.00  0.00    +0.000 N 
ATOM     25  C   UNL     1       5.916   3.870  13.269  0.00  0.00    +0.000 C 
ATOM     26  O   UNL     1       4.821   3.912  12.706  0.00  0.00    +0.000 OA
ATOM     27  H   UNL     1       7.834   3.094  13.228  0.00  0.00    +0.000 HD
BRANCH  24  28
ATOM     28  C   UNL     1       6.907   2.619  11.390  0.00  0.00    +0.000 C 
BRANCH  28  29
ATOM     29  C   UNL     1       5.894   1.477  11.459  0.00  0.00    +0.000 C 
BRANCH  29  31
ATOM     30  C   UNL     1       5.970  -0.880  11.362  0.00  0.00    +0.000 C 
ATOM     31  O   UNL     1       6.447   0.333  10.797  0.00  0.00    +0.000 OA
ENDBRANCH  29  31
ENDBRANCH  28  29
ENDBRANCH  24  28
ENDBRANCH  20  25
ENDBRANCH   1  22
TORSDOF 6
ENDMDL
MODEL 3
REMARK VINA RESULT:      -7.9      0.564      1.056
REMARK  Name = 
REMARK  7 active torsions:
REMARK  status: ('A' for Active; 'I' for Inactive)
REMARK    1  A    between atoms: C_1  and  O_2
REMARK    2  A    between atoms: O_2  and  C_3
REMARK    3  A    between atoms: C_3  and  C_4
REMARK    4  A    between atoms: C_4  and  N_5
REMARK    5  A    between atoms: C_6  and  C_8
REMARK    6  A    between atoms: C_10  and  C_11
REMARK    7  A    between atoms: C_12  and  C_13
REMARK                            x       y       z     vdW  Elec       q    Type
REMARK                         _______ _______ _______ _____ _____    ______ ____
ROOT
ATOM      1  C   UNL     1       4.440   4.534  17.263  0.00  0.00    +0.000 A 
ATOM      2  C   UNL     1       5.000   5.408  18.194  0.00  0.00    +0.000 A 
ATOM      3  N   UNL     1       4.311   5.188  19.370  0.00  0.00    +0.000 N 
ATOM      4  C   UNL     1       3.348   4.223  19.216  0.00  0.00    +0.000 A 
ATOM      5  C   UNL     1       2.474   3.678  20.160  0.00  0.00    +0.000 A 
ATOM      6  F   UNL     1       2.531   4.056  21.443  0.00  0.00    +0.000 F 
ATOM      7  C   UNL     1       1.563   2.714  19.757  0.00  0.00    +0.000 A 
ATOM      8  C   UNL     1       1.506   2.355  18.422  0.00  0.00    +0.000 A 
ATOM      9  F   UNL     1       0.611   1.440  18.026  0.00  0.00    +0.000 F 
ATOM     10  C   UNL     1       2.364   2.914  17.470  0.00  0.00    +0.000 A 
ATOM     11  C   UNL     1       3.346   3.844  17.877  0.00  0.00    +0.000 A 
ATOM     12  H   UNL     1       4.479   5.674  20.238  0.00  0.00    +0.000 HD
ENDROOT
BRANCH   2  13
ATOM     13  C   UNL     1       6.070   6.424  18.116  0.00  0.00    +0.000 A 
ATOM     14  C   UNL     1       7.336   6.196  18.680  0.00  0.00    +0.000 A 
ATOM     15  C   UNL     1       8.346   7.161  18.611  0.00  0.00    +0.000 A 
ATOM     16  C   UNL     1       8.111   8.352  17.942  0.00  0.00    +0.000 A 
ATOM     17  F   UNL     1       9.080   9.271  17.861  0.00  0.00    +0.000 F 
ATOM     18  C   UNL     1       6.881   8.598  17.348  0.00  0.00    +0.000 A 
ATOM     19  C   UNL     1       5.863   7.642  17.442  0.00  0.00    +0.000 A 
ENDBRANCH   2  13
BRANCH   1  22
ATOM     20  C   UNL     1       6.710   4.623  14.593  0.00  0.00    +0.000 C 
ATOM     21  C   UNL     1       5.590   5.561  15.105  0.00  0.00    +0.000 C 
ATOM     22  C   UNL     1       4.954   4.352  15.833  0.00  0.00    +0.000 C 
ATOM     23  C   UNL     1       6.349   3.675  15.759  0.00  0.00    +0.000 C 
BRANCH  20  25
ATOM     24  N   UNL     1       5.631   3.049  13.036  0.00  0.00    +0.000 N 
ATOM     25  C   UNL     1       6.541   4.080  13.141  0.00  0.00    +0.000 C 
ATOM     26  O   UNL     1       7.147   4.511  12.159  0.00  0.00    +0.000 OA
ATOM     27  H   UNL     1       4.999   2.871  13.807  0.00  0.00    +0.000 HD
BRANCH  24  28
ATOM     28  C   UNL     1       5.246   2.520  11.738  0.00  0.00    +0.000 C 
BRANCH  28  29
ATOM     29  C   UNL     1       3.832   2.950  11.354  0.00  0.00    +0.000 C 
BRANCH  29  31
ATOM     30  C   UNL     1       2.922   4.135   9.525  0.00  0.00    +0.000 C 
ATOM     31  O   UNL     1       3.915   4.129  10.542  0.00  0.00    +0.000 OA
ENDBRANCH  29  31
ENDBRANCH  28  29
ENDBRANCH  24  28
ENDBRANCH  20  25
ENDBRANCH   1  22
TORSDOF 6
ENDMDL
MODEL 4
REMARK VINA RESULT:      -7.8      4.507      6.313
REMARK  Name = 
REMARK  7 active torsions:
REMARK  status: ('A' for Active; 'I' for Inactive)
REMARK    1  A    between atoms: C_1  and  O_2
REMARK    2  A    between atoms: O_2  and  C_3
REMARK    3  A    between atoms: C_3  and  C_4
REMARK    4  A    between atoms: C_4  and  N_5
REMARK    5  A    between atoms: C_6  and  C_8
REMARK    6  A    between atoms: C_10  and  C_11
REMARK    7  A    between atoms: C_12  and  C_13
REMARK                            x       y       z     vdW  Elec       q    Type
REMARK                         _______ _______ _______ _____ _____    ______ ____
ROOT
ATOM      1  C   UNL     1       3.602   5.438  18.642  0.00  0.00    +0.000 A 
ATOM      2  C   UNL     1       2.393   6.113  18.800  0.00  0.00    +0.000 A 
ATOM      3  N   UNL     1       1.423   5.131  18.843  0.00  0.00    +0.000 N 
ATOM      4  C   UNL     1       1.970   3.879  18.716  0.00  0.00    +0.000 A 
ATOM      5  C   UNL     1       1.348   2.627  18.755  0.00  0.00    +0.000 A 
ATOM      6  F   UNL     1       0.033   2.523  18.985  0.00  0.00    +0.000 F 
ATOM      7  C   UNL     1       2.118   1.487  18.581  0.00  0.00    +0.000 A 
ATOM      8  C   UNL     1       3.471   1.619  18.320  0.00  0.00    +0.000 A 
ATOM      9  F   UNL     1       4.212   0.519  18.129  0.00  0.00    +0.000 F 
ATOM     10  C   UNL     1       4.092   2.870  18.259  0.00  0.00    +0.000 A 
ATOM     11  C   UNL     1       3.336   4.038  18.506  0.00  0.00    +0.000 A 
ATOM     12  H   UNL     1       0.434   5.299  18.946  0.00  0.00    +0.000 HD
ENDROOT
BRANCH   2  13
ATOM     13  C   UNL     1       2.033   7.543  18.894  0.00  0.00    +0.000 A 
ATOM     14  C   UNL     1       1.583   8.105  20.099  0.00  0.00    +0.000 A 
ATOM     15  C   UNL     1       1.237   9.458  20.185  0.00  0.00    +0.000 A 
ATOM     16  C   UNL     1       1.376  10.272  19.071  0.00  0.00    +0.000 A 
ATOM     17  F   UNL     1       1.061  11.570  19.154  0.00  0.00    +0.000 F 
ATOM     18  C   UNL     1       1.846   9.755  17.872  0.00  0.00    +0.000 A 
ATOM     19  C   UNL     1       2.165   8.395  17.782  0.00  0.00    +0.000 A 
ENDBRANCH   2  13
BRANCH   1  22
ATOM     20  C   UNL     1       6.719   6.459  17.404  0.00  0.00    +0.000 C 
ATOM     21  C   UNL     1       6.224   5.278  18.273  0.00  0.00    +0.000 C 
ATOM     22  C   UNL     1       4.975   6.115  18.642  0.00  0.00    +0.000 C 
ATOM     23  C   UNL     1       5.254   6.948  17.362  0.00  0.00    +0.000 C 
BRANCH  20  25
ATOM     24  N   UNL     1       7.772   8.681  17.551  0.00  0.00    +0.000 N 
ATOM     25  C   UNL     1       7.777   7.399  18.059  0.00  0.00    +0.000 C 
ATOM     26  O   UNL     1       8.556   7.059  18.951  0.00  0.00    +0.000 OA
ATOM     27  H   UNL     1       6.986   8.983  16.988  0.00  0.00    +0.000 HD
BRANCH  24  28
ATOM     28  C   UNL     1       8.592   9.724  18.143  0.00  0.00    +0.000 C 
BRANCH  28  29
ATOM     29  C   UNL     1       8.220  11.105  17.607  0.00  0.00    +0.000 C 
BRANCH  29  31
ATOM     30  C   UNL     1      10.518  11.608  17.803  0.00  0.00    +0.000 C 
ATOM     31  O   UNL     1       9.193  12.052  18.063  0.00  0.00    +0.000 OA
ENDBRANCH  29  31
ENDBRANCH  28  29
ENDBRANCH  24  28
ENDBRANCH  20  25
ENDBRANCH   1  22
TORSDOF 6
ENDMDL
MODEL 5
REMARK VINA RESULT:      -7.8      4.517      6.299
REMARK  Name = 
REMARK  7 active torsions:
REMARK  status: ('A' for Active; 'I' for Inactive)
REMARK    1  A    between atoms: C_1  and  O_2
REMARK    2  A    between atoms: O_2  and  C_3
REMARK    3  A    between atoms: C_3  and  C_4
REMARK    4  A    between atoms: C_4  and  N_5
REMARK    5  A    between atoms: C_6  and  C_8
REMARK    6  A    between atoms: C_10  and  C_11
REMARK    7  A    between atoms: C_12  and  C_13
REMARK                            x       y       z     vdW  Elec       q    Type
REMARK                         _______ _______ _______ _____ _____    ______ ____
ROOT
ATOM      1  C   UNL     1       3.609   5.464  18.668  0.00  0.00    +0.000 A 
ATOM      2  C   UNL     1       2.402   6.142  18.836  0.00  0.00    +0.000 A 
ATOM      3  N   UNL     1       1.431   5.162  18.887  0.00  0.00    +0.000 N 
ATOM      4  C   UNL     1       1.974   3.908  18.756  0.00  0.00    +0.000 A 
ATOM      5  C   UNL     1       1.350   2.658  18.800  0.00  0.00    +0.000 A 
ATOM      6  F   UNL     1       0.037   2.557  19.041  0.00  0.00    +0.000 F 
ATOM      7  C   UNL     1       2.116   1.517  18.619  0.00  0.00    +0.000 A 
ATOM      8  C   UNL     1       3.467   1.646  18.348  0.00  0.00    +0.000 A 
ATOM      9  F   UNL     1       4.205   0.545  18.151  0.00  0.00    +0.000 F 
ATOM     10  C   UNL     1       4.091   2.896  18.281  0.00  0.00    +0.000 A 
ATOM     11  C   UNL     1       3.339   4.065  18.534  0.00  0.00    +0.000 A 
ATOM     12  H   UNL     1       0.443   5.331  18.999  0.00  0.00    +0.000 HD
ENDROOT
BRANCH   2  13
ATOM     13  C   UNL     1       2.046   7.573  18.933  0.00  0.00    +0.000 A 
ATOM     14  C   UNL     1       2.150   8.429  17.824  0.00  0.00    +0.000 A 
ATOM     15  C   UNL     1       1.818   9.784  17.919  0.00  0.00    +0.000 A 
ATOM     16  C   UNL     1       1.341  10.289  19.119  0.00  0.00    +0.000 A 
ATOM     17  F   UNL     1       1.008  11.582  19.209  0.00  0.00    +0.000 F 
ATOM     18  C   UNL     1       1.198   9.465  20.226  0.00  0.00    +0.000 A 
ATOM     19  C   UNL     1       1.558   8.115  20.136  0.00  0.00    +0.000 A 
ENDBRANCH   2  13
BRANCH   1  22
ATOM     20  C   UNL     1       6.723   6.468  17.408  0.00  0.00    +0.000 C 
ATOM     21  C   UNL     1       6.228   5.296  18.291  0.00  0.00    +0.000 C 
ATOM     22  C   UNL     1       4.983   6.139  18.657  0.00  0.00    +0.000 C 
ATOM     23  C   UNL     1       5.258   6.960  17.368  0.00  0.00    +0.000 C 
BRANCH  20  25
ATOM     24  N   UNL     1       7.794   8.684  17.517  0.00  0.00    +0.000 N 
ATOM     25  C   UNL     1       7.785   7.412  18.051  0.00  0.00    +0.000 C 
ATOM     26  O   UNL     1       8.556   7.084  18.954  0.00  0.00    +0.000 OA
ATOM     27  H   UNL     1       7.014   8.981  16.944  0.00  0.00    +0.000 HD
BRANCH  24  28
ATOM     28  C   UNL     1       8.620   9.731  18.094  0.00  0.00    +0.000 C 
BRANCH  28  29
ATOM     29  C   UNL     1       8.166  11.118  17.642  0.00  0.00    +0.000 C 
BRANCH  29  31
ATOM     30  C   UNL     1       8.883  13.303  18.175  0.00  0.00    +0.000 C 
ATOM     31  O   UNL     1       9.280  12.015  17.723  0.00  0.00    +0.000 OA
ENDBRANCH  29  31
ENDBRANCH  28  29
ENDBRANCH  24  28
ENDBRANCH  20  25
ENDBRANCH   1  22
TORSDOF 6
ENDMDL
MODEL 6
REMARK VINA RESULT:      -7.4      8.834      9.756
REMARK  Name = 
REMARK  7 active torsions:
REMARK  status: ('A' for Active; 'I' for Inactive)
REMARK    1  A    between atoms: C_1  and  O_2
REMARK    2  A    between atoms: O_2  and  C_3
REMARK    3  A    between atoms: C_3  and  C_4
REMARK    4  A    between atoms: C_4  and  N_5
REMARK    5  A    between atoms: C_6  and  C_8
REMARK    6  A    between atoms: C_10  and  C_11
REMARK    7  A    between atoms: C_12  and  C_13
REMARK                            x       y       z     vdW  Elec       q    Type
REMARK                         _______ _______ _______ _____ _____    ______ ____
ROOT
ATOM      1  C   UNL     1      -1.464  10.899  19.130  0.00  0.00    +0.000 A 
ATOM      2  C   UNL     1      -0.343  10.356  19.756  0.00  0.00    +0.000 A 
ATOM      3  N   UNL     1      -0.312  10.921  21.016  0.00  0.00    +0.000 N 
ATOM      4  C   UNL     1      -1.356  11.791  21.202  0.00  0.00    +0.000 A 
ATOM      5  C   UNL     1      -1.711  12.526  22.337  0.00  0.00    +0.000 A 
ATOM      6  F   UNL     1      -1.019  12.405  23.476  0.00  0.00    +0.000 F 
ATOM      7  C   UNL     1      -2.814  13.366  22.277  0.00  0.00    +0.000 A 
ATOM      8  C   UNL     1      -3.501  13.494  21.083  0.00  0.00    +0.000 A 
ATOM      9  F   UNL     1      -4.553  14.322  21.017  0.00  0.00    +0.000 F 
ATOM     10  C   UNL     1      -3.136  12.777  19.940  0.00  0.00    +0.000 A 
ATOM     11  C   UNL     1      -2.060  11.864  20.003  0.00  0.00    +0.000 A 
ATOM     12  H   UNL     1       0.388  10.734  21.717  0.00  0.00    +0.000 HD
ENDROOT
BRANCH   2  13
ATOM     13  C   UNL     1       0.700   9.403  19.323  0.00  0.00    +0.000 A 
ATOM     14  C   UNL     1       1.271   9.477  18.042  0.00  0.00    +0.000 A 
ATOM     15  C   UNL     1       2.254   8.571  17.632  0.00  0.00    +0.000 A 
ATOM     16  C   UNL     1       2.704   7.602  18.516  0.00  0.00    +0.000 A 
ATOM     17  F   UNL     1       3.655   6.743  18.132  0.00  0.00    +0.000 F 
ATOM     18  C   UNL     1       2.182   7.519  19.799  0.00  0.00    +0.000 A 
ATOM     19  C   UNL     1       1.178   8.410  20.198  0.00  0.00    +0.000 A 
ENDBRANCH   2  13
BRANCH   1  22
ATOM     20  C   UNL     1      -3.488  10.922  16.268  0.00  0.00    +0.000 C 
ATOM     21  C   UNL     1      -3.445  10.082  17.568  0.00  0.00    +0.000 C 
ATOM     22  C   UNL     1      -1.961  10.487  17.743  0.00  0.00    +0.000 C 
ATOM     23  C   UNL     1      -2.263  11.691  16.811  0.00  0.00    +0.000 C 
BRANCH  20  25
ATOM     24  N   UNL     1      -4.327  10.347  14.024  0.00  0.00    +0.000 N 
ATOM     25  C   UNL     1      -3.313  10.133  14.934  0.00  0.00    +0.000 C 
ATOM     26  O   UNL     1      -2.367   9.383  14.685  0.00  0.00    +0.000 OA
ATOM     27  H   UNL     1      -4.960  11.124  14.168  0.00  0.00    +0.000 HD
BRANCH  24  28
ATOM     28  C   UNL     1      -4.251   9.804  12.678  0.00  0.00    +0.000 C 
BRANCH  28  29
ATOM     29  C   UNL     1      -5.606   9.275  12.209  0.00  0.00    +0.000 C 
BRANCH  29  31
ATOM     30  C   UNL     1      -7.544  10.148  11.182  0.00  0.00    +0.000 C 
ATOM     31  O   UNL     1      -6.123  10.162  11.209  0.00  0.00    +0.000 OA
ENDBRANCH  29  31
ENDBRANCH  28  29
ENDBRANCH  24  28
ENDBRANCH  20  25
ENDBRANCH   1  22
TORSDOF 6
ENDMDL
MODEL 7
REMARK VINA RESULT:      -7.3      9.132     11.156
REMARK  Name = 
REMARK  7 active torsions:
REMARK  status: ('A' for Active; 'I' for Inactive)
REMARK    1  A    between atoms: C_1  and  O_2
REMARK    2  A    between atoms: O_2  and  C_3
REMARK    3  A    between atoms: C_3  and  C_4
REMARK    4  A    between atoms: C_4  and  N_5
REMARK    5  A    between atoms: C_6  and  C_8
REMARK    6  A    between atoms: C_10  and  C_11
REMARK    7  A    between atoms: C_12  and  C_13
REMARK                            x       y       z     vdW  Elec       q    Type
REMARK                         _______ _______ _______ _____ _____    ______ ____
ROOT
ATOM      1  C   UNL     1      -1.609  11.722  20.138  0.00  0.00    +0.000 A 
ATOM      2  C   UNL     1      -2.569  12.025  19.174  0.00  0.00    +0.000 A 
ATOM      3  N   UNL     1      -3.237  13.135  19.653  0.00  0.00    +0.000 N 
ATOM      4  C   UNL     1      -2.741  13.535  20.869  0.00  0.00    +0.000 A 
ATOM      5  C   UNL     1      -3.101  14.628  21.662  0.00  0.00    +0.000 A 
ATOM      6  F   UNL     1      -4.028  15.499  21.246  0.00  0.00    +0.000 F 
ATOM      7  C   UNL     1      -2.461  14.817  22.878  0.00  0.00    +0.000 A 
ATOM      8  C   UNL     1      -1.523  13.891  23.298  0.00  0.00    +0.000 A 
ATOM      9  F   UNL     1      -0.920  14.060  24.484  0.00  0.00    +0.000 F 
ATOM     10  C   UNL     1      -1.176  12.784  22.518  0.00  0.00    +0.000 A 
ATOM     11  C   UNL     1      -1.765  12.616  21.245  0.00  0.00    +0.000 A 
ATOM     12  H   UNL     1      -3.999  13.599  19.183  0.00  0.00    +0.000 HD
ENDROOT
BRANCH   2  13
ATOM     13  C   UNL     1      -2.949  11.404  17.889  0.00  0.00    +0.000 A 
ATOM     14  C   UNL     1      -4.178  11.692  17.272  0.00  0.00    +0.000 A 
ATOM     15  C   UNL     1      -4.538  11.098  16.059  0.00  0.00    +0.000 A 
ATOM     16  C   UNL     1      -3.653  10.237  15.428  0.00  0.00    +0.000 A 
ATOM     17  F   UNL     1      -3.989   9.679  14.259  0.00  0.00    +0.000 F 
ATOM     18  C   UNL     1      -2.419   9.953  15.995  0.00  0.00    +0.000 A 
ATOM     19  C   UNL     1      -2.073  10.527  17.224  0.00  0.00    +0.000 A 
ENDBRANCH   2  13
BRANCH   1  22
ATOM     20  C   UNL     1       0.896   9.473  21.118  0.00  0.00    +0.000 C 
ATOM     21  C   UNL     1       0.884  10.886  20.485  0.00  0.00    +0.000 C 
ATOM     22  C   UNL     1      -0.559  10.618  19.992  0.00  0.00    +0.000 C 
ATOM     23  C   UNL     1      -0.648   9.529  21.095  0.00  0.00    +0.000 C 
BRANCH  20  25
ATOM     24  N   UNL     1       1.751   7.167  20.973  0.00  0.00    +0.000 N 
ATOM     25  C   UNL     1       1.591   8.353  20.286  0.00  0.00    +0.000 C 
ATOM     26  O   UNL     1       1.972   8.482  19.121  0.00  0.00    +0.000 OA
ATOM     27  H   UNL     1       1.238   7.026  21.834  0.00  0.00    +0.000 HD
BRANCH  24  28
ATOM     28  C   UNL     1       2.249   5.977  20.305  0.00  0.00    +0.000 C 
BRANCH  28  29
ATOM     29  C   UNL     1       1.413   4.746  20.651  0.00  0.00    +0.000 C 
BRANCH  29  31
ATOM     30  C   UNL     1       1.857   2.585  21.490  0.00  0.00    +0.000 C 
ATOM     31  O   UNL     1       2.115   3.975  21.633  0.00  0.00    +0.000 OA
ENDBRANCH  29  31
ENDBRANCH  28  29
ENDBRANCH  24  28
ENDBRANCH  20  25
ENDBRANCH   1  22
TORSDOF 6
ENDMDL
MODEL 8
REMARK VINA RESULT:      -7.3      4.702      7.402
REMARK  Name = 
REMARK  7 active torsions:
REMARK  status: ('A' for Active; 'I' for Inactive)
REMARK    1  A    between atoms: C_1  and  O_2
REMARK    2  A    between atoms: O_2  and  C_3
REMARK    3  A    between atoms: C_3  and  C_4
REMARK    4  A    between atoms: C_4  and  N_5
REMARK    5  A    between atoms: C_6  and  C_8
REMARK    6  A    between atoms: C_10  and  C_11
REMARK    7  A    between atoms: C_12  and  C_13
REMARK                            x       y       z     vdW  Elec       q    Type
REMARK                         _______ _______ _______ _____ _____    ______ ____
ROOT
ATOM      1  C   UNL     1       2.607   6.942  18.984  0.00  0.00    +0.000 A 
ATOM      2  C   UNL     1       3.504   7.116  17.931  0.00  0.00    +0.000 A 
ATOM      3  N   UNL     1       3.348   8.426  17.523  0.00  0.00    +0.000 N 
ATOM      4  C   UNL     1       2.395   9.074  18.268  0.00  0.00    +0.000 A 
ATOM      5  C   UNL     1       1.972  10.405  18.210  0.00  0.00    +0.000 A 
ATOM      6  F   UNL     1       2.547  11.269  17.363  0.00  0.00    +0.000 F 
ATOM      7  C   UNL     1       0.966  10.830  19.064  0.00  0.00    +0.000 A 
ATOM      8  C   UNL     1       0.370   9.914  19.914  0.00  0.00    +0.000 A 
ATOM      9  F   UNL     1      -0.618  10.318  20.724  0.00  0.00    +0.000 F 
ATOM     10  C   UNL     1       0.776   8.577  19.960  0.00  0.00    +0.000 A 
ATOM     11  C   UNL     1       1.848   8.145  19.148  0.00  0.00    +0.000 A 
ATOM     12  H   UNL     1       3.857   8.861  16.770  0.00  0.00    +0.000 HD
ENDROOT
BRANCH   2  13
ATOM     13  C   UNL     1       4.462   6.216  17.255  0.00  0.00    +0.000 A 
ATOM     14  C   UNL     1       5.796   6.599  17.039  0.00  0.00    +0.000 A 
ATOM     15  C   UNL     1       6.699   5.749  16.393  0.00  0.00    +0.000 A 
ATOM     16  C   UNL     1       6.286   4.488  15.991  0.00  0.00    +0.000 A 
ATOM     17  F   UNL     1       7.152   3.666  15.387  0.00  0.00    +0.000 F 
ATOM     18  C   UNL     1       4.983   4.067  16.216  0.00  0.00    +0.000 A 
ATOM     19  C   UNL     1       4.073   4.930  16.837  0.00  0.00    +0.000 A 
ENDBRANCH   2  13
BRANCH   1  22
ATOM     20  C   UNL     1       1.078   4.174  20.498  0.00  0.00    +0.000 C 
ATOM     21  C   UNL     1       1.448   5.605  20.959  0.00  0.00    +0.000 C 
ATOM     22  C   UNL     1       2.497   5.666  19.822  0.00  0.00    +0.000 C 
ATOM     23  C   UNL     1       1.690   4.537  19.126  0.00  0.00    +0.000 C 
BRANCH  20  25
ATOM     24  N   UNL     1       2.905   2.540  20.738  0.00  0.00    +0.000 N 
ATOM     25  C   UNL     1       1.732   3.004  21.295  0.00  0.00    +0.000 C 
ATOM     26  O   UNL     1       1.270   2.519  22.329  0.00  0.00    +0.000 OA
ATOM     27  H   UNL     1       3.365   3.096  20.028  0.00  0.00    +0.000 HD
BRANCH  24  28
ATOM     28  C   UNL     1       3.719   1.551  21.425  0.00  0.00    +0.000 C 
BRANCH  28  29
ATOM     29  C   UNL     1       5.158   1.554  20.911  0.00  0.00    +0.000 C 
BRANCH  29  31
ATOM     30  C   UNL     1       6.170  -0.192  22.137  0.00  0.00    +0.000 C 
ATOM     31  O   UNL     1       6.033   1.216  21.995  0.00  0.00    +0.000 OA
ENDBRANCH  29  31
ENDBRANCH  28  29
ENDBRANCH  24  28
ENDBRANCH  20  25
ENDBRANCH   1  22
TORSDOF 6
ENDMDL
MODEL 9
REMARK VINA RESULT:      -7.2      8.977     10.900
REMARK  Name = 
REMARK  7 active torsions:
REMARK  status: ('A' for Active; 'I' for Inactive)
REMARK    1  A    between atoms: C_1  and  O_2
REMARK    2  A    between atoms: O_2  and  C_3
REMARK    3  A    between atoms: C_3  and  C_4
REMARK    4  A    between atoms: C_4  and  N_5
REMARK    5  A    between atoms: C_6  and  C_8
REMARK    6  A    between atoms: C_10  and  C_11
REMARK    7  A    between atoms: C_12  and  C_13
REMARK                            x       y       z     vdW  Elec       q    Type
REMARK                         _______ _______ _______ _____ _____    ______ ____
ROOT
ATOM      1  C   UNL     1      -1.573  11.566  19.941  0.00  0.00    +0.000 A 
ATOM      2  C   UNL     1      -2.508  11.880  18.956  0.00  0.00    +0.000 A 
ATOM      3  N   UNL     1      -3.194  12.979  19.434  0.00  0.00    +0.000 N 
ATOM      4  C   UNL     1      -2.734  13.361  20.669  0.00  0.00    +0.000 A 
ATOM      5  C   UNL     1      -3.122  14.438  21.470  0.00  0.00    +0.000 A 
ATOM      6  F   UNL     1      -4.043  15.311  21.043  0.00  0.00    +0.000 F 
ATOM      7  C   UNL     1      -2.517  14.611  22.706  0.00  0.00    +0.000 A 
ATOM      8  C   UNL     1      -1.585  13.684  23.137  0.00  0.00    +0.000 A 
ATOM      9  F   UNL     1      -1.015  13.836  24.341  0.00  0.00    +0.000 F 
ATOM     10  C   UNL     1      -1.210  12.592  22.348  0.00  0.00    +0.000 A 
ATOM     11  C   UNL     1      -1.764  12.441  21.057  0.00  0.00    +0.000 A 
ATOM     12  H   UNL     1      -3.946  13.446  18.951  0.00  0.00    +0.000 HD
ENDROOT
BRANCH   2  13
ATOM     13  C   UNL     1      -2.849  11.278  17.651  0.00  0.00    +0.000 A 
ATOM     14  C   UNL     1      -2.019  10.318  17.049  0.00  0.00    +0.000 A 
ATOM     15  C   UNL     1      -2.341   9.753  15.811  0.00  0.00    +0.000 A 
ATOM     16  C   UNL     1      -3.520  10.117  15.178  0.00  0.00    +0.000 A 
ATOM     17  F   UNL     1      -3.838   9.567  14.000  0.00  0.00    +0.000 F 
ATOM     18  C   UNL     1      -4.377  11.041  15.758  0.00  0.00    +0.000 A 
ATOM     19  C   UNL     1      -4.039  11.625  16.984  0.00  0.00    +0.000 A 
ENDBRANCH   2  13
BRANCH   1  22
ATOM     20  C   UNL     1       0.997   9.395  20.927  0.00  0.00    +0.000 C 
ATOM     21  C   UNL     1       0.943  10.778  20.235  0.00  0.00    +0.000 C 
ATOM     22  C   UNL     1      -0.512  10.470  19.805  0.00  0.00    +0.000 C 
ATOM     23  C   UNL     1      -0.547   9.430  20.956  0.00  0.00    +0.000 C 
BRANCH  20  25
ATOM     24  N   UNL     1       1.821   7.075  20.831  0.00  0.00    +0.000 N 
ATOM     25  C   UNL     1       1.679   8.248  20.120  0.00  0.00    +0.000 C 
ATOM     26  O   UNL     1       2.064   8.349  18.954  0.00  0.00    +0.000 OA
ATOM     27  H   UNL     1       1.304   6.959  21.694  0.00  0.00    +0.000 HD
BRANCH  24  28
ATOM     28  C   UNL     1       2.306   5.865  20.189  0.00  0.00    +0.000 C 
BRANCH  28  29
ATOM     29  C   UNL     1       1.856   4.612  20.940  0.00  0.00    +0.000 C 
BRANCH  29  31
ATOM     30  C   UNL     1       1.279   3.580  18.897  0.00  0.00    +0.000 C 
ATOM     31  O   UNL     1       0.821   3.972  20.184  0.00  0.00    +0.000 OA
ENDBRANCH  29  31
ENDBRANCH  28  29
ENDBRANCH  24  28
ENDBRANCH  20  25
ENDBRANCH   1  22
TORSDOF 6
ENDMDL
