MODEL 1
REMARK VINA RESULT:      -8.2      0.000      0.000
REMARK  Name = 
REMARK  8 active torsions:
REMARK  status: ('A' for Active; 'I' for Inactive)
REMARK    1  A    between atoms: C_1  and  C_2
REMARK    2  A    between atoms: C_2  and  C_3
REMARK    3  A    between atoms: C_4  and  N_5
REMARK    4  A    between atoms: N_5  and  C_6
REMARK    5  A    between atoms: C_6  and  C_7
REMARK    6  A    between atoms: C_12  and  N_13
REMARK    7  A    between atoms: N_16  and  C_17
REMARK    8  A    between atoms: N_22  and  C_23
REMARK                            x       y       z     vdW  Elec       q    Type
REMARK                         _______ _______ _______ _____ _____    ______ ____
ROOT
ATOM      1  C   UNL     1       2.194   7.178  19.973  0.00  0.00    +0.000 C 
ENDROOT
BRANCH   1   2
ATOM      2  C   UNL     1       2.305   5.648  20.035  0.00  0.00    +0.000 A 
ATOM      3  C   UNL     1       1.246   4.935  20.652  0.00  0.00    +0.000 A 
ATOM      4  C   UNL     1       1.268   3.548  20.775  0.00  0.00    +0.000 A 
ATOM      5  C   UNL     1       2.341   2.834  20.269  0.00  0.00    +0.000 A 
ATOM      6  C   UNL     1       3.378   3.512  19.621  0.00  0.00    +0.000 A 
ATOM      7  C   UNL     1       3.391   4.916  19.464  0.00  0.00    +0.000 A 
BRANCH   7   8
ATOM      8  N   UNL     1       4.425   5.523  18.755  0.00  0.00    +0.000 N 
ATOM      9  C   UNL     1       4.164   5.988  17.386  0.00  0.00    +0.000 C 
ATOM     10  C   UNL     1       4.929   5.157  16.352  0.00  0.00    +0.000 C 
ATOM     11  N   UNL     1       6.378   5.291  16.565  0.00  0.00    +0.000 NA
ATOM     12  C   UNL     1       7.109   4.622  15.492  0.00  0.00    +0.000 C 
ATOM     13  C   UNL     1       6.705   4.738  17.899  0.00  0.00    +0.000 C 
ATOM     14  C   UNL     1       5.863   5.337  19.069  0.00  0.00    +0.000 C 
ENDBRANCH   7   8
ENDBRANCH   1   2
BRANCH   1  15
ATOM     15  N   UNL     1       1.526   7.731  21.145  0.00  0.00    +0.000 N 
ATOM     16  H   UNL     1       2.029   7.461  21.990  0.00  0.00    +0.000 HD
BRANCH  15  18
ATOM     17  C   UNL     1       0.192   9.760  20.456  0.00  0.00    +0.000 A 
ATOM     18  C   UNL     1       0.761   8.885  21.313  0.00  0.00    +0.000 A 
ATOM     19  C   UNL     1       0.540   9.233  22.754  0.00  0.00    +0.000 A 
ATOM     20  N   UNL     1      -0.050  10.268  23.253  0.00  0.00    +0.000 NA
ATOM     21  N   UNL     1      -0.575  11.152  22.358  0.00  0.00    +0.000 N 
ATOM     22  C   UNL     1      -1.225  12.323  22.920  0.00  0.00    +0.000 C 
ATOM     23  C   UNL     1      -0.584  10.948  20.989  0.00  0.00    +0.000 A 
ATOM     24  O   UNL     1      -1.163  11.712  20.215  0.00  0.00    +0.000 OA
BRANCH  17  26
ATOM     25  C   UNL     1       1.555  10.463  18.384  0.00  0.00    +0.000 C 
ATOM     26  C   UNL     1       0.312   9.778  18.946  0.00  0.00    +0.000 C 
ENDBRANCH  17  26
ENDBRANCH  15  18
ENDBRANCH   1  15
TORSDOF 5
ENDMDL
MODEL 2
REMARK VINA RESULT:      -7.8      1.638      2.578
REMARK  Name = 
REMARK  8 active torsions:
REMARK  status: ('A' for Active; 'I' for Inactive)
REMARK    1  A    between atoms: C_1  and  C_2
REMARK    2  A    between atoms: C_2  and  C_3
REMARK    3  A    between atoms: C_4  and  N_5
REMARK    4  A    between atoms: N_5  and  C_6
REMARK    5  A    between atoms: C_6  and  C_7
REMARK    6  A    between atoms: C_12  and  N_13
REMARK    7  A    between atoms: N_16  and  C_17
REMARK    8  A    between atoms: N_22  and  C_23
REMARK                            x       y       z     vdW  Elec       q    Type
REMARK                         _______ _______ _______ _____ _____    ______ ____
ROOT
ATOM      1  C   UNL     1       2.765   6.666  19.464  0.00  0.00    +0.000 C 
ENDROOT
BRANCH   1   2
ATOM      2  C   UNL     1       2.486   5.173  19.688  0.00  0.00    +0.000 A 
ATOM      3  C   UNL     1       1.356   4.824  20.470  0.00  0.00    +0.000 A 
ATOM      4  C   UNL     1       1.035   3.497  20.746  0.00  0.00    +0.000 A 
ATOM      5  C   UNL     1       1.825   2.482  20.233  0.00  0.00    +0.000 A 
ATOM      6  C   UNL     1       2.921   2.800  19.425  0.00  0.00    +0.000 A 
ATOM      7  C   UNL     1       3.276   4.131  19.111  0.00  0.00    +0.000 A 
BRANCH   7   8
ATOM      8  N   UNL     1       4.344   4.378  18.252  0.00  0.00    +0.000 N 
ATOM      9  C   UNL     1       5.711   4.290  18.782  0.00  0.00    +0.000 C 
ATOM     10  C   UNL     1       6.387   5.663  18.830  0.00  0.00    +0.000 C 
ATOM     11  N   UNL     1       6.505   6.218  17.473  0.00  0.00    +0.000 NA
ATOM     12  C   UNL     1       7.281   7.455  17.499  0.00  0.00    +0.000 C 
ATOM     13  C   UNL     1       5.142   6.419  16.932  0.00  0.00    +0.000 C 
ATOM     14  C   UNL     1       4.230   5.153  16.992  0.00  0.00    +0.000 C 
ENDBRANCH   7   8
ENDBRANCH   1   2
BRANCH   1  15
ATOM     15  N   UNL     1       2.001   7.512  20.373  0.00  0.00    +0.000 N 
ATOM     16  H   UNL     1       2.424   7.493  21.301  0.00  0.00    +0.000 HD
BRANCH  15  18
ATOM     17  C   UNL     1       0.261   9.278  20.843  0.00  0.00    +0.000 A 
ATOM     18  C   UNL     1       1.238   8.658  20.147  0.00  0.00    +0.000 A 
ATOM     19  C   UNL     1       1.566   9.330  18.849  0.00  0.00    +0.000 A 
ATOM     20  N   UNL     1       0.998  10.355  18.305  0.00  0.00    +0.000 NA
ATOM     21  N   UNL     1      -0.014  10.930  19.014  0.00  0.00    +0.000 N 
ATOM     22  C   UNL     1      -0.661  12.073  18.396  0.00  0.00    +0.000 C 
ATOM     23  C   UNL     1      -0.383  10.534  20.288  0.00  0.00    +0.000 A 
ATOM     24  O   UNL     1      -1.227  11.144  20.947  0.00  0.00    +0.000 OA
BRANCH  17  26
ATOM     25  C   UNL     1       0.113   9.471  23.409  0.00  0.00    +0.000 C 
ATOM     26  C   UNL     1      -0.392   8.812  22.127  0.00  0.00    +0.000 C 
ENDBRANCH  17  26
ENDBRANCH  15  18
ENDBRANCH   1  15
TORSDOF 5
ENDMDL
MODEL 3
REMARK VINA RESULT:      -7.8      1.107      1.532
REMARK  Name = 
REMARK  8 active torsions:
REMARK  status: ('A' for Active; 'I' for Inactive)
REMARK    1  A    between atoms: C_1  and  C_2
REMARK    2  A    between atoms: C_2  and  C_3
REMARK    3  A    between atoms: C_4  and  N_5
REMARK    4  A    between atoms: N_5  and  C_6
REMARK    5  A    between atoms: C_6  and  C_7
REMARK    6  A    between atoms: C_12  and  N_13
REMARK    7  A    between atoms: N_16  and  C_17
REMARK    8  A    between atoms: N_22  and  C_23
REMARK                            x       y       z     vdW  Elec       q    Type
REMARK                         _______ _______ _______ _____ _____    ______ ____
ROOT
ATOM      1  C   UNL     1       2.597   6.579  19.509  0.00  0.00    +0.000 C 
ENDROOT
BRANCH   1   2
ATOM      2  C   UNL     1       2.377   5.076  19.731  0.00  0.00    +0.000 A 
ATOM      3  C   UNL     1       1.271   4.683  20.527  0.00  0.00    +0.000 A 
ATOM      4  C   UNL     1       1.003   3.344  20.802  0.00  0.00    +0.000 A 
ATOM      5  C   UNL     1       1.823   2.361  20.275  0.00  0.00    +0.000 A 
ATOM      6  C   UNL     1       2.897   2.723  19.455  0.00  0.00    +0.000 A 
ATOM      7  C   UNL     1       3.197   4.067  19.140  0.00  0.00    +0.000 A 
BRANCH   7   8
ATOM      8  N   UNL     1       4.244   4.355  18.268  0.00  0.00    +0.000 N 
ATOM      9  C   UNL     1       5.622   4.295  18.775  0.00  0.00    +0.000 C 
ATOM     10  C   UNL     1       6.262   5.684  18.835  0.00  0.00    +0.000 C 
ATOM     11  N   UNL     1       6.343   6.264  17.486  0.00  0.00    +0.000 NA
ATOM     12  C   UNL     1       7.087   7.520  17.521  0.00  0.00    +0.000 C 
ATOM     13  C   UNL     1       4.967   6.439  16.971  0.00  0.00    +0.000 C 
ATOM     14  C   UNL     1       4.089   5.149  17.025  0.00  0.00    +0.000 C 
ENDBRANCH   7   8
ENDBRANCH   1   2
BRANCH   1  15
ATOM     15  N   UNL     1       2.213   7.371  20.672  0.00  0.00    +0.000 N 
ATOM     16  H   UNL     1       2.948   7.329  21.378  0.00  0.00    +0.000 HD
BRANCH  15  18
ATOM     17  C   UNL     1       0.808   9.321  19.900  0.00  0.00    +0.000 A 
ATOM     18  C   UNL     1       1.408   8.504  20.793  0.00  0.00    +0.000 A 
ATOM     19  C   UNL     1       1.176   8.904  22.218  0.00  0.00    +0.000 A 
ATOM     20  N   UNL     1       0.550   9.938  22.674  0.00  0.00    +0.000 NA
ATOM     21  N   UNL     1      -0.006  10.765  21.744  0.00  0.00    +0.000 N 
ATOM     22  C   UNL     1      -0.697  11.934  22.257  0.00  0.00    +0.000 C 
ATOM     23  C   UNL     1      -0.009  10.503  20.385  0.00  0.00    +0.000 A 
ATOM     24  O   UNL     1      -0.615  11.212  19.581  0.00  0.00    +0.000 OA
BRANCH  17  26
ATOM     25  C   UNL     1       2.228   9.825  17.809  0.00  0.00    +0.000 C 
ATOM     26  C   UNL     1       0.926   9.279  18.391  0.00  0.00    +0.000 C 
ENDBRANCH  17  26
ENDBRANCH  15  18
ENDBRANCH   1  15
TORSDOF 5
ENDMDL
MODEL 4
REMARK VINA RESULT:      -7.5      2.320      4.463
REMARK  Name = 
REMARK  8 active torsions:
REMARK  status: ('A' for Active; 'I' for Inactive)
REMARK    1  A    between atoms: C_1  and  C_2
REMARK    2  A    between atoms: C_2  and  C_3
REMARK    3  A    between atoms: C_4  and  N_5
REMARK    4  A    between atoms: N_5  and  C_6
REMARK    5  A    between atoms: C_6  and  C_7
REMARK    6  A    between atoms: C_12  and  N_13
REMARK    7  A    between atoms: N_16  and  C_17
REMARK    8  A    between atoms: N_22  and  C_23
REMARK                            x       y       z     vdW  Elec       q    Type
REMARK                         _______ _______ _______ _____ _____    ______ ____
ROOT
ATOM      1  C   UNL     1       3.468   6.131  19.066  0.00  0.00    +0.000 C 
ENDROOT
BRANCH   1   2
ATOM      2  C   UNL     1       4.141   5.685  17.760  0.00  0.00    +0.000 A 
ATOM      3  C   UNL     1       4.777   6.679  16.974  0.00  0.00    +0.000 A 
ATOM      4  C   UNL     1       5.395   6.375  15.763  0.00  0.00    +0.000 A 
ATOM      5  C   UNL     1       5.408   5.065  15.314  0.00  0.00    +0.000 A 
ATOM      6  C   UNL     1       4.822   4.061  16.091  0.00  0.00    +0.000 A 
ATOM      7  C   UNL     1       4.195   4.324  17.330  0.00  0.00    +0.000 A 
BRANCH   7   8
ATOM      8  N   UNL     1       3.683   3.270  18.083  0.00  0.00    +0.000 N 
ATOM      9  C   UNL     1       2.247   2.972  17.995  0.00  0.00    +0.000 C 
ATOM     10  C   UNL     1       1.523   3.292  19.305  0.00  0.00    +0.000 C 
ATOM     11  N   UNL     1       2.053   2.459  20.395  0.00  0.00    +0.000 NA
ATOM     12  C   UNL     1       1.264   2.655  21.608  0.00  0.00    +0.000 C 
ATOM     13  C   UNL     1       3.481   2.798  20.590  0.00  0.00    +0.000 C 
ATOM     14  C   UNL     1       4.344   2.720  19.292  0.00  0.00    +0.000 C 
ENDBRANCH   7   8
ENDBRANCH   1   2
BRANCH   1  15
ATOM     15  N   UNL     1       2.243   6.886  18.826  0.00  0.00    +0.000 N 
ATOM     16  H   UNL     1       1.435   6.270  18.906  0.00  0.00    +0.000 HD
BRANCH  15  18
ATOM     17  C   UNL     1       1.458   8.913  20.108  0.00  0.00    +0.000 A 
ATOM     18  C   UNL     1       1.927   8.227  19.044  0.00  0.00    +0.000 A 
ATOM     19  C   UNL     1       2.141   9.081  17.831  0.00  0.00    +0.000 A 
ATOM     20  N   UNL     1       1.874  10.334  17.670  0.00  0.00    +0.000 NA
ATOM     21  N   UNL     1       1.361  10.986  18.752  0.00  0.00    +0.000 N 
ATOM     22  C   UNL     1       1.049  12.392  18.565  0.00  0.00    +0.000 C 
ATOM     23  C   UNL     1       1.207  10.404  19.998  0.00  0.00    +0.000 A 
ATOM     24  O   UNL     1       0.844  11.049  20.983  0.00  0.00    +0.000 OA
BRANCH  17  26
ATOM     25  C   UNL     1      -0.479   8.221  21.661  0.00  0.00    +0.000 C 
ATOM     26  C   UNL     1       1.027   8.351  21.447  0.00  0.00    +0.000 C 
ENDBRANCH  17  26
ENDBRANCH  15  18
ENDBRANCH   1  15
TORSDOF 5
ENDMDL
MODEL 5
REMARK VINA RESULT:      -7.5      1.738      3.971
REMARK  Name = 
REMARK  8 active torsions:
REMARK  status: ('A' for Active; 'I' for Inactive)
REMARK    1  A    between atoms: C_1  and  C_2
REMARK    2  A    between atoms: C_2  and  C_3
REMARK    3  A    between atoms: C_4  and  N_5
REMARK    4  A    between atoms: N_5  and  C_6
REMARK    5  A    between atoms: C_6  and  C_7
REMARK    6  A    between atoms: C_12  and  N_13
REMARK    7  A    between atoms: N_16  and  C_17
REMARK    8  A    between atoms: N_22  and  C_23
REMARK                            x       y       z     vdW  Elec       q    Type
REMARK                         _______ _______ _______ _____ _____    ______ ____
ROOT
ATOM      1  C   UNL     1       3.377   6.211  18.767  0.00  0.00    +0.000 C 
ENDROOT
BRANCH   1   2
ATOM      2  C   UNL     1       4.109   5.730  17.505  0.00  0.00    +0.000 A 
ATOM      3  C   UNL     1       4.714   6.712  16.680  0.00  0.00    +0.000 A 
ATOM      4  C   UNL     1       5.380   6.375  15.504  0.00  0.00    +0.000 A 
ATOM      5  C   UNL     1       5.475   5.045  15.131  0.00  0.00    +0.000 A 
ATOM      6  C   UNL     1       4.921   4.055  15.950  0.00  0.00    +0.000 A 
ATOM      7  C   UNL     1       4.247   4.352  17.155  0.00  0.00    +0.000 A 
BRANCH   7   8
ATOM      8  N   UNL     1       3.771   3.316  17.954  0.00  0.00    +0.000 N 
ATOM      9  C   UNL     1       2.364   2.914  17.826  0.00  0.00    +0.000 C 
ATOM     10  C   UNL     1       1.560   3.267  19.080  0.00  0.00    +0.000 C 
ATOM     11  N   UNL     1       2.092   2.543  20.244  0.00  0.00    +0.000 NA
ATOM     12  C   UNL     1       1.236   2.761  21.407  0.00  0.00    +0.000 C 
ATOM     13  C   UNL     1       3.483   2.991  20.476  0.00  0.00    +0.000 C 
ATOM     14  C   UNL     1       4.410   2.891  19.224  0.00  0.00    +0.000 C 
ENDBRANCH   7   8
ENDBRANCH   1   2
BRANCH   1  15
ATOM     15  N   UNL     1       2.612   7.429  18.530  0.00  0.00    +0.000 N 
ATOM     16  H   UNL     1       2.319   7.470  17.554  0.00  0.00    +0.000 HD
BRANCH  15  18
ATOM     17  C   UNL     1       1.148   9.363  19.230  0.00  0.00    +0.000 A 
ATOM     18  C   UNL     1       1.800   8.189  19.373  0.00  0.00    +0.000 A 
ATOM     19  C   UNL     1       1.632   7.575  20.730  0.00  0.00    +0.000 A 
ATOM     20  N   UNL     1       1.017   8.052  21.760  0.00  0.00    +0.000 NA
ATOM     21  N   UNL     1       0.406   9.259  21.593  0.00  0.00    +0.000 N 
ATOM     22  C   UNL     1      -0.273   9.800  22.757  0.00  0.00    +0.000 C 
ATOM     23  C   UNL     1       0.341   9.927  20.383  0.00  0.00    +0.000 A 
ATOM     24  O   UNL     1      -0.312  10.962  20.238  0.00  0.00    +0.000 OA
BRANCH  17  26
ATOM     25  C   UNL     1       2.292  11.361  18.071  0.00  0.00    +0.000 C 
ATOM     26  C   UNL     1       1.193  10.301  18.042  0.00  0.00    +0.000 C 
ENDBRANCH  17  26
ENDBRANCH  15  18
ENDBRANCH   1  15
TORSDOF 5
ENDMDL
MODEL 6
REMARK VINA RESULT:      -7.4      1.297      1.445
REMARK  Name = 
REMARK  8 active torsions:
REMARK  status: ('A' for Active; 'I' for Inactive)
REMARK    1  A    between atoms: C_1  and  C_2
REMARK    2  A    between atoms: C_2  and  C_3
REMARK    3  A    between atoms: C_4  and  N_5
REMARK    4  A    between atoms: N_5  and  C_6
REMARK    5  A    between atoms: C_6  and  C_7
REMARK    6  A    between atoms: C_12  and  N_13
REMARK    7  A    between atoms: N_16  and  C_17
REMARK    8  A    between atoms: N_22  and  C_23
REMARK                            x       y       z     vdW  Elec       q    Type
REMARK                         _______ _______ _______ _____ _____    ______ ____
ROOT
ATOM      1  C   UNL     1       1.453   5.833  19.802  0.00  0.00    +0.000 C 
ENDROOT
BRANCH   1   2
ATOM      2  C   UNL     1       2.229   4.573  20.212  0.00  0.00    +0.000 A 
ATOM      3  C   UNL     1       1.621   3.703  21.152  0.00  0.00    +0.000 A 
ATOM      4  C   UNL     1       2.256   2.547  21.602  0.00  0.00    +0.000 A 
ATOM      5  C   UNL     1       3.509   2.222  21.111  0.00  0.00    +0.000 A 
ATOM      6  C   UNL     1       4.111   3.044  20.152  0.00  0.00    +0.000 A 
ATOM      7  C   UNL     1       3.498   4.217  19.661  0.00  0.00    +0.000 A 
BRANCH   7   8
ATOM      8  N   UNL     1       4.125   4.959  18.663  0.00  0.00    +0.000 N 
ATOM      9  C   UNL     1       3.694   4.776  17.270  0.00  0.00    +0.000 C 
ATOM     10  C   UNL     1       4.778   4.099  16.428  0.00  0.00    +0.000 C 
ATOM     11  N   UNL     1       5.983   4.941  16.381  0.00  0.00    +0.000 NA
ATOM     12  C   UNL     1       6.961   4.370  15.458  0.00  0.00    +0.000 C 
ATOM     13  C   UNL     1       6.515   5.071  17.756  0.00  0.00    +0.000 C 
ATOM     14  C   UNL     1       5.471   5.565  18.806  0.00  0.00    +0.000 C 
ENDBRANCH   7   8
ENDBRANCH   1   2
BRANCH   1  15
ATOM     15  N   UNL     1       1.821   6.993  20.604  0.00  0.00    +0.000 N 
ATOM     16  H   UNL     1       2.758   6.867  20.987  0.00  0.00    +0.000 HD
BRANCH  15  18
ATOM     17  C   UNL     1       1.260   9.183  19.482  0.00  0.00    +0.000 A 
ATOM     18  C   UNL     1       1.447   8.334  20.516  0.00  0.00    +0.000 A 
ATOM     19  C   UNL     1       1.220   8.966  21.855  0.00  0.00    +0.000 A 
ATOM     20  N   UNL     1       0.945  10.198  22.130  0.00  0.00    +0.000 NA
ATOM     21  N   UNL     1       0.806  11.037  21.065  0.00  0.00    +0.000 N 
ATOM     22  C   UNL     1       0.510  12.424  21.375  0.00  0.00    +0.000 C 
ATOM     23  C   UNL     1       0.854  10.620  19.746  0.00  0.00    +0.000 A 
ATOM     24  O   UNL     1       0.616  11.382  18.808  0.00  0.00    +0.000 OA
BRANCH  17  26
ATOM     25  C   UNL     1       2.910   8.413  17.658  0.00  0.00    +0.000 C 
ATOM     26  C   UNL     1       1.512   8.914  18.014  0.00  0.00    +0.000 C 
ENDBRANCH  17  26
ENDBRANCH  15  18
ENDBRANCH   1  15
TORSDOF 5
ENDMDL
MODEL 7
REMARK VINA RESULT:      -7.3      1.572      2.319
REMARK  Name = 
REMARK  8 active torsions:
REMARK  status: ('A' for Active; 'I' for Inactive)
REMARK    1  A    between atoms: C_1  and  C_2
REMARK    2  A    between atoms: C_2  and  C_3
REMARK    3  A    between atoms: C_4  and  N_5
REMARK    4  A    between atoms: N_5  and  C_6
REMARK    5  A    between atoms: C_6  and  C_7
REMARK    6  A    between atoms: C_12  and  N_13
REMARK    7  A    between atoms: N_16  and  C_17
REMARK    8  A    between atoms: N_22  and  C_23
REMARK                            x       y       z     vdW  Elec       q    Type
REMARK                         _______ _______ _______ _____ _____    ______ ____
ROOT
ATOM      1  C   UNL     1       2.177   6.433  20.675  0.00  0.00    +0.000 C 
ENDROOT
BRANCH   1   2
ATOM      2  C   UNL     1       2.129   5.004  20.117  0.00  0.00    +0.000 A 
ATOM      3  C   UNL     1       1.021   4.194  20.475  0.00  0.00    +0.000 A 
ATOM      4  C   UNL     1       0.901   2.878  20.036  0.00  0.00    +0.000 A 
ATOM      5  C   UNL     1       1.877   2.340  19.214  0.00  0.00    +0.000 A 
ATOM      6  C   UNL     1       2.958   3.132  18.815  0.00  0.00    +0.000 A 
ATOM      7  C   UNL     1       3.113   4.475  19.227  0.00  0.00    +0.000 A 
BRANCH   7   8
ATOM      8  N   UNL     1       4.182   5.227  18.745  0.00  0.00    +0.000 N 
ATOM      9  C   UNL     1       4.025   5.941  17.471  0.00  0.00    +0.000 C 
ATOM     10  C   UNL     1       4.908   5.338  16.375  0.00  0.00    +0.000 C 
ATOM     11  N   UNL     1       6.327   5.457  16.744  0.00  0.00    +0.000 NA
ATOM     12  C   UNL     1       7.174   5.021  15.636  0.00  0.00    +0.000 C 
ATOM     13  C   UNL     1       6.556   4.667  17.974  0.00  0.00    +0.000 C 
ATOM     14  C   UNL     1       5.592   5.013  19.152  0.00  0.00    +0.000 C 
ENDBRANCH   7   8
ENDBRANCH   1   2
BRANCH   1  15
ATOM     15  N   UNL     1       1.599   7.405  19.754  0.00  0.00    +0.000 N 
ATOM     16  H   UNL     1       0.900   6.952  19.166  0.00  0.00    +0.000 HD
BRANCH  15  18
ATOM     17  C   UNL     1       1.153   9.605  20.907  0.00  0.00    +0.000 A 
ATOM     18  C   UNL     1       1.403   8.782  19.867  0.00  0.00    +0.000 A 
ATOM     19  C   UNL     1       1.472   9.490  18.548  0.00  0.00    +0.000 A 
ATOM     20  N   UNL     1       1.260  10.738  18.290  0.00  0.00    +0.000 NA
ATOM     21  N   UNL     1       0.967  11.532  19.358  0.00  0.00    +0.000 N 
ATOM     22  C   UNL     1       0.714  12.932  19.066  0.00  0.00    +0.000 C 
ATOM     23  C   UNL     1       0.978  11.093  20.671  0.00  0.00    +0.000 A 
ATOM     24  O   UNL     1       0.817  11.860  21.621  0.00  0.00    +0.000 OA
BRANCH  17  26
ATOM     25  C   UNL     1      -0.556   9.103  22.770  0.00  0.00    +0.000 C 
ATOM     26  C   UNL     1       0.907   9.217  22.350  0.00  0.00    +0.000 C 
ENDBRANCH  17  26
ENDBRANCH  15  18
ENDBRANCH   1  15
TORSDOF 5
ENDMDL
MODEL 8
REMARK VINA RESULT:      -7.3      1.397      2.185
REMARK  Name = 
REMARK  8 active torsions:
REMARK  status: ('A' for Active; 'I' for Inactive)
REMARK    1  A    between atoms: C_1  and  C_2
REMARK    2  A    between atoms: C_2  and  C_3
REMARK    3  A    between atoms: C_4  and  N_5
REMARK    4  A    between atoms: N_5  and  C_6
REMARK    5  A    between atoms: C_6  and  C_7
REMARK    6  A    between atoms: C_12  and  N_13
REMARK    7  A    between atoms: N_16  and  C_17
REMARK    8  A    between atoms: N_22  and  C_23
REMARK                            x       y       z     vdW  Elec       q    Type
REMARK                         _______ _______ _______ _____ _____    ______ ____
ROOT
ATOM      1  C   UNL     1       2.628   7.326  19.274  0.00  0.00    +0.000 C 
ENDROOT
BRANCH   1   2
ATOM      2  C   UNL     1       2.869   5.838  19.563  0.00  0.00    +0.000 A 
ATOM      3  C   UNL     1       1.873   5.141  20.293  0.00  0.00    +0.000 A 
ATOM      4  C   UNL     1       2.012   3.794  20.624  0.00  0.00    +0.000 A 
ATOM      5  C   UNL     1       3.142   3.105  20.218  0.00  0.00    +0.000 A 
ATOM      6  C   UNL     1       4.119   3.762  19.462  0.00  0.00    +0.000 A 
ATOM      7  C   UNL     1       4.013   5.122  19.096  0.00  0.00    +0.000 A 
BRANCH   7   8
ATOM      8  N   UNL     1       4.992   5.700  18.291  0.00  0.00    +0.000 N 
ATOM      9  C   UNL     1       4.597   6.263  16.993  0.00  0.00    +0.000 C 
ATOM     10  C   UNL     1       5.163   5.446  15.828  0.00  0.00    +0.000 C 
ATOM     11  N   UNL     1       6.633   5.469  15.860  0.00  0.00    +0.000 NA
ATOM     12  C   UNL     1       7.173   4.818  14.668  0.00  0.00    +0.000 C 
ATOM     13  C   UNL     1       7.083   4.817  17.110  0.00  0.00    +0.000 C 
ATOM     14  C   UNL     1       6.440   5.399  18.408  0.00  0.00    +0.000 C 
ENDBRANCH   7   8
ENDBRANCH   1   2
BRANCH   1  15
ATOM     15  N   UNL     1       1.708   7.933  20.228  0.00  0.00    +0.000 N 
ATOM     16  H   UNL     1       1.986   7.693  21.179  0.00  0.00    +0.000 HD
BRANCH  15  18
ATOM     17  C   UNL     1       0.022   9.656  20.975  0.00  0.00    +0.000 A 
ATOM     18  C   UNL     1       0.947   9.101  20.163  0.00  0.00    +0.000 A 
ATOM     19  C   UNL     1       1.205   9.897  18.920  0.00  0.00    +0.000 A 
ATOM     20  N   UNL     1       0.619  10.975  18.517  0.00  0.00    +0.000 NA
ATOM     21  N   UNL     1      -0.341  11.484  19.340  0.00  0.00    +0.000 N 
ATOM     22  C   UNL     1      -1.009  12.688  18.878  0.00  0.00    +0.000 C 
ATOM     23  C   UNL     1      -0.637  10.966  20.589  0.00  0.00    +0.000 A 
ATOM     24  O   UNL     1      -1.431  11.514  21.355  0.00  0.00    +0.000 OA
BRANCH  17  26
ATOM     25  C   UNL     1       0.112   9.503  23.547  0.00  0.00    +0.000 C 
ATOM     26  C   UNL     1      -0.558   9.070  22.245  0.00  0.00    +0.000 C 
ENDBRANCH  17  26
ENDBRANCH  15  18
ENDBRANCH   1  15
TORSDOF 5
ENDMDL
MODEL 9
REMARK VINA RESULT:      -7.3      3.037      8.128
REMARK  Name = 
REMARK  8 active torsions:
REMARK  status: ('A' for Active; 'I' for Inactive)
REMARK    1  A    between atoms: C_1  and  C_2
REMARK    2  A    between atoms: C_2  and  C_3
REMARK    3  A    between atoms: C_4  and  N_5
REMARK    4  A    between atoms: N_5  and  C_6
REMARK    5  A    between atoms: C_6  and  C_7
REMARK    6  A    between atoms: C_12  and  N_13
REMARK    7  A    between atoms: N_16  and  C_17
REMARK    8  A    between atoms: N_22  and  C_23
REMARK                            x       y       z     vdW  Elec       q    Type
REMARK                         _______ _______ _______ _____ _____    ______ ____
ROOT
ATOM      1  C   UNL     1       1.435   8.873  19.633  0.00  0.00    +0.000 C 
ENDROOT
BRANCH   1   2
ATOM      2  C   UNL     1       0.668   9.543  20.781  0.00  0.00    +0.000 A 
ATOM      3  C   UNL     1       0.312   8.738  21.893  0.00  0.00    +0.000 A 
ATOM      4  C   UNL     1      -0.404   9.251  22.973  0.00  0.00    +0.000 A 
ATOM      5  C   UNL     1      -0.769  10.587  22.977  0.00  0.00    +0.000 A 
ATOM      6  C   UNL     1      -0.394  11.410  21.910  0.00  0.00    +0.000 A 
ATOM      7  C   UNL     1       0.342  10.933  20.802  0.00  0.00    +0.000 A 
BRANCH   7   8
ATOM      8  N   UNL     1       0.735  11.819  19.801  0.00  0.00    +0.000 N 
ATOM      9  C   UNL     1       1.835  12.753  20.077  0.00  0.00    +0.000 C 
ATOM     10  C   UNL     1       1.342  14.201  20.146  0.00  0.00    +0.000 C 
ATOM     11  N   UNL     1       0.771  14.604  18.852  0.00  0.00    +0.000 NA
ATOM     12  C   UNL     1       0.439  16.026  18.870  0.00  0.00    +0.000 C 
ATOM     13  C   UNL     1      -0.408  13.753  18.577  0.00  0.00    +0.000 C 
ATOM     14  C   UNL     1      -0.131  12.220  18.665  0.00  0.00    +0.000 C 
ENDBRANCH   7   8
ENDBRANCH   1   2
BRANCH   1  15
ATOM     15  N   UNL     1       2.074   7.629  20.047  0.00  0.00    +0.000 N 
ATOM     16  H   UNL     1       1.641   7.286  20.904  0.00  0.00    +0.000 HD
BRANCH  15  18
ATOM     17  C   UNL     1       2.839   5.289  19.490  0.00  0.00    +0.000 A 
ATOM     18  C   UNL     1       2.697   6.620  19.312  0.00  0.00    +0.000 A 
ATOM     19  C   UNL     1       3.361   7.130  18.069  0.00  0.00    +0.000 A 
ATOM     20  N   UNL     1       4.083   6.482  17.217  0.00  0.00    +0.000 NA
ATOM     21  N   UNL     1       4.241   5.148  17.451  0.00  0.00    +0.000 N 
ATOM     22  C   UNL     1       5.065   4.423  16.500  0.00  0.00    +0.000 C 
ATOM     23  C   UNL     1       3.607   4.466  18.475  0.00  0.00    +0.000 A 
ATOM     24  O   UNL     1       3.683   3.242  18.594  0.00  0.00    +0.000 OA
BRANCH  17  26
ATOM     25  C   UNL     1       1.008   3.845  20.589  0.00  0.00    +0.000 C 
ATOM     26  C   UNL     1       2.398   4.469  20.685  0.00  0.00    +0.000 C 
ENDBRANCH  17  26
ENDBRANCH  15  18
ENDBRANCH   1  15
TORSDOF 5
ENDMDL
