MODEL 1
REMARK VINA RESULT:      -8.1      0.000      0.000
REMARK  Name = 
REMARK  6 active torsions:
REMARK  status: ('A' for Active; 'I' for Inactive)
REMARK    1  A    between atoms: C_1  and  C_2
REMARK    2  A    between atoms: C_2  and  C_3
REMARK    3  A    between atoms: C_2  and  C_4
REMARK    4  A    between atoms: C_2  and  O_5
REMARK    5  A    between atoms: O_5  and  C_6
REMARK    6  A    between atoms: C_9  and  C_10
REMARK                            x       y       z     vdW  Elec       q    Type
REMARK                         _______ _______ _______ _____ _____    ______ ____
ROOT
ATOM      1  C   UNL     1       3.815   5.230  19.848  0.00  0.00    +0.000 C 
ATOM      2  O   UNL     1       4.983   4.887  19.752  0.00  0.00    +0.000 OA
ATOM      3  N   UNL     1       3.307   6.295  19.074  0.00  0.00    +0.000 N 
ATOM      4  C   UNL     1       3.765   6.661  17.793  0.00  0.00    +0.000 A 
ATOM      5  C   UNL     1       3.136   7.852  17.462  0.00  0.00    +0.000 A 
ATOM      6  C   UNL     1       2.273   8.224  18.520  0.00  0.00    +0.000 A 
ATOM      7  C   UNL     1       1.438   9.343  18.727  0.00  0.00    +0.000 A 
ATOM      8  C   UNL     1       0.714   9.452  19.917  0.00  0.00    +0.000 A 
ATOM      9  C   UNL     1       0.806   8.463  20.888  0.00  0.00    +0.000 A 
ATOM     10  C   UNL     1       1.626   7.341  20.699  0.00  0.00    +0.000 A 
ATOM     11  C   UNL     1       2.354   7.232  19.495  0.00  0.00    +0.000 A 
ENDROOT
BRANCH   4  12
ATOM     12  C   UNL     1       4.743   5.905  16.979  0.00  0.00    +0.000 A 
ATOM     13  C   UNL     1       4.447   4.644  16.440  0.00  0.00    +0.000 A 
ATOM     14  C   UNL     1       5.420   3.897  15.771  0.00  0.00    +0.000 A 
ATOM     15  C   UNL     1       6.687   4.431  15.564  0.00  0.00    +0.000 A 
ATOM     16  C   UNL     1       6.978   5.713  16.021  0.00  0.00    +0.000 A 
ATOM     17  C   UNL     1       6.015   6.443  16.729  0.00  0.00    +0.000 A 
ENDBRANCH   4  12
BRANCH   1  18
ATOM     18  O   UNL     1       2.836   4.630  20.581  0.00  0.00    +0.000 OA
BRANCH  18  20
ATOM     19  C   UNL     1       3.364   2.336  19.832  0.00  0.00    +0.000 C 
ATOM     20  C   UNL     1       2.273   3.388  20.074  0.00  0.00    +0.000 C 
ATOM     21  C   UNL     1       1.423   3.641  18.818  0.00  0.00    +0.000 C 
ATOM     22  C   UNL     1       1.342   2.856  21.175  0.00  0.00    +0.000 C 
ENDBRANCH  18  20
ENDBRANCH   1  18
TORSDOF 3
ENDMDL
MODEL 2
REMARK VINA RESULT:      -8.1      0.226      1.046
REMARK  Name = 
REMARK  6 active torsions:
REMARK  status: ('A' for Active; 'I' for Inactive)
REMARK    1  A    between atoms: C_1  and  C_2
REMARK    2  A    between atoms: C_2  and  C_3
REMARK    3  A    between atoms: C_2  and  C_4
REMARK    4  A    between atoms: C_2  and  O_5
REMARK    5  A    between atoms: O_5  and  C_6
REMARK    6  A    between atoms: C_9  and  C_10
REMARK                            x       y       z     vdW  Elec       q    Type
REMARK                         _______ _______ _______ _____ _____    ______ ____
ROOT
ATOM      1  C   UNL     1       3.898   5.185  19.744  0.00  0.00    +0.000 C 
ATOM      2  O   UNL     1       5.061   4.822  19.672  0.00  0.00    +0.000 OA
ATOM      3  N   UNL     1       3.418   6.245  18.944  0.00  0.00    +0.000 N 
ATOM      4  C   UNL     1       3.902   6.583  17.665  0.00  0.00    +0.000 A 
ATOM      5  C   UNL     1       3.298   7.778  17.305  0.00  0.00    +0.000 A 
ATOM      6  C   UNL     1       2.424   8.181  18.342  0.00  0.00    +0.000 A 
ATOM      7  C   UNL     1       1.603   9.315  18.517  0.00  0.00    +0.000 A 
ATOM      8  C   UNL     1       0.863   9.455  19.694  0.00  0.00    +0.000 A 
ATOM      9  C   UNL     1       0.924   8.481  20.682  0.00  0.00    +0.000 A 
ATOM     10  C   UNL     1       1.729   7.343  20.524  0.00  0.00    +0.000 A 
ATOM     11  C   UNL     1       2.474   7.204  19.334  0.00  0.00    +0.000 A 
ENDROOT
BRANCH   4  12
ATOM     12  C   UNL     1       4.882   5.798  16.880  0.00  0.00    +0.000 A 
ATOM     13  C   UNL     1       6.212   6.213  16.721  0.00  0.00    +0.000 A 
ATOM     14  C   UNL     1       7.091   5.520  15.885  0.00  0.00    +0.000 A 
ATOM     15  C   UNL     1       6.675   4.354  15.251  0.00  0.00    +0.000 A 
ATOM     16  C   UNL     1       5.384   3.879  15.460  0.00  0.00    +0.000 A 
ATOM     17  C   UNL     1       4.491   4.599  16.264  0.00  0.00    +0.000 A 
ENDBRANCH   4  12
BRANCH   1  18
ATOM     18  O   UNL     1       2.898   4.612  20.471  0.00  0.00    +0.000 OA
BRANCH  18  20
ATOM     19  C   UNL     1       3.263   2.336  19.584  0.00  0.00    +0.000 C 
ATOM     20  C   UNL     1       2.246   3.435  19.918  0.00  0.00    +0.000 C 
ATOM     21  C   UNL     1       1.375   3.806  18.706  0.00  0.00    +0.000 C 
ATOM     22  C   UNL     1       1.317   2.900  21.019  0.00  0.00    +0.000 C 
ENDBRANCH  18  20
ENDBRANCH   1  18
TORSDOF 3
ENDMDL
MODEL 3
REMARK VINA RESULT:      -7.6      1.108      1.765
REMARK  Name = 
REMARK  6 active torsions:
REMARK  status: ('A' for Active; 'I' for Inactive)
REMARK    1  A    between atoms: C_1  and  C_2
REMARK    2  A    between atoms: C_2  and  C_3
REMARK    3  A    between atoms: C_2  and  C_4
REMARK    4  A    between atoms: C_2  and  O_5
REMARK    5  A    between atoms: O_5  and  C_6
REMARK    6  A    between atoms: C_9  and  C_10
REMARK                            x       y       z     vdW  Elec       q    Type
REMARK                         _______ _______ _______ _____ _____    ______ ____
ROOT
ATOM      1  C   UNL     1       4.310   4.288  19.131  0.00  0.00    +0.000 C 
ATOM      2  O   UNL     1       5.471   3.951  18.965  0.00  0.00    +0.000 OA
ATOM      3  N   UNL     1       3.825   5.502  18.599  0.00  0.00    +0.000 N 
ATOM      4  C   UNL     1       4.296   6.124  17.426  0.00  0.00    +0.000 A 
ATOM      5  C   UNL     1       3.692   7.370  17.355  0.00  0.00    +0.000 A 
ATOM      6  C   UNL     1       2.829   7.525  18.467  0.00  0.00    +0.000 A 
ATOM      7  C   UNL     1       2.014   8.590  18.905  0.00  0.00    +0.000 A 
ATOM      8  C   UNL     1       1.286   8.457  20.091  0.00  0.00    +0.000 A 
ATOM      9  C   UNL     1       1.354   7.283  20.829  0.00  0.00    +0.000 A 
ATOM     10  C   UNL     1       2.154   6.211  20.407  0.00  0.00    +0.000 A 
ATOM     11  C   UNL     1       2.887   6.347  19.208  0.00  0.00    +0.000 A 
ENDROOT
BRANCH   4  12
ATOM     12  C   UNL     1       5.266   5.539  16.472  0.00  0.00    +0.000 A 
ATOM     13  C   UNL     1       6.628   5.873  16.496  0.00  0.00    +0.000 A 
ATOM     14  C   UNL     1       7.506   5.399  15.519  0.00  0.00    +0.000 A 
ATOM     15  C   UNL     1       7.051   4.520  14.542  0.00  0.00    +0.000 A 
ATOM     16  C   UNL     1       5.721   4.111  14.548  0.00  0.00    +0.000 A 
ATOM     17  C   UNL     1       4.833   4.622  15.503  0.00  0.00    +0.000 A 
ENDBRANCH   4  12
BRANCH   1  18
ATOM     18  O   UNL     1       3.316   3.564  19.718  0.00  0.00    +0.000 OA
BRANCH  18  20
ATOM     19  C   UNL     1       2.231   3.227  17.525  0.00  0.00    +0.000 C 
ATOM     20  C   UNL     1       2.583   2.619  18.889  0.00  0.00    +0.000 C 
ATOM     21  C   UNL     1       1.342   2.088  19.624  0.00  0.00    +0.000 C 
ATOM     22  C   UNL     1       3.531   1.434  18.646  0.00  0.00    +0.000 C 
ENDBRANCH  18  20
ENDBRANCH   1  18
TORSDOF 3
ENDMDL
MODEL 4
REMARK VINA RESULT:      -7.5      1.338      5.224
REMARK  Name = 
REMARK  6 active torsions:
REMARK  status: ('A' for Active; 'I' for Inactive)
REMARK    1  A    between atoms: C_1  and  C_2
REMARK    2  A    between atoms: C_2  and  C_3
REMARK    3  A    between atoms: C_2  and  C_4
REMARK    4  A    between atoms: C_2  and  O_5
REMARK    5  A    between atoms: O_5  and  C_6
REMARK    6  A    between atoms: C_9  and  C_10
REMARK                            x       y       z     vdW  Elec       q    Type
REMARK                         _______ _______ _______ _____ _____    ______ ____
ROOT
ATOM      1  C   UNL     1       2.170   4.726  17.660  0.00  0.00    +0.000 C 
ATOM      2  O   UNL     1       1.084   5.274  17.565  0.00  0.00    +0.000 OA
ATOM      3  N   UNL     1       3.367   5.460  17.513  0.00  0.00    +0.000 N 
ATOM      4  C   UNL     1       3.535   6.820  17.841  0.00  0.00    +0.000 A 
ATOM      5  C   UNL     1       4.788   7.197  17.382  0.00  0.00    +0.000 A 
ATOM      6  C   UNL     1       5.414   6.077  16.785  0.00  0.00    +0.000 A 
ATOM      7  C   UNL     1       6.654   5.907  16.133  0.00  0.00    +0.000 A 
ATOM      8  C   UNL     1       6.988   4.658  15.602  0.00  0.00    +0.000 A 
ATOM      9  C   UNL     1       6.112   3.587  15.722  0.00  0.00    +0.000 A 
ATOM     10  C   UNL     1       4.878   3.734  16.371  0.00  0.00    +0.000 A 
ATOM     11  C   UNL     1       4.544   4.996  16.908  0.00  0.00    +0.000 A 
ENDROOT
BRANCH   4  12
ATOM     12  C   UNL     1       2.539   7.666  18.535  0.00  0.00    +0.000 A 
ATOM     13  C   UNL     1       1.852   8.698  17.878  0.00  0.00    +0.000 A 
ATOM     14  C   UNL     1       1.000   9.558  18.576  0.00  0.00    +0.000 A 
ATOM     15  C   UNL     1       0.762   9.354  19.931  0.00  0.00    +0.000 A 
ATOM     16  C   UNL     1       1.370   8.286  20.585  0.00  0.00    +0.000 A 
ATOM     17  C   UNL     1       2.257   7.452  19.893  0.00  0.00    +0.000 A 
ENDBRANCH   4  12
BRANCH   1  18
ATOM     18  O   UNL     1       2.414   3.431  18.005  0.00  0.00    +0.000 OA
BRANCH  18  20
ATOM     19  C   UNL     1       1.517   4.070  20.215  0.00  0.00    +0.000 C 
ATOM     20  C   UNL     1       2.386   3.088  19.419  0.00  0.00    +0.000 C 
ATOM     21  C   UNL     1       3.811   2.982  19.988  0.00  0.00    +0.000 C 
ATOM     22  C   UNL     1       1.736   1.699  19.512  0.00  0.00    +0.000 C 
ENDBRANCH  18  20
ENDBRANCH   1  18
TORSDOF 3
ENDMDL
MODEL 5
REMARK VINA RESULT:      -7.3      1.332      5.201
REMARK  Name = 
REMARK  6 active torsions:
REMARK  status: ('A' for Active; 'I' for Inactive)
REMARK    1  A    between atoms: C_1  and  C_2
REMARK    2  A    between atoms: C_2  and  C_3
REMARK    3  A    between atoms: C_2  and  C_4
REMARK    4  A    between atoms: C_2  and  O_5
REMARK    5  A    between atoms: O_5  and  C_6
REMARK    6  A    between atoms: C_9  and  C_10
REMARK                            x       y       z     vdW  Elec       q    Type
REMARK                         _______ _______ _______ _____ _____    ______ ____
ROOT
ATOM      1  C   UNL     1       2.181   4.775  17.682  0.00  0.00    +0.000 C 
ATOM      2  O   UNL     1       1.105   5.345  17.601  0.00  0.00    +0.000 OA
ATOM      3  N   UNL     1       3.390   5.481  17.506  0.00  0.00    +0.000 N 
ATOM      4  C   UNL     1       3.592   6.840  17.818  0.00  0.00    +0.000 A 
ATOM      5  C   UNL     1       4.844   7.186  17.332  0.00  0.00    +0.000 A 
ATOM      6  C   UNL     1       5.436   6.048  16.734  0.00  0.00    +0.000 A 
ATOM      7  C   UNL     1       6.659   5.846  16.062  0.00  0.00    +0.000 A 
ATOM      8  C   UNL     1       6.957   4.586  15.536  0.00  0.00    +0.000 A 
ATOM      9  C   UNL     1       6.061   3.535  15.683  0.00  0.00    +0.000 A 
ATOM     10  C   UNL     1       4.842   3.714  16.353  0.00  0.00    +0.000 A 
ATOM     11  C   UNL     1       4.545   4.987  16.884  0.00  0.00    +0.000 A 
ENDROOT
BRANCH   4  12
ATOM     12  C   UNL     1       2.628   7.714  18.522  0.00  0.00    +0.000 A 
ATOM     13  C   UNL     1       2.320   7.542  19.880  0.00  0.00    +0.000 A 
ATOM     14  C   UNL     1       1.325   8.303  20.499  0.00  0.00    +0.000 A 
ATOM     15  C   UNL     1       0.672   9.304  19.787  0.00  0.00    +0.000 A 
ATOM     16  C   UNL     1       1.019   9.547  18.461  0.00  0.00    +0.000 A 
ATOM     17  C   UNL     1       1.986   8.753  17.831  0.00  0.00    +0.000 A 
ENDBRANCH   4  12
BRANCH   1  18
ATOM     18  O   UNL     1       2.404   3.478  18.034  0.00  0.00    +0.000 OA
BRANCH  18  20
ATOM     19  C   UNL     1       1.538   4.160  20.244  0.00  0.00    +0.000 C 
ATOM     20  C   UNL     1       2.368   3.144  19.450  0.00  0.00    +0.000 C 
ATOM     21  C   UNL     1       3.790   2.988  20.015  0.00  0.00    +0.000 C 
ATOM     22  C   UNL     1       1.668   1.779  19.553  0.00  0.00    +0.000 C 
ENDBRANCH  18  20
ENDBRANCH   1  18
TORSDOF 3
ENDMDL
MODEL 6
REMARK VINA RESULT:      -7.1      1.332      5.156
REMARK  Name = 
REMARK  6 active torsions:
REMARK  status: ('A' for Active; 'I' for Inactive)
REMARK    1  A    between atoms: C_1  and  C_2
REMARK    2  A    between atoms: C_2  and  C_3
REMARK    3  A    between atoms: C_2  and  C_4
REMARK    4  A    between atoms: C_2  and  O_5
REMARK    5  A    between atoms: O_5  and  C_6
REMARK    6  A    between atoms: C_9  and  C_10
REMARK                            x       y       z     vdW  Elec       q    Type
REMARK                         _______ _______ _______ _____ _____    ______ ____
ROOT
ATOM      1  C   UNL     1       2.226   4.754  17.755  0.00  0.00    +0.000 C 
ATOM      2  O   UNL     1       1.119   5.258  17.660  0.00  0.00    +0.000 OA
ATOM      3  N   UNL     1       3.392   5.519  17.534  0.00  0.00    +0.000 N 
ATOM      4  C   UNL     1       3.518   6.901  17.782  0.00  0.00    +0.000 A 
ATOM      5  C   UNL     1       4.745   7.295  17.268  0.00  0.00    +0.000 A 
ATOM      6  C   UNL     1       5.396   6.165  16.716  0.00  0.00    +0.000 A 
ATOM      7  C   UNL     1       6.624   6.002  16.042  0.00  0.00    +0.000 A 
ATOM      8  C   UNL     1       6.988   4.738  15.571  0.00  0.00    +0.000 A 
ATOM      9  C   UNL     1       6.155   3.646  15.775  0.00  0.00    +0.000 A 
ATOM     10  C   UNL     1       4.934   3.786  16.448  0.00  0.00    +0.000 A 
ATOM     11  C   UNL     1       4.569   5.063  16.924  0.00  0.00    +0.000 A 
ENDROOT
BRANCH   4  12
ATOM     12  C   UNL     1       2.511   7.750  18.456  0.00  0.00    +0.000 A 
ATOM     13  C   UNL     1       1.797   8.744  17.770  0.00  0.00    +0.000 A 
ATOM     14  C   UNL     1       0.933   9.611  18.446  0.00  0.00    +0.000 A 
ATOM     15  C   UNL     1       0.710   9.448  19.809  0.00  0.00    +0.000 A 
ATOM     16  C   UNL     1       1.346   8.416  20.493  0.00  0.00    +0.000 A 
ATOM     17  C   UNL     1       2.244   7.576  19.823  0.00  0.00    +0.000 A 
ENDBRANCH   4  12
BRANCH   1  18
ATOM     18  O   UNL     1       2.526   3.490  18.164  0.00  0.00    +0.000 OA
BRANCH  18  20
ATOM     19  C   UNL     1       2.853   2.212  20.252  0.00  0.00    +0.000 C 
ATOM     20  C   UNL     1       1.874   2.993  19.366  0.00  0.00    +0.000 C 
ATOM     21  C   UNL     1       0.625   2.167  19.014  0.00  0.00    +0.000 C 
ATOM     22  C   UNL     1       1.414   4.232  20.150  0.00  0.00    +0.000 C 
ENDBRANCH  18  20
ENDBRANCH   1  18
TORSDOF 3
ENDMDL
MODEL 7
REMARK VINA RESULT:      -6.9      1.006      5.130
REMARK  Name = 
REMARK  6 active torsions:
REMARK  status: ('A' for Active; 'I' for Inactive)
REMARK    1  A    between atoms: C_1  and  C_2
REMARK    2  A    between atoms: C_2  and  C_3
REMARK    3  A    between atoms: C_2  and  C_4
REMARK    4  A    between atoms: C_2  and  O_5
REMARK    5  A    between atoms: O_5  and  C_6
REMARK    6  A    between atoms: C_9  and  C_10
REMARK                            x       y       z     vdW  Elec       q    Type
REMARK                         _______ _______ _______ _____ _____    ______ ____
ROOT
ATOM      1  C   UNL     1       2.566   5.118  19.603  0.00  0.00    +0.000 C 
ATOM      2  O   UNL     1       1.397   5.283  19.914  0.00  0.00    +0.000 OA
ATOM      3  N   UNL     1       3.193   5.964  18.663  0.00  0.00    +0.000 N 
ATOM      4  C   UNL     1       2.870   7.318  18.444  0.00  0.00    +0.000 A 
ATOM      5  C   UNL     1       3.581   7.729  17.327  0.00  0.00    +0.000 A 
ATOM      6  C   UNL     1       4.362   6.647  16.855  0.00  0.00    +0.000 A 
ATOM      7  C   UNL     1       5.227   6.499  15.751  0.00  0.00    +0.000 A 
ATOM      8  C   UNL     1       5.844   5.267  15.519  0.00  0.00    +0.000 A 
ATOM      9  C   UNL     1       5.618   4.197  16.375  0.00  0.00    +0.000 A 
ATOM     10  C   UNL     1       4.767   4.325  17.481  0.00  0.00    +0.000 A 
ATOM     11  C   UNL     1       4.147   5.571  17.714  0.00  0.00    +0.000 A 
ENDROOT
BRANCH   4  12
ATOM     12  C   UNL     1       1.934   8.123  19.261  0.00  0.00    +0.000 A 
ATOM     13  C   UNL     1       1.799   7.931  20.644  0.00  0.00    +0.000 A 
ATOM     14  C   UNL     1       0.831   8.622  21.378  0.00  0.00    +0.000 A 
ATOM     15  C   UNL     1       0.031   9.573  20.754  0.00  0.00    +0.000 A 
ATOM     16  C   UNL     1       0.205   9.838  19.399  0.00  0.00    +0.000 A 
ATOM     17  C   UNL     1       1.146   9.114  18.656  0.00  0.00    +0.000 A 
ENDBRANCH   4  12
BRANCH   1  18
ATOM     18  O   UNL     1       3.446   4.228  20.141  0.00  0.00    +0.000 OA
BRANCH  18  20
ATOM     19  C   UNL     1       2.172   2.379  19.113  0.00  0.00    +0.000 C 
ATOM     20  C   UNL     1       3.000   2.853  20.313  0.00  0.00    +0.000 C 
ATOM     21  C   UNL     1       2.246   2.682  21.642  0.00  0.00    +0.000 C 
ATOM     22  C   UNL     1       4.272   1.993  20.379  0.00  0.00    +0.000 C 
ENDBRANCH  18  20
ENDBRANCH   1  18
TORSDOF 3
ENDMDL
MODEL 8
REMARK VINA RESULT:      -6.8      1.006      5.138
REMARK  Name = 
REMARK  6 active torsions:
REMARK  status: ('A' for Active; 'I' for Inactive)
REMARK    1  A    between atoms: C_1  and  C_2
REMARK    2  A    between atoms: C_2  and  C_3
REMARK    3  A    between atoms: C_2  and  C_4
REMARK    4  A    between atoms: C_2  and  O_5
REMARK    5  A    between atoms: O_5  and  C_6
REMARK    6  A    between atoms: C_9  and  C_10
REMARK                            x       y       z     vdW  Elec       q    Type
REMARK                         _______ _______ _______ _____ _____    ______ ____
ROOT
ATOM      1  C   UNL     1       2.564   5.104  19.580  0.00  0.00    +0.000 C 
ATOM      2  O   UNL     1       1.392   5.264  19.883  0.00  0.00    +0.000 OA
ATOM      3  N   UNL     1       3.192   5.952  18.643  0.00  0.00    +0.000 N 
ATOM      4  C   UNL     1       2.865   7.305  18.421  0.00  0.00    +0.000 A 
ATOM      5  C   UNL     1       3.581   7.718  17.308  0.00  0.00    +0.000 A 
ATOM      6  C   UNL     1       4.370   6.639  16.842  0.00  0.00    +0.000 A 
ATOM      7  C   UNL     1       5.242   6.494  15.742  0.00  0.00    +0.000 A 
ATOM      8  C   UNL     1       5.865   5.264  15.515  0.00  0.00    +0.000 A 
ATOM      9  C   UNL     1       5.639   4.194  16.370  0.00  0.00    +0.000 A 
ATOM     10  C   UNL     1       4.781   4.319  17.472  0.00  0.00    +0.000 A 
ATOM     11  C   UNL     1       4.154   5.563  17.700  0.00  0.00    +0.000 A 
ENDROOT
BRANCH   4  12
ATOM     12  C   UNL     1       1.921   8.106  19.232  0.00  0.00    +0.000 A 
ATOM     13  C   UNL     1       1.094   9.085  18.660  0.00  0.00    +0.000 A 
ATOM     14  C   UNL     1       0.292   9.908  19.455  0.00  0.00    +0.000 A 
ATOM     15  C   UNL     1       0.247   9.716  20.832  0.00  0.00    +0.000 A 
ATOM     16  C   UNL     1       0.998   8.697  21.411  0.00  0.00    +0.000 A 
ATOM     17  C   UNL     1       1.834   7.902  20.617  0.00  0.00    +0.000 A 
ENDBRANCH   4  12
BRANCH   1  18
ATOM     18  O   UNL     1       3.444   4.218  20.124  0.00  0.00    +0.000 OA
BRANCH  18  20
ATOM     19  C   UNL     1       2.182   2.370  19.079  0.00  0.00    +0.000 C 
ATOM     20  C   UNL     1       3.007   2.839  20.284  0.00  0.00    +0.000 C 
ATOM     21  C   UNL     1       2.254   2.651  21.611  0.00  0.00    +0.000 C 
ATOM     22  C   UNL     1       4.285   1.987  20.341  0.00  0.00    +0.000 C 
ENDBRANCH  18  20
ENDBRANCH   1  18
TORSDOF 3
ENDMDL
