MODEL 1
REMARK VINA RESULT:      -9.2      0.000      0.000
REMARK  Name = 
REMARK  5 active torsions:
REMARK  status: ('A' for Active; 'I' for Inactive)
REMARK    1  A    between atoms: C_1  and  C_2
REMARK    2  A    between atoms: C_7  and  C_8
REMARK    3  A    between atoms: C_18  and  C_19
REMARK    4  A    between atoms: C_19  and  C_20
REMARK    5  A    between atoms: C_20  and  N_21
REMARK                            x       y       z     vdW  Elec       q    Type
REMARK                         _______ _______ _______ _____ _____    ______ ____
ROOT
ATOM      1  C   UNL     1      -1.665  13.806  20.540  0.00  0.00    +0.000 C 
ATOM      2  C   UNL     1      -2.990  13.490  21.187  0.00  0.00    +0.000 C 
ATOM      3  O   UNL     1      -3.242  14.052  22.257  0.00  0.00    +0.000 OA
ATOM      4  N   UNL     1      -3.898  12.615  20.583  0.00  0.00    +0.000 N 
ATOM      5  C   UNL     1      -5.246  12.610  21.174  0.00  0.00    +0.000 C 
ATOM      6  C   UNL     1      -6.124  13.575  20.409  0.00  0.00    +0.000 C 
ATOM      7  C   UNL     1      -6.264  13.074  18.962  0.00  0.00    +0.000 C 
ATOM      8  C   UNL     1      -5.010  12.359  18.432  0.00  0.00    +0.000 A 
ATOM      9  C   UNL     1      -5.063  11.893  17.106  0.00  0.00    +0.000 A 
ATOM     10  C   UNL     1      -3.968  11.270  16.534  0.00  0.00    +0.000 A 
ATOM     11  C   UNL     1      -2.829  11.051  17.297  0.00  0.00    +0.000 A 
ATOM     12  C   UNL     1      -2.759  11.403  18.665  0.00  0.00    +0.000 A 
ATOM     13  C   UNL     1      -3.847  12.134  19.229  0.00  0.00    +0.000 A 
ENDROOT
BRANCH   7  14
ATOM     14  C   UNL     1      -6.754  14.210  18.067  0.00  0.00    +0.000 A 
ATOM     15  C   UNL     1      -7.487  13.942  16.898  0.00  0.00    +0.000 A 
ATOM     16  C   UNL     1      -7.914  14.980  16.069  0.00  0.00    +0.000 A 
ATOM     17  C   UNL     1      -7.627  16.300  16.401  0.00  0.00    +0.000 A 
ATOM     18  C   UNL     1      -6.917  16.586  17.568  0.00  0.00    +0.000 A 
ATOM     19  C   UNL     1      -6.481  15.547  18.394  0.00  0.00    +0.000 A 
ENDBRANCH   7  14
BRANCH  12  20
ATOM     20  C   UNL     1      -1.512  10.916  19.405  0.00  0.00    +0.000 C 
BRANCH  20  21
ATOM     21  C   UNL     1      -0.364  10.440  18.465  0.00  0.00    +0.000 C 
BRANCH  21  22
ATOM     22  N   UNL     1       0.992  10.406  19.042  0.00  0.00    +0.000 NA
ATOM     23  C   UNL     1       1.063   9.497  20.208  0.00  0.00    +0.000 C 
ATOM     24  C   UNL     1       1.239   7.976  19.932  0.00  0.00    +0.000 C 
ATOM     25  N   UNL     1       2.351   7.689  19.017  0.00  0.00    +0.000 N 
ATOM     26  C   UNL     1       2.803   6.386  18.790  0.00  0.00    +0.000 A 
ATOM     27  N   UNL     1       3.433   6.104  17.645  0.00  0.00    +0.000 NA
ATOM     28  S   UNL     1       3.790   4.516  17.521  0.00  0.00    +0.000 S 
ATOM     29  C   UNL     1       3.155   4.056  19.038  0.00  0.00    +0.000 A 
ATOM     30  C   UNL     1       3.103   2.763  19.594  0.00  0.00    +0.000 A 
ATOM     31  C   UNL     1       2.574   2.600  20.866  0.00  0.00    +0.000 A 
ATOM     32  C   UNL     1       2.133   3.706  21.576  0.00  0.00    +0.000 A 
ATOM     33  C   UNL     1       2.188   4.990  21.010  0.00  0.00    +0.000 A 
ATOM     34  C   UNL     1       2.675   5.210  19.688  0.00  0.00    +0.000 A 
ATOM     35  C   UNL     1       2.303   8.557  17.805  0.00  0.00    +0.000 C 
ATOM     36  C   UNL     1       2.092  10.054  18.125  0.00  0.00    +0.000 C 
ENDBRANCH  21  22
ENDBRANCH  20  21
ENDBRANCH  12  20
TORSDOF 4
ENDMDL
MODEL 2
REMARK VINA RESULT:      -9.1      2.112      3.217
REMARK  Name = 
REMARK  5 active torsions:
REMARK  status: ('A' for Active; 'I' for Inactive)
REMARK    1  A    between atoms: C_1  and  C_2
REMARK    2  A    between atoms: C_7  and  C_8
REMARK    3  A    between atoms: C_18  and  C_19
REMARK    4  A    between atoms: C_19  and  C_20
REMARK    5  A    between atoms: C_20  and  N_21
REMARK                            x       y       z     vdW  Elec       q    Type
REMARK                         _______ _______ _______ _____ _____    ______ ____
ROOT
ATOM      1  C   UNL     1      -0.195  14.014  19.781  0.00  0.00    +0.000 C 
ATOM      2  C   UNL     1      -0.379  13.264  21.076  0.00  0.00    +0.000 C 
ATOM      3  O   UNL     1       0.451  13.467  21.968  0.00  0.00    +0.000 OA
ATOM      4  N   UNL     1      -1.459  12.395  21.260  0.00  0.00    +0.000 N 
ATOM      5  C   UNL     1      -1.670  11.947  22.646  0.00  0.00    +0.000 C 
ATOM      6  C   UNL     1      -2.675  12.860  23.312  0.00  0.00    +0.000 C 
ATOM      7  C   UNL     1      -4.023  12.724  22.585  0.00  0.00    +0.000 C 
ATOM      8  C   UNL     1      -3.886  12.457  21.077  0.00  0.00    +0.000 A 
ATOM      9  C   UNL     1      -5.083  12.343  20.346  0.00  0.00    +0.000 A 
ATOM     10  C   UNL     1      -5.055  12.139  18.978  0.00  0.00    +0.000 A 
ATOM     11  C   UNL     1      -3.835  11.986  18.332  0.00  0.00    +0.000 A 
ATOM     12  C   UNL     1      -2.607  11.986  19.033  0.00  0.00    +0.000 A 
ATOM     13  C   UNL     1      -2.626  12.295  20.426  0.00  0.00    +0.000 A 
ENDROOT
BRANCH   7  14
ATOM     14  C   UNL     1      -4.916  13.915  22.924  0.00  0.00    +0.000 A 
ATOM     15  C   UNL     1      -4.528  15.224  22.591  0.00  0.00    +0.000 A 
ATOM     16  C   UNL     1      -5.334  16.315  22.923  0.00  0.00    +0.000 A 
ATOM     17  C   UNL     1      -6.544  16.112  23.579  0.00  0.00    +0.000 A 
ATOM     18  C   UNL     1      -6.954  14.818  23.900  0.00  0.00    +0.000 A 
ATOM     19  C   UNL     1      -6.144  13.727  23.577  0.00  0.00    +0.000 A 
ENDBRANCH   7  14
BRANCH  12  20
ATOM     20  C   UNL     1      -1.378  11.610  18.203  0.00  0.00    +0.000 C 
BRANCH  20  21
ATOM     21  C   UNL     1      -0.727  10.256  18.614  0.00  0.00    +0.000 C 
BRANCH  21  22
ATOM     22  N   UNL     1       0.622  10.323  19.205  0.00  0.00    +0.000 NA
ATOM     23  C   UNL     1       0.757   9.403  20.357  0.00  0.00    +0.000 C 
ATOM     24  C   UNL     1       1.059   7.906  20.057  0.00  0.00    +0.000 C 
ATOM     25  N   UNL     1       2.198   7.726  19.150  0.00  0.00    +0.000 N 
ATOM     26  C   UNL     1       2.757   6.468  18.907  0.00  0.00    +0.000 A 
ATOM     27  N   UNL     1       3.418   6.258  17.764  0.00  0.00    +0.000 NA
ATOM     28  S   UNL     1       3.904   4.706  17.618  0.00  0.00    +0.000 S 
ATOM     29  C   UNL     1       3.295   4.171  19.121  0.00  0.00    +0.000 A 
ATOM     30  C   UNL     1       3.343   2.869  19.655  0.00  0.00    +0.000 A 
ATOM     31  C   UNL     1       2.819   2.641  20.919  0.00  0.00    +0.000 A 
ATOM     32  C   UNL     1       2.283   3.696  21.643  0.00  0.00    +0.000 A 
ATOM     33  C   UNL     1       2.238   4.990  21.097  0.00  0.00    +0.000 A 
ATOM     34  C   UNL     1       2.717   5.270  19.784  0.00  0.00    +0.000 A 
ATOM     35  C   UNL     1       2.091   8.608  17.951  0.00  0.00    +0.000 C 
ATOM     36  C   UNL     1       1.755  10.077  18.293  0.00  0.00    +0.000 C 
ENDBRANCH  21  22
ENDBRANCH  20  21
ENDBRANCH  12  20
TORSDOF 4
ENDMDL
MODEL 3
REMARK VINA RESULT:      -9.0      4.542      6.557
REMARK  Name = 
REMARK  5 active torsions:
REMARK  status: ('A' for Active; 'I' for Inactive)
REMARK    1  A    between atoms: C_1  and  C_2
REMARK    2  A    between atoms: C_7  and  C_8
REMARK    3  A    between atoms: C_18  and  C_19
REMARK    4  A    between atoms: C_19  and  C_20
REMARK    5  A    between atoms: C_20  and  N_21
REMARK                            x       y       z     vdW  Elec       q    Type
REMARK                         _______ _______ _______ _____ _____    ______ ____
ROOT
ATOM      1  C   UNL     1       1.907   8.912  22.957  0.00  0.00    +0.000 C 
ATOM      2  C   UNL     1       0.592   9.516  22.534  0.00  0.00    +0.000 C 
ATOM      3  O   UNL     1      -0.087  10.058  23.412  0.00  0.00    +0.000 OA
ATOM      4  N   UNL     1       0.177   9.481  21.200  0.00  0.00    +0.000 N 
ATOM      5  C   UNL     1      -0.979  10.336  20.883  0.00  0.00    +0.000 C 
ATOM      6  C   UNL     1      -0.480  11.673  20.381  0.00  0.00    +0.000 C 
ATOM      7  C   UNL     1       0.291  11.451  19.069  0.00  0.00    +0.000 C 
ATOM      8  C   UNL     1       1.045  10.113  19.015  0.00  0.00    +0.000 A 
ATOM      9  C   UNL     1       1.789   9.856  17.849  0.00  0.00    +0.000 A 
ATOM     10  C   UNL     1       2.528   8.692  17.727  0.00  0.00    +0.000 A 
ATOM     11  C   UNL     1       2.487   7.746  18.742  0.00  0.00    +0.000 A 
ATOM     12  C   UNL     1       1.674   7.904  19.889  0.00  0.00    +0.000 A 
ATOM     13  C   UNL     1       0.989   9.144  20.062  0.00  0.00    +0.000 A 
ENDROOT
BRANCH   7  14
ATOM     14  C   UNL     1       1.164  12.667  18.771  0.00  0.00    +0.000 A 
ATOM     15  C   UNL     1       2.458  12.514  18.246  0.00  0.00    +0.000 A 
ATOM     16  C   UNL     1       3.265  13.626  17.996  0.00  0.00    +0.000 A 
ATOM     17  C   UNL     1       2.786  14.906  18.254  0.00  0.00    +0.000 A 
ATOM     18  C   UNL     1       1.496  15.078  18.758  0.00  0.00    +0.000 A 
ATOM     19  C   UNL     1       0.692  13.966  19.017  0.00  0.00    +0.000 A 
ENDBRANCH   7  14
BRANCH  12  20
ATOM     20  C   UNL     1       1.593   6.686  20.809  0.00  0.00    +0.000 C 
BRANCH  20  21
ATOM     21  C   UNL     1       0.655   5.558  20.286  0.00  0.00    +0.000 C 
BRANCH  21  22
ATOM     22  N   UNL     1       1.249   4.215  20.146  0.00  0.00    +0.000 NA
ATOM     23  C   UNL     1       1.424   3.845  18.723  0.00  0.00    +0.000 C 
ATOM     24  C   UNL     1       2.685   4.382  17.985  0.00  0.00    +0.000 C 
ATOM     25  N   UNL     1       3.929   4.118  18.717  0.00  0.00    +0.000 N 
ATOM     26  C   UNL     1       5.184   4.340  18.146  0.00  0.00    +0.000 A 
ATOM     27  N   UNL     1       6.233   4.569  18.942  0.00  0.00    +0.000 NA
ATOM     28  S   UNL     1       7.583   4.908  18.090  0.00  0.00    +0.000 S 
ATOM     29  C   UNL     1       6.882   4.738  16.542  0.00  0.00    +0.000 A 
ATOM     30  C   UNL     1       7.502   4.923  15.290  0.00  0.00    +0.000 A 
ATOM     31  C   UNL     1       6.765   4.700  14.137  0.00  0.00    +0.000 A 
ATOM     32  C   UNL     1       5.448   4.276  14.232  0.00  0.00    +0.000 A 
ATOM     33  C   UNL     1       4.841   4.097  15.485  0.00  0.00    +0.000 A 
ATOM     34  C   UNL     1       5.535   4.360  16.703  0.00  0.00    +0.000 A 
ATOM     35  C   UNL     1       3.814   4.509  20.153  0.00  0.00    +0.000 C 
ATOM     36  C   UNL     1       2.531   3.985  20.837  0.00  0.00    +0.000 C 
ENDBRANCH  21  22
ENDBRANCH  20  21
ENDBRANCH  12  20
TORSDOF 4
ENDMDL
MODEL 4
REMARK VINA RESULT:      -8.4      4.615     11.607
REMARK  Name = 
REMARK  5 active torsions:
REMARK  status: ('A' for Active; 'I' for Inactive)
REMARK    1  A    between atoms: C_1  and  C_2
REMARK    2  A    between atoms: C_7  and  C_8
REMARK    3  A    between atoms: C_18  and  C_19
REMARK    4  A    between atoms: C_19  and  C_20
REMARK    5  A    between atoms: C_20  and  N_21
REMARK                            x       y       z     vdW  Elec       q    Type
REMARK                         _______ _______ _______ _____ _____    ______ ____
ROOT
ATOM      1  C   UNL     1       1.155   3.968  19.723  0.00  0.00    +0.000 C 
ATOM      2  C   UNL     1       2.589   3.762  20.139  0.00  0.00    +0.000 C 
ATOM      3  O   UNL     1       2.885   2.661  20.614  0.00  0.00    +0.000 OA
ATOM      4  N   UNL     1       3.543   4.770  19.968  0.00  0.00    +0.000 N 
ATOM      5  C   UNL     1       4.940   4.347  20.158  0.00  0.00    +0.000 C 
ATOM      6  C   UNL     1       5.528   3.974  18.815  0.00  0.00    +0.000 C 
ATOM      7  C   UNL     1       5.554   5.227  17.923  0.00  0.00    +0.000 C 
ATOM      8  C   UNL     1       4.380   6.187  18.174  0.00  0.00    +0.000 A 
ATOM      9  C   UNL     1       4.331   7.345  17.376  0.00  0.00    +0.000 A 
ATOM     10  C   UNL     1       3.291   8.248  17.508  0.00  0.00    +0.000 A 
ATOM     11  C   UNL     1       2.320   8.037  18.478  0.00  0.00    +0.000 A 
ATOM     12  C   UNL     1       2.377   6.947  19.377  0.00  0.00    +0.000 A 
ATOM     13  C   UNL     1       3.392   5.963  19.179  0.00  0.00    +0.000 A 
ENDROOT
BRANCH   7  14
ATOM     14  C   UNL     1       5.717   4.817  16.462  0.00  0.00    +0.000 A 
ATOM     15  C   UNL     1       6.863   5.183  15.734  0.00  0.00    +0.000 A 
ATOM     16  C   UNL     1       7.000   4.827  14.391  0.00  0.00    +0.000 A 
ATOM     17  C   UNL     1       6.003   4.091  13.760  0.00  0.00    +0.000 A 
ATOM     18  C   UNL     1       4.868   3.702  14.472  0.00  0.00    +0.000 A 
ATOM     19  C   UNL     1       4.725   4.066  15.814  0.00  0.00    +0.000 A 
ENDBRANCH   7  14
BRANCH  12  20
ATOM     20  C   UNL     1       1.344   6.972  20.504  0.00  0.00    +0.000 C 
BRANCH  20  21
ATOM     21  C   UNL     1       0.576   8.322  20.630  0.00  0.00    +0.000 C 
BRANCH  21  22
ATOM     22  N   UNL     1       1.070   9.272  21.643  0.00  0.00    +0.000 NA
ATOM     23  C   UNL     1       1.071  10.660  21.130  0.00  0.00    +0.000 C 
ATOM     24  C   UNL     1      -0.269  11.449  21.172  0.00  0.00    +0.000 C 
ATOM     25  N   UNL     1      -0.909  11.415  22.492  0.00  0.00    +0.000 N 
ATOM     26  C   UNL     1      -2.013  12.214  22.800  0.00  0.00    +0.000 A 
ATOM     27  N   UNL     1      -2.849  11.829  23.770  0.00  0.00    +0.000 NA
ATOM     28  S   UNL     1      -4.126  12.835  23.909  0.00  0.00    +0.000 S 
ATOM     29  C   UNL     1      -3.649  13.924  22.684  0.00  0.00    +0.000 A 
ATOM     30  C   UNL     1      -4.335  15.069  22.234  0.00  0.00    +0.000 A 
ATOM     31  C   UNL     1      -3.760  15.851  21.243  0.00  0.00    +0.000 A 
ATOM     32  C   UNL     1      -2.516  15.511  20.733  0.00  0.00    +0.000 A 
ATOM     33  C   UNL     1      -1.843  14.365  21.188  0.00  0.00    +0.000 A 
ATOM     34  C   UNL     1      -2.410  13.499  22.168  0.00  0.00    +0.000 A 
ATOM     35  C   UNL     1      -0.967  10.028  23.039  0.00  0.00    +0.000 C 
ATOM     36  C   UNL     1       0.377   9.269  22.945  0.00  0.00    +0.000 C 
ENDBRANCH  21  22
ENDBRANCH  20  21
ENDBRANCH  12  20
TORSDOF 4
ENDMDL
MODEL 5
REMARK VINA RESULT:      -8.3      0.836      1.199
REMARK  Name = 
REMARK  5 active torsions:
REMARK  status: ('A' for Active; 'I' for Inactive)
REMARK    1  A    between atoms: C_1  and  C_2
REMARK    2  A    between atoms: C_7  and  C_8
REMARK    3  A    between atoms: C_18  and  C_19
REMARK    4  A    between atoms: C_19  and  C_20
REMARK    5  A    between atoms: C_20  and  N_21
REMARK                            x       y       z     vdW  Elec       q    Type
REMARK                         _______ _______ _______ _____ _____    ______ ____
ROOT
ATOM      1  C   UNL     1      -0.865  13.781  19.372  0.00  0.00    +0.000 C 
ATOM      2  C   UNL     1      -1.948  13.468  20.374  0.00  0.00    +0.000 C 
ATOM      3  O   UNL     1      -1.922  14.086  21.443  0.00  0.00    +0.000 OA
ATOM      4  N   UNL     1      -2.948  12.534  20.087  0.00  0.00    +0.000 N 
ATOM      5  C   UNL     1      -4.082  12.526  21.027  0.00  0.00    +0.000 C 
ATOM      6  C   UNL     1      -5.176  13.421  20.486  0.00  0.00    +0.000 C 
ATOM      7  C   UNL     1      -5.685  12.830  19.160  0.00  0.00    +0.000 C 
ATOM      8  C   UNL     1      -4.594  12.120  18.342  0.00  0.00    +0.000 A 
ATOM      9  C   UNL     1      -4.988  11.575  17.106  0.00  0.00    +0.000 A 
ATOM     10  C   UNL     1      -4.066  10.949  16.287  0.00  0.00    +0.000 A 
ATOM     11  C   UNL     1      -2.753  10.807  16.716  0.00  0.00    +0.000 A 
ATOM     12  C   UNL     1      -2.326  11.242  17.993  0.00  0.00    +0.000 A 
ATOM     13  C   UNL     1      -3.249  11.974  18.797  0.00  0.00    +0.000 A 
ENDROOT
BRANCH   7  14
ATOM     14  C   UNL     1      -6.449  13.897  18.380  0.00  0.00    +0.000 A 
ATOM     15  C   UNL     1      -6.588  15.200  18.887  0.00  0.00    +0.000 A 
ATOM     16  C   UNL     1      -7.306  16.168  18.184  0.00  0.00    +0.000 A 
ATOM     17  C   UNL     1      -7.884  15.853  16.958  0.00  0.00    +0.000 A 
ATOM     18  C   UNL     1      -7.740  14.570  16.430  0.00  0.00    +0.000 A 
ATOM     19  C   UNL     1      -7.029  13.597  17.137  0.00  0.00    +0.000 A 
ENDBRANCH   7  14
BRANCH  12  20
ATOM     20  C   UNL     1      -0.905  10.834  18.383  0.00  0.00    +0.000 C 
BRANCH  20  21
ATOM     21  C   UNL     1      -0.803  10.162  19.785  0.00  0.00    +0.000 C 
BRANCH  21  22
ATOM     22  N   UNL     1       0.539  10.104  20.395  0.00  0.00    +0.000 NA
ATOM     23  C   UNL     1       0.652   8.980  21.351  0.00  0.00    +0.000 C 
ATOM     24  C   UNL     1       0.951   7.566  20.774  0.00  0.00    +0.000 C 
ATOM     25  N   UNL     1       2.102   7.554  19.864  0.00  0.00    +0.000 N 
ATOM     26  C   UNL     1       2.659   6.363  19.391  0.00  0.00    +0.000 A 
ATOM     27  N   UNL     1       3.336   6.371  18.238  0.00  0.00    +0.000 NA
ATOM     28  S   UNL     1       3.816   4.873  17.803  0.00  0.00    +0.000 S 
ATOM     29  C   UNL     1       3.183   4.063  19.167  0.00  0.00    +0.000 A 
ATOM     30  C   UNL     1       3.218   2.682  19.442  0.00  0.00    +0.000 A 
ATOM     31  C   UNL     1       2.674   2.221  20.631  0.00  0.00    +0.000 A 
ATOM     32  C   UNL     1       2.133   3.121  21.537  0.00  0.00    +0.000 A 
ATOM     33  C   UNL     1       2.102   4.495  21.250  0.00  0.00    +0.000 A 
ATOM     34  C   UNL     1       2.600   5.019  20.021  0.00  0.00    +0.000 A 
ATOM     35  C   UNL     1       2.017   8.651  18.855  0.00  0.00    +0.000 C 
ATOM     36  C   UNL     1       1.683  10.030  19.468  0.00  0.00    +0.000 C 
ENDBRANCH  21  22
ENDBRANCH  20  21
ENDBRANCH  12  20
TORSDOF 4
ENDMDL
MODEL 6
REMARK VINA RESULT:      -8.0      2.275      3.299
REMARK  Name = 
REMARK  5 active torsions:
REMARK  status: ('A' for Active; 'I' for Inactive)
REMARK    1  A    between atoms: C_1  and  C_2
REMARK    2  A    between atoms: C_7  and  C_8
REMARK    3  A    between atoms: C_18  and  C_19
REMARK    4  A    between atoms: C_19  and  C_20
REMARK    5  A    between atoms: C_20  and  N_21
REMARK                            x       y       z     vdW  Elec       q    Type
REMARK                         _______ _______ _______ _____ _____    ______ ____
ROOT
ATOM      1  C   UNL     1       0.025  14.837  21.830  0.00  0.00    +0.000 C 
ATOM      2  C   UNL     1      -0.797  13.928  22.708  0.00  0.00    +0.000 C 
ATOM      3  O   UNL     1      -0.865  14.214  23.908  0.00  0.00    +0.000 OA
ATOM      4  N   UNL     1      -1.471  12.825  22.175  0.00  0.00    +0.000 N 
ATOM      5  C   UNL     1      -2.445  12.192  23.080  0.00  0.00    +0.000 C 
ATOM      6  C   UNL     1      -3.815  12.779  22.818  0.00  0.00    +0.000 C 
ATOM      7  C   UNL     1      -4.237  12.425  21.382  0.00  0.00    +0.000 C 
ATOM      8  C   UNL     1      -3.063  12.362  20.392  0.00  0.00    +0.000 A 
ATOM      9  C   UNL     1      -3.382  12.063  19.054  0.00  0.00    +0.000 A 
ATOM     10  C   UNL     1      -2.393  12.020  18.088  0.00  0.00    +0.000 A 
ATOM     11  C   UNL     1      -1.068  12.216  18.454  0.00  0.00    +0.000 A 
ATOM     12  C   UNL     1      -0.679  12.415  19.799  0.00  0.00    +0.000 A 
ATOM     13  C   UNL     1      -1.703  12.558  20.781  0.00  0.00    +0.000 A 
ENDROOT
BRANCH   7  14
ATOM     14  C   UNL     1      -5.374  13.342  20.937  0.00  0.00    +0.000 A 
ATOM     15  C   UNL     1      -6.647  12.823  20.648  0.00  0.00    +0.000 A 
ATOM     16  C   UNL     1      -7.679  13.658  20.219  0.00  0.00    +0.000 A 
ATOM     17  C   UNL     1      -7.459  15.025  20.086  0.00  0.00    +0.000 A 
ATOM     18  C   UNL     1      -6.206  15.561  20.387  0.00  0.00    +0.000 A 
ATOM     19  C   UNL     1      -5.170  14.724  20.808  0.00  0.00    +0.000 A 
ENDBRANCH   7  14
BRANCH  12  20
ATOM     20  C   UNL     1       0.829  12.417  20.052  0.00  0.00    +0.000 C 
BRANCH  20  21
ATOM     21  C   UNL     1       1.453  10.994  20.169  0.00  0.00    +0.000 C 
BRANCH  21  22
ATOM     22  N   UNL     1       0.711   9.892  19.529  0.00  0.00    +0.000 NA
ATOM     23  C   UNL     1       1.248   9.586  18.184  0.00  0.00    +0.000 C 
ATOM     24  C   UNL     1       2.505   8.673  18.096  0.00  0.00    +0.000 C 
ATOM     25  N   UNL     1       2.360   7.429  18.860  0.00  0.00    +0.000 N 
ATOM     26  C   UNL     1       3.286   6.388  18.759  0.00  0.00    +0.000 A 
ATOM     27  N   UNL     1       3.414   5.526  19.774  0.00  0.00    +0.000 NA
ATOM     28  S   UNL     1       4.612   4.450  19.513  0.00  0.00    +0.000 S 
ATOM     29  C   UNL     1       5.054   5.024  17.967  0.00  0.00    +0.000 A 
ATOM     30  C   UNL     1       6.085   4.548  17.133  0.00  0.00    +0.000 A 
ATOM     31  C   UNL     1       6.264   5.130  15.887  0.00  0.00    +0.000 A 
ATOM     32  C   UNL     1       5.416   6.146  15.473  0.00  0.00    +0.000 A 
ATOM     33  C   UNL     1       4.393   6.614  16.314  0.00  0.00    +0.000 A 
ATOM     34  C   UNL     1       4.196   6.086  17.624  0.00  0.00    +0.000 A 
ATOM     35  C   UNL     1       1.854   7.688  20.240  0.00  0.00    +0.000 C 
ATOM     36  C   UNL     1       0.627   8.627  20.283  0.00  0.00    +0.000 C 
ENDBRANCH  21  22
ENDBRANCH  20  21
ENDBRANCH  12  20
TORSDOF 4
ENDMDL
MODEL 7
REMARK VINA RESULT:      -8.0      6.167      8.415
REMARK  Name = 
REMARK  5 active torsions:
REMARK  status: ('A' for Active; 'I' for Inactive)
REMARK    1  A    between atoms: C_1  and  C_2
REMARK    2  A    between atoms: C_7  and  C_8
REMARK    3  A    between atoms: C_18  and  C_19
REMARK    4  A    between atoms: C_19  and  C_20
REMARK    5  A    between atoms: C_20  and  N_21
REMARK                            x       y       z     vdW  Elec       q    Type
REMARK                         _______ _______ _______ _____ _____    ______ ____
ROOT
ATOM      1  C   UNL     1      -0.733  16.720  20.591  0.00  0.00    +0.000 C 
ATOM      2  C   UNL     1      -0.855  15.541  21.522  0.00  0.00    +0.000 C 
ATOM      3  O   UNL     1      -1.723  15.603  22.398  0.00  0.00    +0.000 OA
ATOM      4  N   UNL     1      -0.033  14.419  21.378  0.00  0.00    +0.000 N 
ATOM      5  C   UNL     1      -0.438  13.244  22.167  0.00  0.00    +0.000 C 
ATOM      6  C   UNL     1      -1.305  12.349  21.309  0.00  0.00    +0.000 C 
ATOM      7  C   UNL     1      -0.466  11.832  20.129  0.00  0.00    +0.000 C 
ATOM      8  C   UNL     1       0.585  12.838  19.632  0.00  0.00    +0.000 A 
ATOM      9  C   UNL     1       1.375  12.437  18.539  0.00  0.00    +0.000 A 
ATOM     10  C   UNL     1       2.322  13.291  18.003  0.00  0.00    +0.000 A 
ATOM     11  C   UNL     1       2.533  14.533  18.588  0.00  0.00    +0.000 A 
ATOM     12  C   UNL     1       1.843  14.946  19.751  0.00  0.00    +0.000 A 
ATOM     13  C   UNL     1       0.798  14.109  20.246  0.00  0.00    +0.000 A 
ENDROOT
BRANCH   7  14
ATOM     14  C   UNL     1      -1.387  11.306  19.031  0.00  0.00    +0.000 A 
ATOM     15  C   UNL     1      -0.983  10.251  18.196  0.00  0.00    +0.000 A 
ATOM     16  C   UNL     1      -1.817   9.786  17.177  0.00  0.00    +0.000 A 
ATOM     17  C   UNL     1      -3.070  10.359  16.987  0.00  0.00    +0.000 A 
ATOM     18  C   UNL     1      -3.495  11.395  17.820  0.00  0.00    +0.000 A 
ATOM     19  C   UNL     1      -2.658  11.867  18.834  0.00  0.00    +0.000 A 
ENDBRANCH   7  14
BRANCH  12  20
ATOM     20  C   UNL     1       2.333  16.252  20.376  0.00  0.00    +0.000 C 
BRANCH  20  21
ATOM     21  C   UNL     1       3.686  16.762  19.796  0.00  0.00    +0.000 C 
BRANCH  21  22
ATOM     22  N   UNL     1       4.825  16.826  20.730  0.00  0.00    +0.000 NA
ATOM     23  C   UNL     1       5.449  15.497  20.917  0.00  0.00    +0.000 C 
ATOM     24  C   UNL     1       6.471  15.019  19.844  0.00  0.00    +0.000 C 
ATOM     25  N   UNL     1       7.512  16.015  19.566  0.00  0.00    +0.000 N 
ATOM     26  C   UNL     1       8.631  15.716  18.786  0.00  0.00    +0.000 A 
ATOM     27  N   UNL     1       9.272  16.706  18.156  0.00  0.00    +0.000 NA
ATOM     28  S   UNL     1      10.484  16.147  17.216  0.00  0.00    +0.000 S 
ATOM     29  C   UNL     1      10.283  14.496  17.604  0.00  0.00    +0.000 A 
ATOM     30  C   UNL     1      11.012  13.399  17.105  0.00  0.00    +0.000 A 
ATOM     31  C   UNL     1      10.718  12.127  17.574  0.00  0.00    +0.000 A 
ATOM     32  C   UNL     1       9.737  11.959  18.540  0.00  0.00    +0.000 A 
ATOM     33  C   UNL     1       9.015  13.061  19.028  0.00  0.00    +0.000 A 
ATOM     34  C   UNL     1       9.241  14.383  18.544  0.00  0.00    +0.000 A 
ATOM     35  C   UNL     1       6.929  17.369  19.335  0.00  0.00    +0.000 C 
ATOM     36  C   UNL     1       5.894  17.788  20.404  0.00  0.00    +0.000 C 
ENDBRANCH  21  22
ENDBRANCH  20  21
ENDBRANCH  12  20
TORSDOF 4
ENDMDL
MODEL 8
REMARK VINA RESULT:      -8.0      1.834      2.174
REMARK  Name = 
REMARK  5 active torsions:
REMARK  status: ('A' for Active; 'I' for Inactive)
REMARK    1  A    between atoms: C_1  and  C_2
REMARK    2  A    between atoms: C_7  and  C_8
REMARK    3  A    between atoms: C_18  and  C_19
REMARK    4  A    between atoms: C_19  and  C_20
REMARK    5  A    between atoms: C_20  and  N_21
REMARK                            x       y       z     vdW  Elec       q    Type
REMARK                         _______ _______ _______ _____ _____    ______ ____
ROOT
ATOM      1  C   UNL     1      -0.252  13.677  20.257  0.00  0.00    +0.000 C 
ATOM      2  C   UNL     1      -0.981  13.243  21.503  0.00  0.00    +0.000 C 
ATOM      3  O   UNL     1      -0.511  13.605  22.586  0.00  0.00    +0.000 OA
ATOM      4  N   UNL     1      -2.153  12.483  21.426  0.00  0.00    +0.000 N 
ATOM      5  C   UNL     1      -2.903  12.364  22.687  0.00  0.00    +0.000 C 
ATOM      6  C   UNL     1      -3.961  13.445  22.735  0.00  0.00    +0.000 C 
ATOM      7  C   UNL     1      -4.961  13.207  21.591  0.00  0.00    +0.000 C 
ATOM      8  C   UNL     1      -4.323  12.605  20.329  0.00  0.00    +0.000 A 
ATOM      9  C   UNL     1      -5.179  12.382  19.235  0.00  0.00    +0.000 A 
ATOM     10  C   UNL     1      -4.685  11.877  18.046  0.00  0.00    +0.000 A 
ATOM     11  C   UNL     1      -3.343  11.533  17.953  0.00  0.00    +0.000 A 
ATOM     12  C   UNL     1      -2.460  11.638  19.052  0.00  0.00    +0.000 A 
ATOM     13  C   UNL     1      -2.943  12.250  20.247  0.00  0.00    +0.000 A 
ENDROOT
BRANCH   7  14
ATOM     14  C   UNL     1      -5.763  14.480  21.334  0.00  0.00    +0.000 A 
ATOM     15  C   UNL     1      -7.166  14.448  21.270  0.00  0.00    +0.000 A 
ATOM     16  C   UNL     1      -7.897  15.608  21.012  0.00  0.00    +0.000 A 
ATOM     17  C   UNL     1      -7.238  16.819  20.826  0.00  0.00    +0.000 A 
ATOM     18  C   UNL     1      -5.846  16.874  20.905  0.00  0.00    +0.000 A 
ATOM     19  C   UNL     1      -5.113  15.711  21.155  0.00  0.00    +0.000 A 
ENDBRANCH   7  14
BRANCH  12  20
ATOM     20  C   UNL     1      -1.071  11.035  18.838  0.00  0.00    +0.000 C 
BRANCH  20  21
ATOM     21  C   UNL     1      -0.680   9.954  19.890  0.00  0.00    +0.000 C 
BRANCH  21  22
ATOM     22  N   UNL     1       0.731   9.923  20.315  0.00  0.00    +0.000 NA
ATOM     23  C   UNL     1       0.981   8.837  21.288  0.00  0.00    +0.000 C 
ATOM     24  C   UNL     1       1.211   7.402  20.729  0.00  0.00    +0.000 C 
ATOM     25  N   UNL     1       2.228   7.358  19.673  0.00  0.00    +0.000 N 
ATOM     26  C   UNL     1       2.724   6.151  19.175  0.00  0.00    +0.000 A 
ATOM     27  N   UNL     1       3.239   6.116  17.941  0.00  0.00    +0.000 NA
ATOM     28  S   UNL     1       3.668   4.604  17.502  0.00  0.00    +0.000 S 
ATOM     29  C   UNL     1       3.231   3.846  18.969  0.00  0.00    +0.000 A 
ATOM     30  C   UNL     1       3.313   2.476  19.289  0.00  0.00    +0.000 A 
ATOM     31  C   UNL     1       2.938   2.059  20.557  0.00  0.00    +0.000 A 
ATOM     32  C   UNL     1       2.518   2.993  21.493  0.00  0.00    +0.000 A 
ATOM     33  C   UNL     1       2.438   4.355  21.161  0.00  0.00    +0.000 A 
ATOM     34  C   UNL     1       2.762   4.832  19.858  0.00  0.00    +0.000 A 
ATOM     35  C   UNL     1       1.999   8.415  18.645  0.00  0.00    +0.000 C 
ATOM     36  C   UNL     1       1.741   9.816  19.245  0.00  0.00    +0.000 C 
ENDBRANCH  21  22
ENDBRANCH  20  21
ENDBRANCH  12  20
TORSDOF 4
ENDMDL
MODEL 9
REMARK VINA RESULT:      -7.9      5.141     11.376
REMARK  Name = 
REMARK  5 active torsions:
REMARK  status: ('A' for Active; 'I' for Inactive)
REMARK    1  A    between atoms: C_1  and  C_2
REMARK    2  A    between atoms: C_7  and  C_8
REMARK    3  A    between atoms: C_18  and  C_19
REMARK    4  A    between atoms: C_19  and  C_20
REMARK    5  A    between atoms: C_20  and  N_21
REMARK                            x       y       z     vdW  Elec       q    Type
REMARK                         _______ _______ _______ _____ _____    ______ ____
ROOT
ATOM      1  C   UNL     1       1.151   3.912  19.580  0.00  0.00    +0.000 C 
ATOM      2  C   UNL     1       2.579   3.687  20.009  0.00  0.00    +0.000 C 
ATOM      3  O   UNL     1       2.864   2.569  20.451  0.00  0.00    +0.000 OA
ATOM      4  N   UNL     1       3.537   4.697  19.886  0.00  0.00    +0.000 N 
ATOM      5  C   UNL     1       4.930   4.262  20.080  0.00  0.00    +0.000 C 
ATOM      6  C   UNL     1       5.537   3.933  18.734  0.00  0.00    +0.000 C 
ATOM      7  C   UNL     1       5.579   5.215  17.885  0.00  0.00    +0.000 C 
ATOM      8  C   UNL     1       4.405   6.170  18.152  0.00  0.00    +0.000 A 
ATOM      9  C   UNL     1       4.370   7.354  17.393  0.00  0.00    +0.000 A 
ATOM     10  C   UNL     1       3.332   8.256  17.541  0.00  0.00    +0.000 A 
ATOM     11  C   UNL     1       2.346   8.016  18.490  0.00  0.00    +0.000 A 
ATOM     12  C   UNL     1       2.387   6.896  19.353  0.00  0.00    +0.000 A 
ATOM     13  C   UNL     1       3.401   5.916  19.135  0.00  0.00    +0.000 A 
ENDROOT
BRANCH   7  14
ATOM     14  C   UNL     1       5.761   4.854  16.413  0.00  0.00    +0.000 A 
ATOM     15  C   UNL     1       4.775   4.132  15.720  0.00  0.00    +0.000 A 
ATOM     16  C   UNL     1       4.953   3.783  14.381  0.00  0.00    +0.000 A 
ATOM     17  C   UNL     1       6.112   4.160  13.711  0.00  0.00    +0.000 A 
ATOM     18  C   UNL     1       7.093   4.894  14.377  0.00  0.00    +0.000 A 
ATOM     19  C   UNL     1       6.920   5.237  15.721  0.00  0.00    +0.000 A 
ENDBRANCH   7  14
BRANCH  12  20
ATOM     20  C   UNL     1       1.338   6.887  20.465  0.00  0.00    +0.000 C 
BRANCH  20  21
ATOM     21  C   UNL     1       1.132   8.269  21.153  0.00  0.00    +0.000 C 
BRANCH  21  22
ATOM     22  N   UNL     1      -0.239   8.811  21.152  0.00  0.00    +0.000 NA
ATOM     23  C   UNL     1      -0.420   9.831  22.210  0.00  0.00    +0.000 C 
ATOM     24  C   UNL     1       0.057  11.281  21.907  0.00  0.00    +0.000 C 
ATOM     25  N   UNL     1      -0.461  11.796  20.634  0.00  0.00    +0.000 N 
ATOM     26  C   UNL     1      -0.315  13.136  20.266  0.00  0.00    +0.000 A 
ATOM     27  N   UNL     1      -0.335  13.463  18.969  0.00  0.00    +0.000 NA
ATOM     28  S   UNL     1      -0.047  15.053  18.737  0.00  0.00    +0.000 S 
ATOM     29  C   UNL     1       0.095  15.467  20.388  0.00  0.00    +0.000 A 
ATOM     30  C   UNL     1       0.380  16.732  20.938  0.00  0.00    +0.000 A 
ATOM     31  C   UNL     1       0.418  16.872  22.317  0.00  0.00    +0.000 A 
ATOM     32  C   UNL     1       0.151  15.779  23.128  0.00  0.00    +0.000 A 
ATOM     33  C   UNL     1      -0.130  14.522  22.568  0.00  0.00    +0.000 A 
ATOM     34  C   UNL     1      -0.132  14.310  21.158  0.00  0.00    +0.000 A 
ATOM     35  C   UNL     1      -0.269  10.816  19.525  0.00  0.00    +0.000 C 
ATOM     36  C   UNL     1      -0.723   9.383  19.882  0.00  0.00    +0.000 C 
ENDBRANCH  21  22
ENDBRANCH  20  21
ENDBRANCH  12  20
TORSDOF 4
ENDMDL
