MODEL 1
REMARK VINA RESULT:      -7.0      0.000      0.000
REMARK  Name = 
REMARK  4 active torsions:
REMARK  status: ('A' for Active; 'I' for Inactive)
REMARK    1  A    between atoms: C_1  and  C_2
REMARK    2  A    between atoms: C_2  and  C_4
REMARK    3  A    between atoms: C_7  and  C_8
REMARK    4  A    between atoms: C_12  and  N_13
REMARK                            x       y       z     vdW  Elec       q    Type
REMARK                         _______ _______ _______ _____ _____    ______ ____
ROOT
ATOM      1  C   UNL     1       2.885   4.671  18.400  0.00  0.00    +0.000 A 
ATOM      2  C   UNL     1       2.644   5.359  19.598  0.00  0.00    +0.000 A 
ATOM      3  C   UNL     1       1.712   4.880  20.519  0.00  0.00    +0.000 A 
ATOM      4  C   UNL     1       0.994   3.716  20.245  0.00  0.00    +0.000 A 
ATOM      5  C   UNL     1       1.166   3.046  19.034  0.00  0.00    +0.000 A 
ATOM      6  C   UNL     1       2.147   3.501  18.146  0.00  0.00    +0.000 A 
ENDROOT
BRANCH   1  10
ATOM      7  C   UNL     1       5.721   5.305  15.752  0.00  0.00    +0.000 A 
ATOM      8  C   UNL     1       5.394   6.536  16.284  0.00  0.00    +0.000 A 
ATOM      9  C   UNL     1       4.359   6.449  17.261  0.00  0.00    +0.000 A 
ATOM     10  C   UNL     1       3.921   5.154  17.468  0.00  0.00    +0.000 A 
ATOM     11  S   UNL     1       4.753   4.067  16.431  0.00  0.00    +0.000 S 
BRANCH   7  13
ATOM     12  C   UNL     1       6.302   3.969  13.689  0.00  0.00    +0.000 C 
ATOM     13  C   UNL     1       6.722   4.959  14.750  0.00  0.00    +0.000 C 
ATOM     14  O   UNL     1       7.860   5.430  14.714  0.00  0.00    +0.000 OA
ENDBRANCH   7  13
ENDBRANCH   1  10
BRANCH   5  15
ATOM     15  N   UNL     1       0.542   1.809  18.819  0.00  0.00    +0.000 N 
ATOM     16  H   UNL     1      -0.144   1.568  19.526  0.00  0.00    +0.000 HD
ATOM     17  H   UNL     1       0.176   1.697  17.877  0.00  0.00    +0.000 HD
ENDBRANCH   5  15
TORSDOF 3
ENDMDL
MODEL 2
REMARK VINA RESULT:      -6.9      1.639      1.970
REMARK  Name = 
REMARK  4 active torsions:
REMARK  status: ('A' for Active; 'I' for Inactive)
REMARK    1  A    between atoms: C_1  and  C_2
REMARK    2  A    between atoms: C_2  and  C_4
REMARK    3  A    between atoms: C_7  and  C_8
REMARK    4  A    between atoms: C_12  and  N_13
REMARK                            x       y       z     vdW  Elec       q    Type
REMARK                         _______ _______ _______ _____ _____    ______ ____
ROOT
ATOM      1  C   UNL     1       3.365   3.586  18.681  0.00  0.00    +0.000 A 
ATOM      2  C   UNL     1       2.169   3.371  17.980  0.00  0.00    +0.000 A 
ATOM      3  C   UNL     1       0.996   3.040  18.659  0.00  0.00    +0.000 A 
ATOM      4  C   UNL     1       1.008   2.900  20.046  0.00  0.00    +0.000 A 
ATOM      5  C   UNL     1       2.196   3.044  20.764  0.00  0.00    +0.000 A 
ATOM      6  C   UNL     1       3.351   3.437  20.079  0.00  0.00    +0.000 A 
ENDROOT
BRANCH   1  10
ATOM      7  C   UNL     1       6.248   4.547  16.187  0.00  0.00    +0.000 A 
ATOM      8  C   UNL     1       6.747   4.735  17.460  0.00  0.00    +0.000 A 
ATOM      9  C   UNL     1       5.789   4.429  18.471  0.00  0.00    +0.000 A 
ATOM     10  C   UNL     1       4.580   4.001  17.955  0.00  0.00    +0.000 A 
ATOM     11  S   UNL     1       4.620   4.021  16.239  0.00  0.00    +0.000 S 
BRANCH   7  13
ATOM     12  C   UNL     1       6.307   3.974  13.728  0.00  0.00    +0.000 C 
ATOM     13  C   UNL     1       6.898   4.730  14.894  0.00  0.00    +0.000 C 
ATOM     14  O   UNL     1       7.871   5.462  14.704  0.00  0.00    +0.000 OA
ENDBRANCH   7  13
ENDBRANCH   1  10
BRANCH   5  15
ATOM     15  N   UNL     1       2.178   3.033  22.165  0.00  0.00    +0.000 N 
ATOM     16  H   UNL     1       1.462   2.433  22.561  0.00  0.00    +0.000 HD
ATOM     17  H   UNL     1       3.090   2.866  22.582  0.00  0.00    +0.000 HD
ENDBRANCH   5  15
TORSDOF 3
ENDMDL
MODEL 3
REMARK VINA RESULT:      -6.9      1.286      1.694
REMARK  Name = 
REMARK  4 active torsions:
REMARK  status: ('A' for Active; 'I' for Inactive)
REMARK    1  A    between atoms: C_1  and  C_2
REMARK    2  A    between atoms: C_2  and  C_4
REMARK    3  A    between atoms: C_7  and  C_8
REMARK    4  A    between atoms: C_12  and  N_13
REMARK                            x       y       z     vdW  Elec       q    Type
REMARK                         _______ _______ _______ _____ _____    ______ ____
ROOT
ATOM      1  C   UNL     1       2.907   3.970  18.513  0.00  0.00    +0.000 A 
ATOM      2  C   UNL     1       1.758   3.365  17.983  0.00  0.00    +0.000 A 
ATOM      3  C   UNL     1       0.813   2.773  18.822  0.00  0.00    +0.000 A 
ATOM      4  C   UNL     1       1.015   2.762  20.202  0.00  0.00    +0.000 A 
ATOM      5  C   UNL     1       2.179   3.299  20.753  0.00  0.00    +0.000 A 
ATOM      6  C   UNL     1       3.088   3.943  19.908  0.00  0.00    +0.000 A 
ENDROOT
BRANCH   1  10
ATOM      7  C   UNL     1       5.629   5.154  15.935  0.00  0.00    +0.000 A 
ATOM      8  C   UNL     1       5.108   6.295  16.514  0.00  0.00    +0.000 A 
ATOM      9  C   UNL     1       4.092   6.005  17.471  0.00  0.00    +0.000 A 
ATOM     10  C   UNL     1       3.862   4.649  17.618  0.00  0.00    +0.000 A 
ATOM     11  S   UNL     1       4.863   3.752  16.549  0.00  0.00    +0.000 S 
BRANCH   7  13
ATOM     12  C   UNL     1       6.393   4.082  13.780  0.00  0.00    +0.000 C 
ATOM     13  C   UNL     1       6.680   5.013  14.935  0.00  0.00    +0.000 C 
ATOM     14  O   UNL     1       7.758   5.610  14.971  0.00  0.00    +0.000 OA
ENDBRANCH   7  13
ENDBRANCH   1  10
BRANCH   5  15
ATOM     15  N   UNL     1       2.316   3.403  22.144  0.00  0.00    +0.000 N 
ATOM     16  H   UNL     1       2.206   4.348  22.497  0.00  0.00    +0.000 HD
ATOM     17  H   UNL     1       1.750   2.734  22.660  0.00  0.00    +0.000 HD
ENDBRANCH   5  15
TORSDOF 3
ENDMDL
MODEL 4
REMARK VINA RESULT:      -6.8      3.899      6.155
REMARK  Name = 
REMARK  4 active torsions:
REMARK  status: ('A' for Active; 'I' for Inactive)
REMARK    1  A    between atoms: C_1  and  C_2
REMARK    2  A    between atoms: C_2  and  C_4
REMARK    3  A    between atoms: C_7  and  C_8
REMARK    4  A    between atoms: C_12  and  N_13
REMARK                            x       y       z     vdW  Elec       q    Type
REMARK                         _______ _______ _______ _____ _____    ______ ____
ROOT
ATOM      1  C   UNL     1       5.512   5.352  18.247  0.00  0.00    +0.000 A 
ATOM      2  C   UNL     1       5.783   6.396  17.350  0.00  0.00    +0.000 A 
ATOM      3  C   UNL     1       6.990   7.093  17.409  0.00  0.00    +0.000 A 
ATOM      4  C   UNL     1       7.936   6.766  18.381  0.00  0.00    +0.000 A 
ATOM      5  C   UNL     1       7.670   5.777  19.327  0.00  0.00    +0.000 A 
ATOM      6  C   UNL     1       6.482   5.045  19.218  0.00  0.00    +0.000 A 
ENDROOT
BRANCH   1  10
ATOM      7  C   UNL     1       2.137   3.369  18.601  0.00  0.00    +0.000 A 
ATOM      8  C   UNL     1       2.466   3.353  17.260  0.00  0.00    +0.000 A 
ATOM      9  C   UNL     1       3.678   4.055  16.990  0.00  0.00    +0.000 A 
ATOM     10  C   UNL     1       4.261   4.583  18.127  0.00  0.00    +0.000 A 
ATOM     11  S   UNL     1       3.292   4.250  19.506  0.00  0.00    +0.000 S 
BRANCH   7  13
ATOM     12  C   UNL     1       0.917   2.991  20.780  0.00  0.00    +0.000 C 
ATOM     13  C   UNL     1       1.002   2.765  19.289  0.00  0.00    +0.000 C 
ATOM     14  O   UNL     1       0.120   2.109  18.730  0.00  0.00    +0.000 OA
ENDBRANCH   7  13
ENDBRANCH   1  10
BRANCH   5  15
ATOM     15  N   UNL     1       8.672   5.364  20.216  0.00  0.00    +0.000 N 
ATOM     16  H   UNL     1       9.599   5.690  19.967  0.00  0.00    +0.000 HD
ATOM     17  H   UNL     1       8.450   5.547  21.191  0.00  0.00    +0.000 HD
ENDBRANCH   5  15
TORSDOF 3
ENDMDL
MODEL 5
REMARK VINA RESULT:      -6.7      2.036      2.765
REMARK  Name = 
REMARK  4 active torsions:
REMARK  status: ('A' for Active; 'I' for Inactive)
REMARK    1  A    between atoms: C_1  and  C_2
REMARK    2  A    between atoms: C_2  and  C_4
REMARK    3  A    between atoms: C_7  and  C_8
REMARK    4  A    between atoms: C_12  and  N_13
REMARK                            x       y       z     vdW  Elec       q    Type
REMARK                         _______ _______ _______ _____ _____    ______ ____
ROOT
ATOM      1  C   UNL     1       3.033   3.663  18.742  0.00  0.00    +0.000 A 
ATOM      2  C   UNL     1       1.907   3.212  18.037  0.00  0.00    +0.000 A 
ATOM      3  C   UNL     1       0.818   2.661  18.712  0.00  0.00    +0.000 A 
ATOM      4  C   UNL     1       0.848   2.537  20.101  0.00  0.00    +0.000 A 
ATOM      5  C   UNL     1       1.979   2.917  20.823  0.00  0.00    +0.000 A 
ATOM      6  C   UNL     1       3.039   3.524  20.142  0.00  0.00    +0.000 A 
ENDROOT
BRANCH   1  10
ATOM      7  C   UNL     1       6.176   5.620  17.422  0.00  0.00    +0.000 A 
ATOM      8  C   UNL     1       5.597   5.016  16.324  0.00  0.00    +0.000 A 
ATOM      9  C   UNL     1       4.440   4.257  16.669  0.00  0.00    +0.000 A 
ATOM     10  C   UNL     1       4.147   4.304  18.019  0.00  0.00    +0.000 A 
ATOM     11  S   UNL     1       5.319   5.241  18.854  0.00  0.00    +0.000 S 
BRANCH   7  13
ATOM     12  C   UNL     1       8.037   6.569  18.842  0.00  0.00    +0.000 C 
ATOM     13  C   UNL     1       7.350   6.482  17.500  0.00  0.00    +0.000 C 
ATOM     14  O   UNL     1       7.809   7.118  16.548  0.00  0.00    +0.000 OA
ENDBRANCH   7  13
ENDBRANCH   1  10
BRANCH   5  15
ATOM     15  N   UNL     1       1.954   2.912  22.224  0.00  0.00    +0.000 N 
ATOM     16  H   UNL     1       2.148   2.005  22.635  0.00  0.00    +0.000 HD
ATOM     17  H   UNL     1       2.516   3.649  22.643  0.00  0.00    +0.000 HD
ENDBRANCH   5  15
TORSDOF 3
ENDMDL
MODEL 6
REMARK VINA RESULT:      -6.6      1.989      2.335
REMARK  Name = 
REMARK  4 active torsions:
REMARK  status: ('A' for Active; 'I' for Inactive)
REMARK    1  A    between atoms: C_1  and  C_2
REMARK    2  A    between atoms: C_2  and  C_4
REMARK    3  A    between atoms: C_7  and  C_8
REMARK    4  A    between atoms: C_12  and  N_13
REMARK                            x       y       z     vdW  Elec       q    Type
REMARK                         _______ _______ _______ _____ _____    ______ ____
ROOT
ATOM      1  C   UNL     1       4.292   4.244  19.164  0.00  0.00    +0.000 A 
ATOM      2  C   UNL     1       4.030   2.959  19.662  0.00  0.00    +0.000 A 
ATOM      3  C   UNL     1       2.995   2.746  20.573  0.00  0.00    +0.000 A 
ATOM      4  C   UNL     1       2.222   3.819  21.014  0.00  0.00    +0.000 A 
ATOM      5  C   UNL     1       2.500   5.117  20.586  0.00  0.00    +0.000 A 
ATOM      6  C   UNL     1       3.499   5.309  19.626  0.00  0.00    +0.000 A 
ENDROOT
BRANCH   1  10
ATOM      7  C   UNL     1       6.600   4.680  16.012  0.00  0.00    +0.000 A 
ATOM      8  C   UNL     1       7.417   4.794  17.119  0.00  0.00    +0.000 A 
ATOM      9  C   UNL     1       6.696   4.664  18.342  0.00  0.00    +0.000 A 
ATOM     10  C   UNL     1       5.345   4.441  18.151  0.00  0.00    +0.000 A 
ATOM     11  S   UNL     1       4.970   4.438  16.475  0.00  0.00    +0.000 S 
BRANCH   7  13
ATOM     12  C   UNL     1       6.131   3.857  13.671  0.00  0.00    +0.000 C 
ATOM     13  C   UNL     1       6.938   4.739  14.594  0.00  0.00    +0.000 C 
ATOM     14  O   UNL     1       7.815   5.463  14.119  0.00  0.00    +0.000 OA
ENDBRANCH   7  13
ENDBRANCH   1  10
BRANCH   5  15
ATOM     15  N   UNL     1       1.640   6.170  20.928  0.00  0.00    +0.000 N 
ATOM     16  H   UNL     1       0.658   5.957  20.795  0.00  0.00    +0.000 HD
ATOM     17  H   UNL     1       1.825   6.564  21.847  0.00  0.00    +0.000 HD
ENDBRANCH   5  15
TORSDOF 3
ENDMDL
MODEL 7
REMARK VINA RESULT:      -6.6      1.667      1.841
REMARK  Name = 
REMARK  4 active torsions:
REMARK  status: ('A' for Active; 'I' for Inactive)
REMARK    1  A    between atoms: C_1  and  C_2
REMARK    2  A    between atoms: C_2  and  C_4
REMARK    3  A    between atoms: C_7  and  C_8
REMARK    4  A    between atoms: C_12  and  N_13
REMARK                            x       y       z     vdW  Elec       q    Type
REMARK                         _______ _______ _______ _____ _____    ______ ____
ROOT
ATOM      1  C   UNL     1       3.936   4.770  19.134  0.00  0.00    +0.000 A 
ATOM      2  C   UNL     1       3.114   5.903  19.236  0.00  0.00    +0.000 A 
ATOM      3  C   UNL     1       2.066   5.942  20.157  0.00  0.00    +0.000 A 
ATOM      4  C   UNL     1       1.815   4.841  20.975  0.00  0.00    +0.000 A 
ATOM      5  C   UNL     1       2.574   3.678  20.852  0.00  0.00    +0.000 A 
ATOM      6  C   UNL     1       3.659   3.673  19.969  0.00  0.00    +0.000 A 
ENDROOT
BRANCH   1  10
ATOM      7  C   UNL     1       6.513   4.786  16.165  0.00  0.00    +0.000 A 
ATOM      8  C   UNL     1       7.251   4.730  17.330  0.00  0.00    +0.000 A 
ATOM      9  C   UNL     1       6.430   4.729  18.496  0.00  0.00    +0.000 A 
ATOM     10  C   UNL     1       5.079   4.771  18.203  0.00  0.00    +0.000 A 
ATOM     11  S   UNL     1       4.836   4.856  16.506  0.00  0.00    +0.000 S 
BRANCH   7  13
ATOM     12  C   UNL     1       6.209   3.895  13.822  0.00  0.00    +0.000 C 
ATOM     13  C   UNL     1       6.960   4.792  14.778  0.00  0.00    +0.000 C 
ATOM     14  O   UNL     1       7.886   5.484  14.349  0.00  0.00    +0.000 OA
ENDBRANCH   7  13
ENDBRANCH   1  10
BRANCH   5  15
ATOM     15  N   UNL     1       2.404   2.626  21.763  0.00  0.00    +0.000 N 
ATOM     16  H   UNL     1       2.196   1.735  21.326  0.00  0.00    +0.000 HD
ATOM     17  H   UNL     1       3.156   2.552  22.443  0.00  0.00    +0.000 HD
ENDBRANCH   5  15
TORSDOF 3
ENDMDL
MODEL 8
REMARK VINA RESULT:      -6.5      1.728      2.027
REMARK  Name = 
REMARK  4 active torsions:
REMARK  status: ('A' for Active; 'I' for Inactive)
REMARK    1  A    between atoms: C_1  and  C_2
REMARK    2  A    between atoms: C_2  and  C_4
REMARK    3  A    between atoms: C_7  and  C_8
REMARK    4  A    between atoms: C_12  and  N_13
REMARK                            x       y       z     vdW  Elec       q    Type
REMARK                         _______ _______ _______ _____ _____    ______ ____
ROOT
ATOM      1  C   UNL     1       2.711   4.624  19.141  0.00  0.00    +0.000 A 
ATOM      2  C   UNL     1       2.505   4.800  20.517  0.00  0.00    +0.000 A 
ATOM      3  C   UNL     1       1.679   3.933  21.232  0.00  0.00    +0.000 A 
ATOM      4  C   UNL     1       1.031   2.888  20.574  0.00  0.00    +0.000 A 
ATOM      5  C   UNL     1       1.165   2.725  19.195  0.00  0.00    +0.000 A 
ATOM      6  C   UNL     1       2.044   3.563  18.502  0.00  0.00    +0.000 A 
ENDROOT
BRANCH   1  10
ATOM      7  C   UNL     1       5.663   6.529  17.377  0.00  0.00    +0.000 A 
ATOM      8  C   UNL     1       4.530   7.296  17.191  0.00  0.00    +0.000 A 
ATOM      9  C   UNL     1       3.372   6.707  17.779  0.00  0.00    +0.000 A 
ATOM     10  C   UNL     1       3.640   5.508  18.415  0.00  0.00    +0.000 A 
ATOM     11  S   UNL     1       5.299   5.099  18.245  0.00  0.00    +0.000 S 
BRANCH   7  13
ATOM     12  C   UNL     1       7.771   7.891  17.657  0.00  0.00    +0.000 C 
ATOM     13  C   UNL     1       7.035   6.776  16.952  0.00  0.00    +0.000 C 
ATOM     14  O   UNL     1       7.619   6.129  16.080  0.00  0.00    +0.000 OA
ENDBRANCH   7  13
ENDBRANCH   1  10
BRANCH   5  15
ATOM     15  N   UNL     1       0.620   1.599  18.563  0.00  0.00    +0.000 N 
ATOM     16  H   UNL     1      -0.172   1.197  19.053  0.00  0.00    +0.000 HD
ATOM     17  H   UNL     1       0.426   1.742  17.575  0.00  0.00    +0.000 HD
ENDBRANCH   5  15
TORSDOF 3
ENDMDL
MODEL 9
REMARK VINA RESULT:      -6.5      3.112      3.722
REMARK  Name = 
REMARK  4 active torsions:
REMARK  status: ('A' for Active; 'I' for Inactive)
REMARK    1  A    between atoms: C_1  and  C_2
REMARK    2  A    between atoms: C_2  and  C_4
REMARK    3  A    between atoms: C_7  and  C_8
REMARK    4  A    between atoms: C_12  and  N_13
REMARK                            x       y       z     vdW  Elec       q    Type
REMARK                         _______ _______ _______ _____ _____    ______ ____
ROOT
ATOM      1  C   UNL     1       2.726   7.133  18.468  0.00  0.00    +0.000 A 
ATOM      2  C   UNL     1       2.361   6.949  19.810  0.00  0.00    +0.000 A 
ATOM      3  C   UNL     1       1.575   7.893  20.471  0.00  0.00    +0.000 A 
ATOM      4  C   UNL     1       1.160   9.045  19.804  0.00  0.00    +0.000 A 
ATOM      5  C   UNL     1       1.560   9.287  18.489  0.00  0.00    +0.000 A 
ATOM      6  C   UNL     1       2.296   8.304  17.819  0.00  0.00    +0.000 A 
ENDROOT
BRANCH   1  10
ATOM      7  C   UNL     1       5.201   4.869  16.418  0.00  0.00    +0.000 A 
ATOM      8  C   UNL     1       4.201   4.040  16.885  0.00  0.00    +0.000 A 
ATOM      9  C   UNL     1       3.232   4.740  17.662  0.00  0.00    +0.000 A 
ATOM     10  C   UNL     1       3.499   6.093  17.765  0.00  0.00    +0.000 A 
ATOM     11  S   UNL     1       4.959   6.479  16.946  0.00  0.00    +0.000 S 
BRANCH   7  13
ATOM     12  C   UNL     1       6.073   4.042  14.197  0.00  0.00    +0.000 C 
ATOM     13  C   UNL     1       6.358   4.558  15.588  0.00  0.00    +0.000 C 
ATOM     14  O   UNL     1       7.529   4.704  15.945  0.00  0.00    +0.000 OA
ENDBRANCH   7  13
ENDBRANCH   1  10
BRANCH   5  15
ATOM     15  N   UNL     1       1.035  10.377  17.783  0.00  0.00    +0.000 N 
ATOM     16  H   UNL     1       1.221  10.347  16.786  0.00  0.00    +0.000 HD
ATOM     17  H   UNL     1       0.055  10.557  17.984  0.00  0.00    +0.000 HD
ENDBRANCH   5  15
TORSDOF 3
ENDMDL
