MODEL 1
REMARK VINA RESULT:      -7.9      0.000      0.000
REMARK  Name = 
REMARK  2 active torsions:
REMARK  status: ('A' for Active; 'I' for Inactive)
REMARK    1  A    between atoms: C_2  and  C_14
REMARK    2  A    between atoms: N_3  and  C_4
REMARK                            x       y       z     vdW  Elec       q    Type
REMARK                         _______ _______ _______ _____ _____    ______ ____
ROOT
ATOM      1  O   UNL     1       7.219   6.010  16.079  0.00  0.00    +0.000 OA
ATOM      2  C   UNL     1       6.360   5.229  15.667  0.00  0.00    +0.000 C 
ATOM      3  N   UNL     1       5.281   4.849  16.448  0.00  0.00    +0.000 N 
ATOM      4  H   UNL     1       4.714   4.051  16.201  0.00  0.00    +0.000 HD
ENDROOT
BRANCH   3   5
ATOM      5  C   UNL     1       5.218   5.320  17.831  0.00  0.00    +0.000 C 
ATOM      6  C   UNL     1       5.404   4.142  18.805  0.00  0.00    +0.000 C 
ATOM      7  C   UNL     1       4.069   3.525  19.202  0.00  0.00    +0.000 C 
ATOM      8  C   UNL     1       3.235   4.561  19.948  0.00  0.00    +0.000 C 
ATOM      9  C   UNL     1       3.103   5.846  19.171  0.00  0.00    +0.000 A 
ATOM     10  C   UNL     1       2.117   6.766  19.562  0.00  0.00    +0.000 A 
ATOM     11  C   UNL     1       1.986   7.989  18.908  0.00  0.00    +0.000 A 
ATOM     12  C   UNL     1       2.824   8.293  17.839  0.00  0.00    +0.000 A 
ATOM     13  C   UNL     1       3.819   7.393  17.451  0.00  0.00    +0.000 A 
ATOM     14  C   UNL     1       3.994   6.173  18.129  0.00  0.00    +0.000 A 
ENDBRANCH   3   5
BRANCH   2  15
ATOM     15  C   UNL     1       6.504   4.685  14.284  0.00  0.00    +0.000 A 
ATOM     16  C   UNL     1       7.559   5.193  13.497  0.00  0.00    +0.000 A 
ATOM     17  C   UNL     1       7.733   4.786  12.175  0.00  0.00    +0.000 A 
ATOM     18  C   UNL     1       6.857   3.859  11.620  0.00  0.00    +0.000 A 
ATOM     19  C   UNL     1       5.824   3.347  12.404  0.00  0.00    +0.000 A 
ATOM     20  F   UNL     1       4.978   2.456  11.866  0.00  0.00    +0.000 F 
ATOM     21  C   UNL     1       5.637   3.747  13.724  0.00  0.00    +0.000 A 
ENDBRANCH   2  15
TORSDOF 2
ENDMDL
MODEL 2
REMARK VINA RESULT:      -7.7      1.781      2.335
REMARK  Name = 
REMARK  2 active torsions:
REMARK  status: ('A' for Active; 'I' for Inactive)
REMARK    1  A    between atoms: C_2  and  C_14
REMARK    2  A    between atoms: N_3  and  C_4
REMARK                            x       y       z     vdW  Elec       q    Type
REMARK                         _______ _______ _______ _____ _____    ______ ____
ROOT
ATOM      1  O   UNL     1       6.720   4.344  17.241  0.00  0.00    +0.000 OA
ATOM      2  C   UNL     1       5.874   4.120  16.375  0.00  0.00    +0.000 C 
ATOM      3  N   UNL     1       4.583   3.728  16.696  0.00  0.00    +0.000 N 
ATOM      4  H   UNL     1       3.970   3.333  15.999  0.00  0.00    +0.000 HD
ENDROOT
BRANCH   3   5
ATOM      5  C   UNL     1       4.255   3.489  18.101  0.00  0.00    +0.000 C 
ATOM      6  C   UNL     1       3.786   2.035  18.298  0.00  0.00    +0.000 C 
ATOM      7  C   UNL     1       2.273   1.910  18.166  0.00  0.00    +0.000 C 
ATOM      8  C   UNL     1       1.601   2.724  19.267  0.00  0.00    +0.000 C 
ATOM      9  C   UNL     1       2.092   4.148  19.297  0.00  0.00    +0.000 A 
ATOM     10  C   UNL     1       1.353   5.096  20.025  0.00  0.00    +0.000 A 
ATOM     11  C   UNL     1       1.790   6.415  20.124  0.00  0.00    +0.000 A 
ATOM     12  C   UNL     1       2.959   6.805  19.477  0.00  0.00    +0.000 A 
ATOM     13  C   UNL     1       3.711   5.868  18.765  0.00  0.00    +0.000 A 
ATOM     14  C   UNL     1       3.308   4.523  18.690  0.00  0.00    +0.000 A 
ENDBRANCH   3   5
BRANCH   2  15
ATOM     15  C   UNL     1       6.268   4.277  14.944  0.00  0.00    +0.000 A 
ATOM     16  C   UNL     1       5.547   3.529  13.990  0.00  0.00    +0.000 A 
ATOM     17  C   UNL     1       5.884   3.569  12.638  0.00  0.00    +0.000 A 
ATOM     18  C   UNL     1       6.946   4.362  12.217  0.00  0.00    +0.000 A 
ATOM     19  C   UNL     1       7.647   5.113  13.160  0.00  0.00    +0.000 A 
ATOM     20  F   UNL     1       8.674   5.875  12.752  0.00  0.00    +0.000 F 
ATOM     21  C   UNL     1       7.324   5.080  14.513  0.00  0.00    +0.000 A 
ENDBRANCH   2  15
TORSDOF 2
ENDMDL
MODEL 3
REMARK VINA RESULT:      -7.5      1.441      1.973
REMARK  Name = 
REMARK  2 active torsions:
REMARK  status: ('A' for Active; 'I' for Inactive)
REMARK    1  A    between atoms: C_2  and  C_14
REMARK    2  A    between atoms: N_3  and  C_4
REMARK                            x       y       z     vdW  Elec       q    Type
REMARK                         _______ _______ _______ _____ _____    ______ ____
ROOT
ATOM      1  O   UNL     1       6.557   4.403  17.566  0.00  0.00    +0.000 OA
ATOM      2  C   UNL     1       5.732   4.026  16.734  0.00  0.00    +0.000 C 
ATOM      3  N   UNL     1       4.495   3.523  17.106  0.00  0.00    +0.000 N 
ATOM      4  H   UNL     1       3.921   3.013  16.451  0.00  0.00    +0.000 HD
ENDROOT
BRANCH   3   5
ATOM      5  C   UNL     1       4.208   3.355  18.530  0.00  0.00    +0.000 C 
ATOM      6  C   UNL     1       3.828   1.893  18.828  0.00  0.00    +0.000 C 
ATOM      7  C   UNL     1       2.323   1.674  18.739  0.00  0.00    +0.000 C 
ATOM      8  C   UNL     1       1.626   2.516  19.802  0.00  0.00    +0.000 C 
ATOM      9  C   UNL     1       2.034   3.965  19.733  0.00  0.00    +0.000 A 
ATOM     10  C   UNL     1       1.255   4.914  20.416  0.00  0.00    +0.000 A 
ATOM     11  C   UNL     1       1.618   6.259  20.424  0.00  0.00    +0.000 A 
ATOM     12  C   UNL     1       2.749   6.673  19.726  0.00  0.00    +0.000 A 
ATOM     13  C   UNL     1       3.540   5.737  19.057  0.00  0.00    +0.000 A 
ATOM     14  C   UNL     1       3.214   4.369  19.075  0.00  0.00    +0.000 A 
ENDBRANCH   3   5
BRANCH   2  15
ATOM     15  C   UNL     1       6.092   4.117  15.288  0.00  0.00    +0.000 A 
ATOM     16  C   UNL     1       7.218   4.896  14.951  0.00  0.00    +0.000 A 
ATOM     17  C   UNL     1       7.593   5.084  13.622  0.00  0.00    +0.000 A 
ATOM     18  C   UNL     1       6.849   4.493  12.607  0.00  0.00    +0.000 A 
ATOM     19  C   UNL     1       5.744   3.711  12.943  0.00  0.00    +0.000 A 
ATOM     20  F   UNL     1       5.025   3.144  11.962  0.00  0.00    +0.000 F 
ATOM     21  C   UNL     1       5.357   3.517  14.265  0.00  0.00    +0.000 A 
ENDBRANCH   2  15
TORSDOF 2
ENDMDL
MODEL 4
REMARK VINA RESULT:      -7.5      5.558      7.250
REMARK  Name = 
REMARK  2 active torsions:
REMARK  status: ('A' for Active; 'I' for Inactive)
REMARK    1  A    between atoms: C_2  and  C_14
REMARK    2  A    between atoms: N_3  and  C_4
REMARK                            x       y       z     vdW  Elec       q    Type
REMARK                         _______ _______ _______ _____ _____    ______ ____
ROOT
ATOM      1  O   UNL     1       2.783   7.312  19.345  0.00  0.00    +0.000 OA
ATOM      2  C   UNL     1       1.942   6.721  20.023  0.00  0.00    +0.000 C 
ATOM      3  N   UNL     1       1.097   7.394  20.891  0.00  0.00    +0.000 N 
ATOM      4  H   UNL     1       0.575   6.898  21.599  0.00  0.00    +0.000 HD
ENDROOT
BRANCH   3   5
ATOM      5  C   UNL     1       1.279   8.834  21.068  0.00  0.00    +0.000 C 
ATOM      6  C   UNL     1       1.400   9.175  22.565  0.00  0.00    +0.000 C 
ATOM      7  C   UNL     1       0.045   9.508  23.177  0.00  0.00    +0.000 C 
ATOM      8  C   UNL     1      -0.520  10.755  22.504  0.00  0.00    +0.000 C 
ATOM      9  C   UNL     1      -0.548  10.624  21.003  0.00  0.00    +0.000 A 
ATOM     10  C   UNL     1      -1.324  11.533  20.266  0.00  0.00    +0.000 A 
ATOM     11  C   UNL     1      -1.344  11.485  18.874  0.00  0.00    +0.000 A 
ATOM     12  C   UNL     1      -0.608  10.511  18.206  0.00  0.00    +0.000 A 
ATOM     13  C   UNL     1       0.181   9.612  18.927  0.00  0.00    +0.000 A 
ATOM     14  C   UNL     1       0.248   9.674  20.330  0.00  0.00    +0.000 A 
ENDBRANCH   3   5
BRANCH   2  15
ATOM     15  C   UNL     1       1.846   5.237  19.894  0.00  0.00    +0.000 A 
ATOM     16  C   UNL     1       1.855   4.700  18.590  0.00  0.00    +0.000 A 
ATOM     17  C   UNL     1       1.711   3.330  18.373  0.00  0.00    +0.000 A 
ATOM     18  C   UNL     1       1.560   2.475  19.459  0.00  0.00    +0.000 A 
ATOM     19  C   UNL     1       1.567   3.006  20.748  0.00  0.00    +0.000 A 
ATOM     20  F   UNL     1       1.418   2.178  21.794  0.00  0.00    +0.000 F 
ATOM     21  C   UNL     1       1.707   4.371  20.979  0.00  0.00    +0.000 A 
ENDBRANCH   2  15
TORSDOF 2
ENDMDL
MODEL 5
REMARK VINA RESULT:      -7.3      5.202      7.025
REMARK  Name = 
REMARK  2 active torsions:
REMARK  status: ('A' for Active; 'I' for Inactive)
REMARK    1  A    between atoms: C_2  and  C_14
REMARK    2  A    between atoms: N_3  and  C_4
REMARK                            x       y       z     vdW  Elec       q    Type
REMARK                         _______ _______ _______ _____ _____    ______ ____
ROOT
ATOM      1  O   UNL     1       2.860   7.294  19.392  0.00  0.00    +0.000 OA
ATOM      2  C   UNL     1       1.983   6.703  20.022  0.00  0.00    +0.000 C 
ATOM      3  N   UNL     1       1.107   7.374  20.862  0.00  0.00    +0.000 N 
ATOM      4  H   UNL     1       0.549   6.874  21.538  0.00  0.00    +0.000 HD
ENDROOT
BRANCH   3   5
ATOM      5  C   UNL     1       1.298   8.808  21.069  0.00  0.00    +0.000 C 
ATOM      6  C   UNL     1       1.399   9.120  22.574  0.00  0.00    +0.000 C 
ATOM      7  C   UNL     1       0.038   9.453  23.172  0.00  0.00    +0.000 C 
ATOM      8  C   UNL     1      -0.507  10.717  22.514  0.00  0.00    +0.000 C 
ATOM      9  C   UNL     1      -0.513  10.614  21.010  0.00  0.00    +0.000 A 
ATOM     10  C   UNL     1      -1.271  11.544  20.279  0.00  0.00    +0.000 A 
ATOM     11  C   UNL     1      -1.271  11.522  18.886  0.00  0.00    +0.000 A 
ATOM     12  C   UNL     1      -0.532  10.555  18.211  0.00  0.00    +0.000 A 
ATOM     13  C   UNL     1       0.239   9.636  18.927  0.00  0.00    +0.000 A 
ATOM     14  C   UNL     1       0.285   9.671  20.332  0.00  0.00    +0.000 A 
ENDBRANCH   3   5
BRANCH   2  15
ATOM     15  C   UNL     1       1.875   5.222  19.867  0.00  0.00    +0.000 A 
ATOM     16  C   UNL     1       1.680   4.463  21.038  0.00  0.00    +0.000 A 
ATOM     17  C   UNL     1       1.626   3.070  20.994  0.00  0.00    +0.000 A 
ATOM     18  C   UNL     1       1.764   2.415  19.775  0.00  0.00    +0.000 A 
ATOM     19  C   UNL     1       1.942   3.169  18.616  0.00  0.00    +0.000 A 
ATOM     20  F   UNL     1       2.078   2.534  17.442  0.00  0.00    +0.000 F 
ATOM     21  C   UNL     1       2.000   4.559  18.646  0.00  0.00    +0.000 A 
ENDBRANCH   2  15
TORSDOF 2
ENDMDL
MODEL 6
REMARK VINA RESULT:      -7.2      4.727      7.530
REMARK  Name = 
REMARK  2 active torsions:
REMARK  status: ('A' for Active; 'I' for Inactive)
REMARK    1  A    between atoms: C_2  and  C_14
REMARK    2  A    between atoms: N_3  and  C_4
REMARK                            x       y       z     vdW  Elec       q    Type
REMARK                         _______ _______ _______ _____ _____    ______ ____
ROOT
ATOM      1  O   UNL     1       2.180   9.201  17.275  0.00  0.00    +0.000 OA
ATOM      2  C   UNL     1       1.872   8.720  18.366  0.00  0.00    +0.000 C 
ATOM      3  N   UNL     1       0.974   9.348  19.215  0.00  0.00    +0.000 N 
ATOM      4  H   UNL     1       0.897   9.077  20.184  0.00  0.00    +0.000 HD
ENDROOT
BRANCH   3   5
ATOM      5  C   UNL     1       0.456  10.662  18.837  0.00  0.00    +0.000 C 
ATOM      6  C   UNL     1       0.817  11.706  19.910  0.00  0.00    +0.000 C 
ATOM      7  C   UNL     1      -0.280  11.835  20.960  0.00  0.00    +0.000 C 
ATOM      8  C   UNL     1      -1.558  12.337  20.295  0.00  0.00    +0.000 C 
ATOM      9  C   UNL     1      -1.948  11.492  19.110  0.00  0.00    +0.000 A 
ATOM     10  C   UNL     1      -3.249  11.620  18.595  0.00  0.00    +0.000 A 
ATOM     11  C   UNL     1      -3.644  10.898  17.471  0.00  0.00    +0.000 A 
ATOM     12  C   UNL     1      -2.748  10.021  16.865  0.00  0.00    +0.000 A 
ATOM     13  C   UNL     1      -1.447   9.897  17.358  0.00  0.00    +0.000 A 
ATOM     14  C   UNL     1      -1.018  10.651  18.464  0.00  0.00    +0.000 A 
ENDBRANCH   3   5
BRANCH   2  15
ATOM     15  C   UNL     1       2.494   7.425  18.769  0.00  0.00    +0.000 A 
ATOM     16  C   UNL     1       3.478   6.887  17.914  0.00  0.00    +0.000 A 
ATOM     17  C   UNL     1       4.071   5.654  18.181  0.00  0.00    +0.000 A 
ATOM     18  C   UNL     1       3.690   4.940  19.312  0.00  0.00    +0.000 A 
ATOM     19  C   UNL     1       2.727   5.479  20.164  0.00  0.00    +0.000 A 
ATOM     20  F   UNL     1       2.360   4.787  21.253  0.00  0.00    +0.000 F 
ATOM     21  C   UNL     1       2.126   6.708  19.908  0.00  0.00    +0.000 A 
ENDBRANCH   2  15
TORSDOF 2
ENDMDL
MODEL 7
REMARK VINA RESULT:      -7.2      3.612      7.180
REMARK  Name = 
REMARK  2 active torsions:
REMARK  status: ('A' for Active; 'I' for Inactive)
REMARK    1  A    between atoms: C_2  and  C_14
REMARK    2  A    between atoms: N_3  and  C_4
REMARK                            x       y       z     vdW  Elec       q    Type
REMARK                         _______ _______ _______ _____ _____    ______ ____
ROOT
ATOM      1  O   UNL     1       2.593   5.295  19.889  0.00  0.00    +0.000 OA
ATOM      2  C   UNL     1       2.906   6.301  19.252  0.00  0.00    +0.000 C 
ATOM      3  N   UNL     1       3.965   6.302  18.357  0.00  0.00    +0.000 N 
ATOM      4  H   UNL     1       4.356   7.167  18.014  0.00  0.00    +0.000 HD
ENDROOT
BRANCH   3   5
ATOM      5  C   UNL     1       4.783   5.096  18.243  0.00  0.00    +0.000 C 
ATOM      6  C   UNL     1       5.754   4.996  19.434  0.00  0.00    +0.000 C 
ATOM      7  C   UNL     1       7.094   5.652  19.124  0.00  0.00    +0.000 C 
ATOM      8  C   UNL     1       7.764   4.912  17.971  0.00  0.00    +0.000 C 
ATOM      9  C   UNL     1       6.856   4.791  16.774  0.00  0.00    +0.000 A 
ATOM     10  C   UNL     1       7.421   4.432  15.539  0.00  0.00    +0.000 A 
ATOM     11  C   UNL     1       6.618   4.260  14.413  0.00  0.00    +0.000 A 
ATOM     12  C   UNL     1       5.245   4.468  14.506  0.00  0.00    +0.000 A 
ATOM     13  C   UNL     1       4.670   4.809  15.732  0.00  0.00    +0.000 A 
ATOM     14  C   UNL     1       5.459   4.945  16.888  0.00  0.00    +0.000 A 
ENDBRANCH   3   5
BRANCH   2  15
ATOM     15  C   UNL     1       2.112   7.548  19.464  0.00  0.00    +0.000 A 
ATOM     16  C   UNL     1       2.016   8.444  18.380  0.00  0.00    +0.000 A 
ATOM     17  C   UNL     1       1.344   9.659  18.506  0.00  0.00    +0.000 A 
ATOM     18  C   UNL     1       0.754   9.995  19.720  0.00  0.00    +0.000 A 
ATOM     19  C   UNL     1       0.838   9.101  20.786  0.00  0.00    +0.000 A 
ATOM     20  F   UNL     1       0.270   9.429  21.957  0.00  0.00    +0.000 F 
ATOM     21  C   UNL     1       1.507   7.887  20.675  0.00  0.00    +0.000 A 
ENDBRANCH   2  15
TORSDOF 2
ENDMDL
MODEL 8
REMARK VINA RESULT:      -7.1      4.791      7.863
REMARK  Name = 
REMARK  2 active torsions:
REMARK  status: ('A' for Active; 'I' for Inactive)
REMARK    1  A    between atoms: C_2  and  C_14
REMARK    2  A    between atoms: N_3  and  C_4
REMARK                            x       y       z     vdW  Elec       q    Type
REMARK                         _______ _______ _______ _____ _____    ______ ____
ROOT
ATOM      1  O   UNL     1       1.945   7.210  21.210  0.00  0.00    +0.000 OA
ATOM      2  C   UNL     1       1.830   7.715  20.093  0.00  0.00    +0.000 C 
ATOM      3  N   UNL     1       2.387   7.132  18.966  0.00  0.00    +0.000 N 
ATOM      4  H   UNL     1       2.487   7.651  18.106  0.00  0.00    +0.000 HD
ENDROOT
BRANCH   3   5
ATOM      5  C   UNL     1       3.210   5.935  19.132  0.00  0.00    +0.000 C 
ATOM      6  C   UNL     1       4.517   6.071  18.329  0.00  0.00    +0.000 C 
ATOM      7  C   UNL     1       4.377   5.495  16.926  0.00  0.00    +0.000 C 
ATOM      8  C   UNL     1       4.093   3.999  17.020  0.00  0.00    +0.000 C 
ATOM      9  C   UNL     1       2.920   3.702  17.917  0.00  0.00    +0.000 A 
ATOM     10  C   UNL     1       2.336   2.426  17.855  0.00  0.00    +0.000 A 
ATOM     11  C   UNL     1       1.281   2.085  18.699  0.00  0.00    +0.000 A 
ATOM     12  C   UNL     1       0.783   3.026  19.596  0.00  0.00    +0.000 A 
ATOM     13  C   UNL     1       1.366   4.292  19.678  0.00  0.00    +0.000 A 
ATOM     14  C   UNL     1       2.460   4.639  18.866  0.00  0.00    +0.000 A 
ENDBRANCH   3   5
BRANCH   2  15
ATOM     15  C   UNL     1       1.068   8.992  19.969  0.00  0.00    +0.000 A 
ATOM     16  C   UNL     1       1.247   9.739  18.786  0.00  0.00    +0.000 A 
ATOM     17  C   UNL     1       0.620  10.972  18.609  0.00  0.00    +0.000 A 
ATOM     18  C   UNL     1      -0.200  11.476  19.613  0.00  0.00    +0.000 A 
ATOM     19  C   UNL     1      -0.388  10.730  20.775  0.00  0.00    +0.000 A 
ATOM     20  F   UNL     1      -1.177  11.220  21.743  0.00  0.00    +0.000 F 
ATOM     21  C   UNL     1       0.234   9.499  20.966  0.00  0.00    +0.000 A 
ENDBRANCH   2  15
TORSDOF 2
ENDMDL
MODEL 9
REMARK VINA RESULT:      -7.0      4.439      7.600
REMARK  Name = 
REMARK  2 active torsions:
REMARK  status: ('A' for Active; 'I' for Inactive)
REMARK    1  A    between atoms: C_2  and  C_14
REMARK    2  A    between atoms: N_3  and  C_4
REMARK                            x       y       z     vdW  Elec       q    Type
REMARK                         _______ _______ _______ _____ _____    ______ ____
ROOT
ATOM      1  O   UNL     1       2.152   8.596  17.364  0.00  0.00    +0.000 OA
ATOM      2  C   UNL     1       2.036   8.142  18.503  0.00  0.00    +0.000 C 
ATOM      3  N   UNL     1       2.456   6.861  18.826  0.00  0.00    +0.000 N 
ATOM      4  H   UNL     1       2.160   6.416  19.683  0.00  0.00    +0.000 HD
ENDROOT
BRANCH   3   5
ATOM      5  C   UNL     1       2.964   6.001  17.759  0.00  0.00    +0.000 C 
ATOM      6  C   UNL     1       2.222   4.652  17.763  0.00  0.00    +0.000 C 
ATOM      7  C   UNL     1       2.942   3.617  18.618  0.00  0.00    +0.000 C 
ATOM      8  C   UNL     1       4.319   3.340  18.024  0.00  0.00    +0.000 C 
ATOM      9  C   UNL     1       5.108   4.607  17.810  0.00  0.00    +0.000 A 
ATOM     10  C   UNL     1       6.490   4.504  17.579  0.00  0.00    +0.000 A 
ATOM     11  C   UNL     1       7.255   5.640  17.327  0.00  0.00    +0.000 A 
ATOM     12  C   UNL     1       6.650   6.894  17.329  0.00  0.00    +0.000 A 
ATOM     13  C   UNL     1       5.274   7.007  17.541  0.00  0.00    +0.000 A 
ATOM     14  C   UNL     1       4.479   5.867  17.753  0.00  0.00    +0.000 A 
ENDBRANCH   3   5
BRANCH   2  15
ATOM     15  C   UNL     1       1.422   9.009  19.551  0.00  0.00    +0.000 A 
ATOM     16  C   UNL     1       1.035  10.310  19.168  0.00  0.00    +0.000 A 
ATOM     17  C   UNL     1       0.507  11.208  20.094  0.00  0.00    +0.000 A 
ATOM     18  C   UNL     1       0.353  10.817  21.420  0.00  0.00    +0.000 A 
ATOM     19  C   UNL     1       0.723   9.525  21.794  0.00  0.00    +0.000 A 
ATOM     20  F   UNL     1       0.576   9.152  23.074  0.00  0.00    +0.000 F 
ATOM     21  C   UNL     1       1.254   8.620  20.880  0.00  0.00    +0.000 A 
ENDBRANCH   2  15
TORSDOF 2
ENDMDL
