MODEL 1
REMARK VINA RESULT:      -7.4      0.000      0.000
REMARK  Name = 
REMARK  9 active torsions:
REMARK  status: ('A' for Active; 'I' for Inactive)
REMARK    1  A    between atoms: C_1  and  C_2
REMARK    2  A    between atoms: C_2  and  C_3
REMARK    3  A    between atoms: C_3  and  C_4
REMARK    4  A    between atoms: C_4  and  N_5
REMARK    5  A    between atoms: N_5  and  C_6
REMARK    6  A    between atoms: N_5  and  S_18
REMARK    7  A    between atoms: C_6  and  C_7
REMARK    8  A    between atoms: C_16  and  O_17
REMARK    9  A    between atoms: S_18  and  C_19
REMARK                            x       y       z     vdW  Elec       q    Type
REMARK                         _______ _______ _______ _____ _____    ______ ____
ROOT
ATOM      1  C   UNL     1       5.779   4.744  16.949  0.00  0.00    +0.000 A 
ATOM      2  C   UNL     1       5.308   4.010  15.857  0.00  0.00    +0.000 A 
ATOM      3  C   UNL     1       5.938   4.099  14.608  0.00  0.00    +0.000 A 
ATOM      4  C   UNL     1       5.466   3.388  13.490  0.00  0.00    +0.000 A 
ATOM      5  C   UNL     1       6.083   3.538  12.251  0.00  0.00    +0.000 A 
ATOM      6  C   UNL     1       7.161   4.408  12.122  0.00  0.00    +0.000 A 
ATOM      7  C   UNL     1       7.642   5.092  13.242  0.00  0.00    +0.000 A 
ATOM      8  C   UNL     1       7.064   4.938  14.495  0.00  0.00    +0.000 A 
ATOM      9  N   UNL     1       7.590   5.576  15.553  0.00  0.00    +0.000 NA
ATOM     10  C   UNL     1       6.948   5.452  16.729  0.00  0.00    +0.000 A 
ENDROOT
BRANCH  10  11
ATOM     11  O   UNL     1       7.613   6.049  17.747  0.00  0.00    +0.000 OA
ATOM     12  H   UNL     1       8.440   6.287  17.290  0.00  0.00    +0.000 HD
ENDBRANCH  10  11
BRANCH   1  13
ATOM     13  C   UNL     1       5.074   4.758  18.279  0.00  0.00    +0.000 C 
BRANCH  13  14
ATOM     14  N   UNL     1       3.732   4.081  18.352  0.00  0.00    +0.000 NA
BRANCH  14  15
ATOM     15  S   UNL     1       3.796   2.547  19.114  0.00  0.00    +0.000 S 
ATOM     16  C   UNL     1       2.346   2.560  20.150  0.00  0.00    +0.000 C 
ATOM     17  O   UNL     1       3.581   1.531  18.110  0.00  0.00    +0.000 OA
ATOM     18  O   UNL     1       4.960   2.528  19.976  0.00  0.00    +0.000 OA
ENDBRANCH  14  15
BRANCH  14  19
ATOM     19  C   UNL     1       2.583   4.938  18.763  0.00  0.00    +0.000 C 
BRANCH  19  20
ATOM     20  C   UNL     1       2.392   6.178  17.885  0.00  0.00    +0.000 C 
BRANCH  20  22
ATOM     21  C   UNL     1       2.204   8.686  17.775  0.00  0.00    +0.000 C 
ATOM     22  C   UNL     1       2.485   7.487  18.668  0.00  0.00    +0.000 C 
ENDBRANCH  20  22
ENDBRANCH  19  20
ENDBRANCH  14  19
ENDBRANCH  13  14
ENDBRANCH   1  13
TORSDOF 7
ENDMDL
MODEL 2
REMARK VINA RESULT:      -7.3      1.909      6.406
REMARK  Name = 
REMARK  9 active torsions:
REMARK  status: ('A' for Active; 'I' for Inactive)
REMARK    1  A    between atoms: C_1  and  C_2
REMARK    2  A    between atoms: C_2  and  C_3
REMARK    3  A    between atoms: C_3  and  C_4
REMARK    4  A    between atoms: C_4  and  N_5
REMARK    5  A    between atoms: N_5  and  C_6
REMARK    6  A    between atoms: N_5  and  S_18
REMARK    7  A    between atoms: C_6  and  C_7
REMARK    8  A    between atoms: C_16  and  O_17
REMARK    9  A    between atoms: S_18  and  C_19
REMARK                            x       y       z     vdW  Elec       q    Type
REMARK                         _______ _______ _______ _____ _____    ______ ____
ROOT
ATOM      1  C   UNL     1       3.694   5.285  18.142  0.00  0.00    +0.000 A 
ATOM      2  C   UNL     1       3.423   6.521  17.549  0.00  0.00    +0.000 A 
ATOM      3  C   UNL     1       2.688   7.499  18.235  0.00  0.00    +0.000 A 
ATOM      4  C   UNL     1       2.383   8.741  17.648  0.00  0.00    +0.000 A 
ATOM      5  C   UNL     1       1.605   9.669  18.335  0.00  0.00    +0.000 A 
ATOM      6  C   UNL     1       1.119   9.356  19.600  0.00  0.00    +0.000 A 
ATOM      7  C   UNL     1       1.447   8.130  20.188  0.00  0.00    +0.000 A 
ATOM      8  C   UNL     1       2.244   7.199  19.538  0.00  0.00    +0.000 A 
ATOM      9  N   UNL     1       2.576   6.056  20.160  0.00  0.00    +0.000 NA
ATOM     10  C   UNL     1       3.287   5.155  19.458  0.00  0.00    +0.000 A 
ENDROOT
BRANCH  10  11
ATOM     11  O   UNL     1       3.653   4.087  20.206  0.00  0.00    +0.000 OA
ATOM     12  H   UNL     1       4.163   3.586  19.544  0.00  0.00    +0.000 HD
ENDBRANCH  10  11
BRANCH   1  13
ATOM     13  C   UNL     1       4.390   4.171  17.406  0.00  0.00    +0.000 C 
BRANCH  13  14
ATOM     14  N   UNL     1       5.660   4.519  16.676  0.00  0.00    +0.000 NA
BRANCH  14  15
ATOM     15  S   UNL     1       6.988   4.778  17.728  0.00  0.00    +0.000 S 
ATOM     16  C   UNL     1       7.189   6.548  17.682  0.00  0.00    +0.000 C 
ATOM     17  O   UNL     1       6.577   4.441  19.072  0.00  0.00    +0.000 OA
ATOM     18  O   UNL     1       8.159   4.180  17.121  0.00  0.00    +0.000 OA
ENDBRANCH  14  15
BRANCH  14  19
ATOM     19  C   UNL     1       5.969   3.705  15.466  0.00  0.00    +0.000 C 
BRANCH  19  20
ATOM     20  C   UNL     1       5.641   4.409  14.147  0.00  0.00    +0.000 C 
BRANCH  20  22
ATOM     21  C   UNL     1       5.426   3.109  12.002  0.00  0.00    +0.000 C 
ATOM     22  C   UNL     1       6.383   3.817  12.949  0.00  0.00    +0.000 C 
ENDBRANCH  20  22
ENDBRANCH  19  20
ENDBRANCH  14  19
ENDBRANCH  13  14
ENDBRANCH   1  13
TORSDOF 7
ENDMDL
MODEL 3
REMARK VINA RESULT:      -7.3      1.292      1.499
REMARK  Name = 
REMARK  9 active torsions:
REMARK  status: ('A' for Active; 'I' for Inactive)
REMARK    1  A    between atoms: C_1  and  C_2
REMARK    2  A    between atoms: C_2  and  C_3
REMARK    3  A    between atoms: C_3  and  C_4
REMARK    4  A    between atoms: C_4  and  N_5
REMARK    5  A    between atoms: N_5  and  C_6
REMARK    6  A    between atoms: N_5  and  S_18
REMARK    7  A    between atoms: C_6  and  C_7
REMARK    8  A    between atoms: C_16  and  O_17
REMARK    9  A    between atoms: S_18  and  C_19
REMARK                            x       y       z     vdW  Elec       q    Type
REMARK                         _______ _______ _______ _____ _____    ______ ____
ROOT
ATOM      1  C   UNL     1       5.785   4.357  16.737  0.00  0.00    +0.000 A 
ATOM      2  C   UNL     1       5.473   3.703  15.542  0.00  0.00    +0.000 A 
ATOM      3  C   UNL     1       6.155   4.013  14.357  0.00  0.00    +0.000 A 
ATOM      4  C   UNL     1       5.840   3.385  13.138  0.00  0.00    +0.000 A 
ATOM      5  C   UNL     1       6.500   3.753  11.969  0.00  0.00    +0.000 A 
ATOM      6  C   UNL     1       7.463   4.756  12.010  0.00  0.00    +0.000 A 
ATOM      7  C   UNL     1       7.789   5.358  13.229  0.00  0.00    +0.000 A 
ATOM      8  C   UNL     1       7.168   4.990  14.414  0.00  0.00    +0.000 A 
ATOM      9  N   UNL     1       7.549   5.559  15.570  0.00  0.00    +0.000 NA
ATOM     10  C   UNL     1       6.864   5.222  16.677  0.00  0.00    +0.000 A 
ENDROOT
BRANCH  10  11
ATOM     11  O   UNL     1       7.389   5.772  17.798  0.00  0.00    +0.000 OA
ATOM     12  H   UNL     1       8.338   5.627  17.627  0.00  0.00    +0.000 HD
ENDBRANCH  10  11
BRANCH   1  13
ATOM     13  C   UNL     1       5.012   4.130  18.009  0.00  0.00    +0.000 C 
BRANCH  13  14
ATOM     14  N   UNL     1       3.643   4.748  18.100  0.00  0.00    +0.000 NA
BRANCH  14  15
ATOM     15  S   UNL     1       2.401   3.593  18.347  0.00  0.00    +0.000 S 
ATOM     16  C   UNL     1       3.234   2.046  18.049  0.00  0.00    +0.000 C 
ATOM     17  O   UNL     1       2.038   3.607  19.746  0.00  0.00    +0.000 OA
ATOM     18  O   UNL     1       1.411   3.775  17.305  0.00  0.00    +0.000 OA
ENDBRANCH  14  15
BRANCH  14  19
ATOM     19  C   UNL     1       3.529   5.979  18.934  0.00  0.00    +0.000 C 
BRANCH  19  20
ATOM     20  C   UNL     1       2.386   6.906  18.515  0.00  0.00    +0.000 C 
BRANCH  20  22
ATOM     21  C   UNL     1       1.857   9.279  17.860  0.00  0.00    +0.000 C 
ATOM     22  C   UNL     1       2.866   8.145  17.758  0.00  0.00    +0.000 C 
ENDBRANCH  20  22
ENDBRANCH  19  20
ENDBRANCH  14  19
ENDBRANCH  13  14
ENDBRANCH   1  13
TORSDOF 7
ENDMDL
MODEL 4
REMARK VINA RESULT:      -7.2      0.910      1.045
REMARK  Name = 
REMARK  9 active torsions:
REMARK  status: ('A' for Active; 'I' for Inactive)
REMARK    1  A    between atoms: C_1  and  C_2
REMARK    2  A    between atoms: C_2  and  C_3
REMARK    3  A    between atoms: C_3  and  C_4
REMARK    4  A    between atoms: C_4  and  N_5
REMARK    5  A    between atoms: N_5  and  C_6
REMARK    6  A    between atoms: N_5  and  S_18
REMARK    7  A    between atoms: C_6  and  C_7
REMARK    8  A    between atoms: C_16  and  O_17
REMARK    9  A    between atoms: S_18  and  C_19
REMARK                            x       y       z     vdW  Elec       q    Type
REMARK                         _______ _______ _______ _____ _____    ______ ____
ROOT
ATOM      1  C   UNL     1       5.743   4.869  16.787  0.00  0.00    +0.000 A 
ATOM      2  C   UNL     1       5.230   4.129  15.718  0.00  0.00    +0.000 A 
ATOM      3  C   UNL     1       5.863   4.145  14.467  0.00  0.00    +0.000 A 
ATOM      4  C   UNL     1       5.351   3.427  13.371  0.00  0.00    +0.000 A 
ATOM      5  C   UNL     1       5.973   3.507  12.128  0.00  0.00    +0.000 A 
ATOM      6  C   UNL     1       7.096   4.313  11.972  0.00  0.00    +0.000 A 
ATOM      7  C   UNL     1       7.615   5.004  13.071  0.00  0.00    +0.000 A 
ATOM      8  C   UNL     1       7.032   4.919  14.328  0.00  0.00    +0.000 A 
ATOM      9  N   UNL     1       7.593   5.559  15.367  0.00  0.00    +0.000 NA
ATOM     10  C   UNL     1       6.948   5.505  16.546  0.00  0.00    +0.000 A 
ENDROOT
BRANCH  10  11
ATOM     11  O   UNL     1       7.645   6.096  17.546  0.00  0.00    +0.000 OA
ATOM     12  H   UNL     1       6.983   6.050  18.260  0.00  0.00    +0.000 HD
ENDBRANCH  10  11
BRANCH   1  13
ATOM     13  C   UNL     1       5.041   4.961  18.117  0.00  0.00    +0.000 C 
BRANCH  13  14
ATOM     14  N   UNL     1       3.736   4.225  18.257  0.00  0.00    +0.000 NA
BRANCH  14  15
ATOM     15  S   UNL     1       3.820   2.913  19.357  0.00  0.00    +0.000 S 
ATOM     16  C   UNL     1       3.554   1.499  18.306  0.00  0.00    +0.000 C 
ATOM     17  O   UNL     1       5.176   2.818  19.847  0.00  0.00    +0.000 OA
ATOM     18  O   UNL     1       2.693   3.018  20.260  0.00  0.00    +0.000 OA
ENDBRANCH  14  15
BRANCH  14  19
ATOM     19  C   UNL     1       2.513   5.070  18.381  0.00  0.00    +0.000 C 
BRANCH  19  20
ATOM     20  C   UNL     1       2.746   6.387  19.127  0.00  0.00    +0.000 C 
BRANCH  20  22
ATOM     21  C   UNL     1       3.309   8.218  17.494  0.00  0.00    +0.000 C 
ATOM     22  C   UNL     1       2.224   7.606  18.368  0.00  0.00    +0.000 C 
ENDBRANCH  20  22
ENDBRANCH  19  20
ENDBRANCH  14  19
ENDBRANCH  13  14
ENDBRANCH   1  13
TORSDOF 7
ENDMDL
MODEL 5
REMARK VINA RESULT:      -7.2      1.068      1.395
REMARK  Name = 
REMARK  9 active torsions:
REMARK  status: ('A' for Active; 'I' for Inactive)
REMARK    1  A    between atoms: C_1  and  C_2
REMARK    2  A    between atoms: C_2  and  C_3
REMARK    3  A    between atoms: C_3  and  C_4
REMARK    4  A    between atoms: C_4  and  N_5
REMARK    5  A    between atoms: N_5  and  C_6
REMARK    6  A    between atoms: N_5  and  S_18
REMARK    7  A    between atoms: C_6  and  C_7
REMARK    8  A    between atoms: C_16  and  O_17
REMARK    9  A    between atoms: S_18  and  C_19
REMARK                            x       y       z     vdW  Elec       q    Type
REMARK                         _______ _______ _______ _____ _____    ______ ____
ROOT
ATOM      1  C   UNL     1       5.546   4.508  16.759  0.00  0.00    +0.000 A 
ATOM      2  C   UNL     1       5.238   3.849  15.565  0.00  0.00    +0.000 A 
ATOM      3  C   UNL     1       5.998   4.073  14.408  0.00  0.00    +0.000 A 
ATOM      4  C   UNL     1       5.691   3.440  13.189  0.00  0.00    +0.000 A 
ATOM      5  C   UNL     1       6.433   3.725  12.045  0.00  0.00    +0.000 A 
ATOM      6  C   UNL     1       7.469   4.649  12.111  0.00  0.00    +0.000 A 
ATOM      7  C   UNL     1       7.785   5.256  13.331  0.00  0.00    +0.000 A 
ATOM      8  C   UNL     1       7.082   4.969  14.492  0.00  0.00    +0.000 A 
ATOM      9  N   UNL     1       7.452   5.536  15.652  0.00  0.00    +0.000 NA
ATOM     10  C   UNL     1       6.692   5.283  16.732  0.00  0.00    +0.000 A 
ENDROOT
BRANCH  10  11
ATOM     11  O   UNL     1       7.206   5.820  17.865  0.00  0.00    +0.000 OA
ATOM     12  H   UNL     1       7.459   5.005  18.336  0.00  0.00    +0.000 HD
ENDBRANCH  10  11
BRANCH   1  13
ATOM     13  C   UNL     1       4.698   4.375  17.996  0.00  0.00    +0.000 C 
BRANCH  13  14
ATOM     14  N   UNL     1       3.344   3.738  17.836  0.00  0.00    +0.000 NA
BRANCH  14  15
ATOM     15  S   UNL     1       3.195   2.257  18.687  0.00  0.00    +0.000 S 
ATOM     16  C   UNL     1       4.181   2.539  20.145  0.00  0.00    +0.000 C 
ATOM     17  O   UNL     1       1.826   2.123  19.130  0.00  0.00    +0.000 OA
ATOM     18  O   UNL     1       3.843   1.227  17.902  0.00  0.00    +0.000 OA
ENDBRANCH  14  15
BRANCH  14  19
ATOM     19  C   UNL     1       2.168   4.648  17.952  0.00  0.00    +0.000 C 
BRANCH  19  20
ATOM     20  C   UNL     1       2.536   6.087  18.327  0.00  0.00    +0.000 C 
BRANCH  20  22
ATOM     21  C   UNL     1       1.578   5.314  20.523  0.00  0.00    +0.000 C 
ATOM     22  C   UNL     1       2.437   6.359  19.827  0.00  0.00    +0.000 C 
ENDBRANCH  20  22
ENDBRANCH  19  20
ENDBRANCH  14  19
ENDBRANCH  13  14
ENDBRANCH   1  13
TORSDOF 7
ENDMDL
MODEL 6
REMARK VINA RESULT:      -7.1      0.918      1.036
REMARK  Name = 
REMARK  9 active torsions:
REMARK  status: ('A' for Active; 'I' for Inactive)
REMARK    1  A    between atoms: C_1  and  C_2
REMARK    2  A    between atoms: C_2  and  C_3
REMARK    3  A    between atoms: C_3  and  C_4
REMARK    4  A    between atoms: C_4  and  N_5
REMARK    5  A    between atoms: N_5  and  C_6
REMARK    6  A    between atoms: N_5  and  S_18
REMARK    7  A    between atoms: C_6  and  C_7
REMARK    8  A    between atoms: C_16  and  O_17
REMARK    9  A    between atoms: S_18  and  C_19
REMARK                            x       y       z     vdW  Elec       q    Type
REMARK                         _______ _______ _______ _____ _____    ______ ____
ROOT
ATOM      1  C   UNL     1       5.603   4.683  16.752  0.00  0.00    +0.000 A 
ATOM      2  C   UNL     1       5.230   3.986  15.599  0.00  0.00    +0.000 A 
ATOM      3  C   UNL     1       5.966   4.119  14.413  0.00  0.00    +0.000 A 
ATOM      4  C   UNL     1       5.595   3.446  13.235  0.00  0.00    +0.000 A 
ATOM      5  C   UNL     1       6.316   3.640  12.059  0.00  0.00    +0.000 A 
ATOM      6  C   UNL     1       7.397   4.515  12.054  0.00  0.00    +0.000 A 
ATOM      7  C   UNL     1       7.776   5.161  13.234  0.00  0.00    +0.000 A 
ATOM      8  C   UNL     1       7.094   4.963  14.426  0.00  0.00    +0.000 A 
ATOM      9  N   UNL     1       7.523   5.565  15.547  0.00  0.00    +0.000 NA
ATOM     10  C   UNL     1       6.783   5.400  16.658  0.00  0.00    +0.000 A 
ENDROOT
BRANCH  10  11
ATOM     11  O   UNL     1       7.354   5.962  17.750  0.00  0.00    +0.000 OA
ATOM     12  H   UNL     1       7.163   5.273  18.412  0.00  0.00    +0.000 HD
ENDBRANCH  10  11
BRANCH   1  13
ATOM     13  C   UNL     1       4.785   4.650  18.016  0.00  0.00    +0.000 C 
BRANCH  13  14
ATOM     14  N   UNL     1       3.373   4.141  17.908  0.00  0.00    +0.000 NA
BRANCH  14  15
ATOM     15  S   UNL     1       3.109   2.701  18.800  0.00  0.00    +0.000 S 
ATOM     16  C   UNL     1       1.333   2.553  18.795  0.00  0.00    +0.000 C 
ATOM     17  O   UNL     1       3.622   1.590  18.031  0.00  0.00    +0.000 OA
ATOM     18  O   UNL     1       3.534   2.940  20.164  0.00  0.00    +0.000 OA
ENDBRANCH  14  15
BRANCH  14  19
ATOM     19  C   UNL     1       2.293   5.162  18.032  0.00  0.00    +0.000 C 
BRANCH  19  20
ATOM     20  C   UNL     1       2.679   6.369  18.889  0.00  0.00    +0.000 C 
BRANCH  20  22
ATOM     21  C   UNL     1       1.567   7.728  20.694  0.00  0.00    +0.000 C 
ATOM     22  C   UNL     1       2.046   6.345  20.280  0.00  0.00    +0.000 C 
ENDBRANCH  20  22
ENDBRANCH  19  20
ENDBRANCH  14  19
ENDBRANCH  13  14
ENDBRANCH   1  13
TORSDOF 7
ENDMDL
MODEL 7
REMARK VINA RESULT:      -7.1      3.041      6.370
REMARK  Name = 
REMARK  9 active torsions:
REMARK  status: ('A' for Active; 'I' for Inactive)
REMARK    1  A    between atoms: C_1  and  C_2
REMARK    2  A    between atoms: C_2  and  C_3
REMARK    3  A    between atoms: C_3  and  C_4
REMARK    4  A    between atoms: C_4  and  N_5
REMARK    5  A    between atoms: N_5  and  C_6
REMARK    6  A    between atoms: N_5  and  S_18
REMARK    7  A    between atoms: C_6  and  C_7
REMARK    8  A    between atoms: C_16  and  O_17
REMARK    9  A    between atoms: S_18  and  C_19
REMARK                            x       y       z     vdW  Elec       q    Type
REMARK                         _______ _______ _______ _____ _____    ______ ____
ROOT
ATOM      1  C   UNL     1       2.568   6.094  19.034  0.00  0.00    +0.000 A 
ATOM      2  C   UNL     1       2.575   7.243  18.238  0.00  0.00    +0.000 A 
ATOM      3  C   UNL     1       2.005   8.438  18.700  0.00  0.00    +0.000 A 
ATOM      4  C   UNL     1       1.979   9.600  17.907  0.00  0.00    +0.000 A 
ATOM      5  C   UNL     1       1.359  10.755  18.375  0.00  0.00    +0.000 A 
ATOM      6  C   UNL     1       0.753  10.750  19.626  0.00  0.00    +0.000 A 
ATOM      7  C   UNL     1       0.804   9.601  20.421  0.00  0.00    +0.000 A 
ATOM      8  C   UNL     1       1.441   8.445  19.991  0.00  0.00    +0.000 A 
ATOM      9  N   UNL     1       1.511   7.381  20.808  0.00  0.00    +0.000 NA
ATOM     10  C   UNL     1       2.072   6.262  20.315  0.00  0.00    +0.000 A 
ENDROOT
BRANCH  10  11
ATOM     11  O   UNL     1       2.182   5.284  21.247  0.00  0.00    +0.000 OA
ATOM     12  H   UNL     1       3.039   5.527  21.643  0.00  0.00    +0.000 HD
ENDBRANCH  10  11
BRANCH   1  13
ATOM     13  C   UNL     1       3.076   4.766  18.540  0.00  0.00    +0.000 C 
BRANCH  13  14
ATOM     14  N   UNL     1       4.173   4.111  19.336  0.00  0.00    +0.000 NA
BRANCH  14  15
ATOM     15  S   UNL     1       3.803   2.498  19.785  0.00  0.00    +0.000 S 
ATOM     16  C   UNL     1       3.447   1.723  18.221  0.00  0.00    +0.000 C 
ATOM     17  O   UNL     1       5.006   1.880  20.292  0.00  0.00    +0.000 OA
ATOM     18  O   UNL     1       2.579   2.523  20.560  0.00  0.00    +0.000 OA
ENDBRANCH  14  15
BRANCH  14  19
ATOM     19  C   UNL     1       5.563   4.319  18.839  0.00  0.00    +0.000 C 
BRANCH  19  20
ATOM     20  C   UNL     1       5.633   4.859  17.408  0.00  0.00    +0.000 C 
BRANCH  20  22
ATOM     21  C   UNL     1       7.549   6.174  18.376  0.00  0.00    +0.000 C 
ATOM     22  C   UNL     1       6.494   6.116  17.283  0.00  0.00    +0.000 C 
ENDBRANCH  20  22
ENDBRANCH  19  20
ENDBRANCH  14  19
ENDBRANCH  13  14
ENDBRANCH   1  13
TORSDOF 7
ENDMDL
MODEL 8
REMARK VINA RESULT:      -7.1      2.045      6.048
REMARK  Name = 
REMARK  9 active torsions:
REMARK  status: ('A' for Active; 'I' for Inactive)
REMARK    1  A    between atoms: C_1  and  C_2
REMARK    2  A    between atoms: C_2  and  C_3
REMARK    3  A    between atoms: C_3  and  C_4
REMARK    4  A    between atoms: C_4  and  N_5
REMARK    5  A    between atoms: N_5  and  C_6
REMARK    6  A    between atoms: N_5  and  S_18
REMARK    7  A    between atoms: C_6  and  C_7
REMARK    8  A    between atoms: C_16  and  O_17
REMARK    9  A    between atoms: S_18  and  C_19
REMARK                            x       y       z     vdW  Elec       q    Type
REMARK                         _______ _______ _______ _____ _____    ______ ____
ROOT
ATOM      1  C   UNL     1       4.048   5.575  17.249  0.00  0.00    +0.000 A 
ATOM      2  C   UNL     1       3.585   4.256  17.238  0.00  0.00    +0.000 A 
ATOM      3  C   UNL     1       2.599   3.836  18.142  0.00  0.00    +0.000 A 
ATOM      4  C   UNL     1       2.136   2.508  18.166  0.00  0.00    +0.000 A 
ATOM      5  C   UNL     1       1.195   2.110  19.111  0.00  0.00    +0.000 A 
ATOM      6  C   UNL     1       0.726   3.030  20.043  0.00  0.00    +0.000 A 
ATOM      7  C   UNL     1       1.171   4.355  19.999  0.00  0.00    +0.000 A 
ATOM      8  C   UNL     1       2.086   4.785  19.048  0.00  0.00    +0.000 A 
ATOM      9  N   UNL     1       2.447   6.078  19.010  0.00  0.00    +0.000 NA
ATOM     10  C   UNL     1       3.393   6.428  18.119  0.00  0.00    +0.000 A 
ENDROOT
BRANCH  10  11
ATOM     11  O   UNL     1       3.611   7.765  18.094  0.00  0.00    +0.000 OA
ATOM     12  H   UNL     1       4.585   7.775  18.134  0.00  0.00    +0.000 HD
ENDBRANCH  10  11
BRANCH   1  13
ATOM     13  C   UNL     1       5.175   6.043  16.366  0.00  0.00    +0.000 C 
BRANCH  13  14
ATOM     14  N   UNL     1       6.349   5.116  16.201  0.00  0.00    +0.000 NA
BRANCH  14  15
ATOM     15  S   UNL     1       7.197   4.843  17.666  0.00  0.00    +0.000 S 
ATOM     16  C   UNL     1       7.577   6.494  18.217  0.00  0.00    +0.000 C 
ATOM     17  O   UNL     1       6.275   4.285  18.628  0.00  0.00    +0.000 OA
ATOM     18  O   UNL     1       8.444   4.183  17.339  0.00  0.00    +0.000 OA
ENDBRANCH  14  15
BRANCH  14  19
ATOM     19  C   UNL     1       6.116   3.897  15.375  0.00  0.00    +0.000 C 
BRANCH  19  20
ATOM     20  C   UNL     1       5.504   4.189  14.002  0.00  0.00    +0.000 C 
BRANCH  20  22
ATOM     21  C   UNL     1       5.332   2.945  11.821  0.00  0.00    +0.000 C 
ATOM     22  C   UNL     1       6.276   3.543  12.852  0.00  0.00    +0.000 C 
ENDBRANCH  20  22
ENDBRANCH  19  20
ENDBRANCH  14  19
ENDBRANCH  13  14
ENDBRANCH   1  13
TORSDOF 7
ENDMDL
MODEL 9
REMARK VINA RESULT:      -7.1      2.848      3.737
REMARK  Name = 
REMARK  9 active torsions:
REMARK  status: ('A' for Active; 'I' for Inactive)
REMARK    1  A    between atoms: C_1  and  C_2
REMARK    2  A    between atoms: C_2  and  C_3
REMARK    3  A    between atoms: C_3  and  C_4
REMARK    4  A    between atoms: C_4  and  N_5
REMARK    5  A    between atoms: N_5  and  C_6
REMARK    6  A    between atoms: N_5  and  S_18
REMARK    7  A    between atoms: C_6  and  C_7
REMARK    8  A    between atoms: C_16  and  O_17
REMARK    9  A    between atoms: S_18  and  C_19
REMARK                            x       y       z     vdW  Elec       q    Type
REMARK                         _______ _______ _______ _____ _____    ______ ____
ROOT
ATOM      1  C   UNL     1       4.511   4.328  17.628  0.00  0.00    +0.000 A 
ATOM      2  C   UNL     1       5.022   5.466  16.996  0.00  0.00    +0.000 A 
ATOM      3  C   UNL     1       6.155   6.117  17.503  0.00  0.00    +0.000 A 
ATOM      4  C   UNL     1       6.672   7.278  16.898  0.00  0.00    +0.000 A 
ATOM      5  C   UNL     1       7.767   7.932  17.456  0.00  0.00    +0.000 A 
ATOM      6  C   UNL     1       8.339   7.439  18.624  0.00  0.00    +0.000 A 
ATOM      7  C   UNL     1       7.837   6.271  19.206  0.00  0.00    +0.000 A 
ATOM      8  C   UNL     1       6.765   5.583  18.654  0.00  0.00    +0.000 A 
ATOM      9  N   UNL     1       6.348   4.438  19.218  0.00  0.00    +0.000 NA
ATOM     10  C   UNL     1       5.260   3.851  18.689  0.00  0.00    +0.000 A 
ENDROOT
BRANCH  10  11
ATOM     11  O   UNL     1       4.983   2.656  19.265  0.00  0.00    +0.000 OA
ATOM     12  H   UNL     1       4.258   2.921  19.860  0.00  0.00    +0.000 HD
ENDBRANCH  10  11
BRANCH   1  13
ATOM     13  C   UNL     1       3.240   3.657  17.179  0.00  0.00    +0.000 C 
BRANCH  13  14
ATOM     14  N   UNL     1       2.015   3.869  18.027  0.00  0.00    +0.000 NA
BRANCH  14  15
ATOM     15  S   UNL     1       1.520   2.453  18.856  0.00  0.00    +0.000 S 
ATOM     16  C   UNL     1       1.429   2.998  20.550  0.00  0.00    +0.000 C 
ATOM     17  O   UNL     1       0.171   2.135  18.448  0.00  0.00    +0.000 OA
ATOM     18  O   UNL     1       2.591   1.483  18.757  0.00  0.00    +0.000 OA
ENDBRANCH  14  15
BRANCH  14  19
ATOM     19  C   UNL     1       1.987   5.116  18.844  0.00  0.00    +0.000 C 
BRANCH  19  20
ATOM     20  C   UNL     1       1.920   6.399  18.011  0.00  0.00    +0.000 C 
BRANCH  20  22
ATOM     21  C   UNL     1       1.939   7.569  20.240  0.00  0.00    +0.000 C 
ATOM     22  C   UNL     1       2.370   7.639  18.783  0.00  0.00    +0.000 C 
ENDBRANCH  20  22
ENDBRANCH  19  20
ENDBRANCH  14  19
ENDBRANCH  13  14
ENDBRANCH   1  13
TORSDOF 7
ENDMDL
