MODEL 1
REMARK VINA RESULT:      -6.7      0.000      0.000
REMARK  Name = 
REMARK  9 active torsions:
REMARK  status: ('A' for Active; 'I' for Inactive)
REMARK    1  A    between atoms: C_1  and  O_2
REMARK    2  A    between atoms: O_2  and  C_3
REMARK    3  A    between atoms: C_6  and  C_7
REMARK    4  A    between atoms: C_7  and  O_9
REMARK    5  A    between atoms: O_9  and  C_10
REMARK    6  A    between atoms: N_13  and  C_14
REMARK    7  A    between atoms: C_16  and  C_17
REMARK    8  A    between atoms: C_19  and  O_20
REMARK    9  A    between atoms: O_20  and  C_21
REMARK                            x       y       z     vdW  Elec       q    Type
REMARK                         _______ _______ _______ _____ _____    ______ ____
ROOT
ATOM      1  C   UNL     1       3.125   5.816  19.232  0.00  0.00    +0.000 C 
ATOM      2  O   UNL     1       2.429   4.819  19.393  0.00  0.00    +0.000 OA
ENDROOT
BRANCH   1   6
ATOM      3  C   UNL     1       1.096   9.579  18.811  0.00  0.00    +0.000 A 
ATOM      4  C   UNL     1       1.869   9.035  17.770  0.00  0.00    +0.000 A 
ATOM      5  C   UNL     1       2.561   7.838  17.937  0.00  0.00    +0.000 A 
ATOM      6  C   UNL     1       2.538   7.183  19.165  0.00  0.00    +0.000 A 
ATOM      7  C   UNL     1       1.899   7.794  20.247  0.00  0.00    +0.000 A 
ATOM      8  C   UNL     1       1.162   8.985  20.083  0.00  0.00    +0.000 A 
BRANCH   3  10
ATOM      9  C   UNL     1      -1.050  10.358  18.191  0.00  0.00    +0.000 C 
ATOM     10  O   UNL     1       0.289  10.666  18.594  0.00  0.00    +0.000 OA
ENDBRANCH   3  10
BRANCH   8  11
ATOM     11  O   UNL     1       0.584   9.373  21.259  0.00  0.00    +0.000 OA
ATOM     12  C   UNL     1      -0.486   8.630  21.817  0.00  0.00    +0.000 C 
ENDBRANCH   8  11
ENDBRANCH   1   6
BRANCH   1  13
ATOM     13  O   UNL     1       4.466   5.850  19.188  0.00  0.00    +0.000 OA
BRANCH  13  14
ATOM     14  C   UNL     1       5.228   5.097  18.217  0.00  0.00    +0.000 C 
ATOM     15  C   UNL     1       4.535   4.846  16.874  0.00  0.00    +0.000 C 
ATOM     16  C   UNL     1       5.333   3.809  16.073  0.00  0.00    +0.000 C 
ATOM     17  N   UNL     1       6.759   4.117  15.919  0.00  0.00    +0.000 NA
ATOM     18  C   UNL     1       7.024   5.015  14.803  0.00  0.00    +0.000 C 
ATOM     19  C   UNL     1       7.408   4.509  17.175  0.00  0.00    +0.000 C 
ATOM     20  C   UNL     1       6.681   5.566  18.031  0.00  0.00    +0.000 C 
ATOM     21  C   UNL     1       6.849   6.976  17.460  0.00  0.00    +0.000 C 
ENDBRANCH  13  14
ENDBRANCH   1  13
TORSDOF 5
ENDMDL
MODEL 2
REMARK VINA RESULT:      -6.7      1.649      2.886
REMARK  Name = 
REMARK  9 active torsions:
REMARK  status: ('A' for Active; 'I' for Inactive)
REMARK    1  A    between atoms: C_1  and  O_2
REMARK    2  A    between atoms: O_2  and  C_3
REMARK    3  A    between atoms: C_6  and  C_7
REMARK    4  A    between atoms: C_7  and  O_9
REMARK    5  A    between atoms: O_9  and  C_10
REMARK    6  A    between atoms: N_13  and  C_14
REMARK    7  A    between atoms: C_16  and  C_17
REMARK    8  A    between atoms: C_19  and  O_20
REMARK    9  A    between atoms: O_20  and  C_21
REMARK                            x       y       z     vdW  Elec       q    Type
REMARK                         _______ _______ _______ _____ _____    ______ ____
ROOT
ATOM      1  C   UNL     1       2.773   3.810  17.576  0.00  0.00    +0.000 C 
ATOM      2  O   UNL     1       2.025   3.294  16.753  0.00  0.00    +0.000 OA
ENDROOT
BRANCH   1   6
ATOM      3  C   UNL     1       1.961   7.167  20.132  0.00  0.00    +0.000 A 
ATOM      4  C   UNL     1       1.771   5.844  20.566  0.00  0.00    +0.000 A 
ATOM      5  C   UNL     1       1.990   4.767  19.711  0.00  0.00    +0.000 A 
ATOM      6  C   UNL     1       2.358   4.989  18.387  0.00  0.00    +0.000 A 
ATOM      7  C   UNL     1       2.401   6.300  17.907  0.00  0.00    +0.000 A 
ATOM      8  C   UNL     1       2.219   7.401  18.769  0.00  0.00    +0.000 A 
BRANCH   3  10
ATOM      9  C   UNL     1       0.609   8.459  21.581  0.00  0.00    +0.000 C 
ATOM     10  O   UNL     1       1.902   8.214  21.016  0.00  0.00    +0.000 OA
ENDBRANCH   3  10
BRANCH   8  11
ATOM     11  O   UNL     1       2.352   8.583  18.096  0.00  0.00    +0.000 OA
ATOM     12  C   UNL     1       1.242   9.450  17.937  0.00  0.00    +0.000 C 
ENDBRANCH   8  11
ENDBRANCH   1   6
BRANCH   1  13
ATOM     13  O   UNL     1       3.988   3.366  17.935  0.00  0.00    +0.000 OA
BRANCH  13  14
ATOM     14  C   UNL     1       5.207   3.944  17.415  0.00  0.00    +0.000 C 
ATOM     15  C   UNL     1       5.030   5.006  16.326  0.00  0.00    +0.000 C 
ATOM     16  C   UNL     1       6.390   5.308  15.681  0.00  0.00    +0.000 C 
ATOM     17  N   UNL     1       7.456   5.649  16.630  0.00  0.00    +0.000 NA
ATOM     18  C   UNL     1       7.449   7.057  17.004  0.00  0.00    +0.000 C 
ATOM     19  C   UNL     1       7.542   4.724  17.764  0.00  0.00    +0.000 C 
ATOM     20  C   UNL     1       6.220   4.385  18.484  0.00  0.00    +0.000 C 
ATOM     21  C   UNL     1       5.759   5.523  19.397  0.00  0.00    +0.000 C 
ENDBRANCH  13  14
ENDBRANCH   1  13
TORSDOF 5
ENDMDL
MODEL 3
REMARK VINA RESULT:      -6.6      2.271      4.337
REMARK  Name = 
REMARK  9 active torsions:
REMARK  status: ('A' for Active; 'I' for Inactive)
REMARK    1  A    between atoms: C_1  and  O_2
REMARK    2  A    between atoms: O_2  and  C_3
REMARK    3  A    between atoms: C_6  and  C_7
REMARK    4  A    between atoms: C_7  and  O_9
REMARK    5  A    between atoms: O_9  and  C_10
REMARK    6  A    between atoms: N_13  and  C_14
REMARK    7  A    between atoms: C_16  and  C_17
REMARK    8  A    between atoms: C_19  and  O_20
REMARK    9  A    between atoms: O_20  and  C_21
REMARK                            x       y       z     vdW  Elec       q    Type
REMARK                         _______ _______ _______ _____ _____    ______ ____
ROOT
ATOM      1  C   UNL     1       2.915   7.694  17.892  0.00  0.00    +0.000 C 
ATOM      2  O   UNL     1       2.089   8.546  17.582  0.00  0.00    +0.000 OA
ENDROOT
BRANCH   1   6
ATOM      3  C   UNL     1       1.406   4.303  20.054  0.00  0.00    +0.000 A 
ATOM      4  C   UNL     1       1.815   5.476  20.711  0.00  0.00    +0.000 A 
ATOM      5  C   UNL     1       2.349   6.550  20.002  0.00  0.00    +0.000 A 
ATOM      6  C   UNL     1       2.532   6.456  18.625  0.00  0.00    +0.000 A 
ATOM      7  C   UNL     1       2.271   5.240  17.989  0.00  0.00    +0.000 A 
ATOM      8  C   UNL     1       1.695   4.158  18.686  0.00  0.00    +0.000 A 
BRANCH   3  10
ATOM      9  C   UNL     1       1.536   2.547  21.635  0.00  0.00    +0.000 C 
ATOM     10  O   UNL     1       0.735   3.316  20.729  0.00  0.00    +0.000 OA
ENDBRANCH   3  10
BRANCH   8  11
ATOM     11  O   UNL     1       1.483   3.093  17.857  0.00  0.00    +0.000 OA
ATOM     12  C   UNL     1       2.470   2.087  17.709  0.00  0.00    +0.000 C 
ENDBRANCH   8  11
ENDBRANCH   1   6
BRANCH   1  13
ATOM     13  O   UNL     1       4.215   7.688  17.556  0.00  0.00    +0.000 OA
BRANCH  13  14
ATOM     14  C   UNL     1       4.874   6.510  17.038  0.00  0.00    +0.000 C 
ATOM     15  C   UNL     1       4.913   6.384  15.512  0.00  0.00    +0.000 C 
ATOM     16  C   UNL     1       5.376   4.972  15.128  0.00  0.00    +0.000 C 
ATOM     17  N   UNL     1       6.631   4.545  15.758  0.00  0.00    +0.000 NA
ATOM     18  C   UNL     1       7.810   5.004  15.036  0.00  0.00    +0.000 C 
ATOM     19  C   UNL     1       6.670   4.798  17.203  0.00  0.00    +0.000 C 
ATOM     20  C   UNL     1       6.241   6.204  17.672  0.00  0.00    +0.000 C 
ATOM     21  C   UNL     1       7.332   7.248  17.419  0.00  0.00    +0.000 C 
ENDBRANCH  13  14
ENDBRANCH   1  13
TORSDOF 5
ENDMDL
MODEL 4
REMARK VINA RESULT:      -6.6      2.387      4.609
REMARK  Name = 
REMARK  9 active torsions:
REMARK  status: ('A' for Active; 'I' for Inactive)
REMARK    1  A    between atoms: C_1  and  O_2
REMARK    2  A    between atoms: O_2  and  C_3
REMARK    3  A    between atoms: C_6  and  C_7
REMARK    4  A    between atoms: C_7  and  O_9
REMARK    5  A    between atoms: O_9  and  C_10
REMARK    6  A    between atoms: N_13  and  C_14
REMARK    7  A    between atoms: C_16  and  C_17
REMARK    8  A    between atoms: C_19  and  O_20
REMARK    9  A    between atoms: O_20  and  C_21
REMARK                            x       y       z     vdW  Elec       q    Type
REMARK                         _______ _______ _______ _____ _____    ______ ____
ROOT
ATOM      1  C   UNL     1       3.002   7.550  17.654  0.00  0.00    +0.000 C 
ATOM      2  O   UNL     1       2.702   8.697  17.964  0.00  0.00    +0.000 OA
ENDROOT
BRANCH   1   6
ATOM      3  C   UNL     1       1.439   4.373  20.087  0.00  0.00    +0.000 A 
ATOM      4  C   UNL     1       1.923   5.566  20.650  0.00  0.00    +0.000 A 
ATOM      5  C   UNL     1       2.473   6.568  19.853  0.00  0.00    +0.000 A 
ATOM      6  C   UNL     1       2.596   6.378  18.480  0.00  0.00    +0.000 A 
ATOM      7  C   UNL     1       2.259   5.138  17.934  0.00  0.00    +0.000 A 
ATOM      8  C   UNL     1       1.665   4.130  18.721  0.00  0.00    +0.000 A 
BRANCH   3  10
ATOM      9  C   UNL     1       1.574   2.576  21.620  0.00  0.00    +0.000 C 
ATOM     10  O   UNL     1       0.754   3.462  20.850  0.00  0.00    +0.000 OA
ENDBRANCH   3  10
BRANCH   8  11
ATOM     11  O   UNL     1       1.375   3.025  17.971  0.00  0.00    +0.000 OA
ATOM     12  C   UNL     1       2.335   1.997  17.800  0.00  0.00    +0.000 C 
ENDBRANCH   8  11
ENDBRANCH   1   6
BRANCH   1  13
ATOM     13  O   UNL     1       3.630   7.168  16.530  0.00  0.00    +0.000 OA
BRANCH  13  14
ATOM     14  C   UNL     1       5.032   6.819  16.508  0.00  0.00    +0.000 C 
ATOM     15  C   UNL     1       5.757   6.882  17.855  0.00  0.00    +0.000 C 
ATOM     16  C   UNL     1       7.271   6.770  17.627  0.00  0.00    +0.000 C 
ATOM     17  N   UNL     1       7.686   5.617  16.820  0.00  0.00    +0.000 NA
ATOM     18  C   UNL     1       7.830   4.400  17.609  0.00  0.00    +0.000 C 
ATOM     19  C   UNL     1       6.898   5.452  15.594  0.00  0.00    +0.000 C 
ATOM     20  C   UNL     1       5.364   5.528  15.740  0.00  0.00    +0.000 C 
ATOM     21  C   UNL     1       4.783   4.242  16.333  0.00  0.00    +0.000 C 
ENDBRANCH  13  14
ENDBRANCH   1  13
TORSDOF 5
ENDMDL
MODEL 5
REMARK VINA RESULT:      -6.6      2.193      3.869
REMARK  Name = 
REMARK  9 active torsions:
REMARK  status: ('A' for Active; 'I' for Inactive)
REMARK    1  A    between atoms: C_1  and  O_2
REMARK    2  A    between atoms: O_2  and  C_3
REMARK    3  A    between atoms: C_6  and  C_7
REMARK    4  A    between atoms: C_7  and  O_9
REMARK    5  A    between atoms: O_9  and  C_10
REMARK    6  A    between atoms: N_13  and  C_14
REMARK    7  A    between atoms: C_16  and  C_17
REMARK    8  A    between atoms: C_19  and  O_20
REMARK    9  A    between atoms: O_20  and  C_21
REMARK                            x       y       z     vdW  Elec       q    Type
REMARK                         _______ _______ _______ _____ _____    ______ ____
ROOT
ATOM      1  C   UNL     1       2.179   7.974  18.799  0.00  0.00    +0.000 C 
ATOM      2  O   UNL     1       2.168   8.228  17.599  0.00  0.00    +0.000 OA
ENDROOT
BRANCH   1   6
ATOM      3  C   UNL     1       0.270  10.371  21.810  0.00  0.00    +0.000 A 
ATOM      4  C   UNL     1       0.735   9.073  22.082  0.00  0.00    +0.000 A 
ATOM      5  C   UNL     1       1.308   8.288  21.084  0.00  0.00    +0.000 A 
ATOM      6  C   UNL     1       1.383   8.764  19.779  0.00  0.00    +0.000 A 
ATOM      7  C   UNL     1       0.787   9.989  19.469  0.00  0.00    +0.000 A 
ATOM      8  C   UNL     1       0.239  10.811  20.474  0.00  0.00    +0.000 A 
BRANCH   3  10
ATOM      9  C   UNL     1      -1.543  11.145  23.117  0.00  0.00    +0.000 C 
ATOM     10  O   UNL     1      -0.142  11.198  22.822  0.00  0.00    +0.000 OA
ENDBRANCH   3  10
BRANCH   8  11
ATOM     11  O   UNL     1      -0.243  11.977  19.951  0.00  0.00    +0.000 OA
ATOM     12  C   UNL     1      -1.548  12.037  19.403  0.00  0.00    +0.000 C 
ENDBRANCH   8  11
ENDBRANCH   1   6
BRANCH   1  13
ATOM     13  O   UNL     1       2.800   6.938  19.386  0.00  0.00    +0.000 OA
BRANCH  13  14
ATOM     14  C   UNL     1       3.104   5.715  18.677  0.00  0.00    +0.000 C 
ATOM     15  C   UNL     1       4.367   4.977  19.129  0.00  0.00    +0.000 C 
ATOM     16  C   UNL     1       4.708   3.879  18.113  0.00  0.00    +0.000 C 
ATOM     17  N   UNL     1       3.604   2.963  17.804  0.00  0.00    +0.000 NA
ATOM     18  C   UNL     1       3.486   1.877  18.768  0.00  0.00    +0.000 C 
ATOM     19  C   UNL     1       2.342   3.653  17.515  0.00  0.00    +0.000 C 
ATOM     20  C   UNL     1       1.913   4.758  18.503  0.00  0.00    +0.000 C 
ATOM     21  C   UNL     1       1.343   4.175  19.799  0.00  0.00    +0.000 C 
ENDBRANCH  13  14
ENDBRANCH   1  13
TORSDOF 5
ENDMDL
MODEL 6
REMARK VINA RESULT:      -6.5      2.468      3.939
REMARK  Name = 
REMARK  9 active torsions:
REMARK  status: ('A' for Active; 'I' for Inactive)
REMARK    1  A    between atoms: C_1  and  O_2
REMARK    2  A    between atoms: O_2  and  C_3
REMARK    3  A    between atoms: C_6  and  C_7
REMARK    4  A    between atoms: C_7  and  O_9
REMARK    5  A    between atoms: O_9  and  C_10
REMARK    6  A    between atoms: N_13  and  C_14
REMARK    7  A    between atoms: C_16  and  C_17
REMARK    8  A    between atoms: C_19  and  O_20
REMARK    9  A    between atoms: O_20  and  C_21
REMARK                            x       y       z     vdW  Elec       q    Type
REMARK                         _______ _______ _______ _____ _____    ______ ____
ROOT
ATOM      1  C   UNL     1       2.668   7.284  18.151  0.00  0.00    +0.000 C 
ATOM      2  O   UNL     1       3.653   7.717  17.564  0.00  0.00    +0.000 OA
ENDROOT
BRANCH   1   6
ATOM      3  C   UNL     1       0.815   9.790  21.108  0.00  0.00    +0.000 A 
ATOM      4  C   UNL     1       1.197   8.468  21.393  0.00  0.00    +0.000 A 
ATOM      5  C   UNL     1       1.752   7.650  20.412  0.00  0.00    +0.000 A 
ATOM      6  C   UNL     1       1.891   8.120  19.109  0.00  0.00    +0.000 A 
ATOM      7  C   UNL     1       1.375   9.376  18.782  0.00  0.00    +0.000 A 
ATOM      8  C   UNL     1       0.847  10.230  19.773  0.00  0.00    +0.000 A 
BRANCH   3  10
ATOM      9  C   UNL     1      -0.501  10.084  23.052  0.00  0.00    +0.000 C 
ATOM     10  O   UNL     1       0.422  10.641  22.109  0.00  0.00    +0.000 OA
ENDBRANCH   3  10
BRANCH   8  11
ATOM     11  O   UNL     1       0.448  11.421  19.236  0.00  0.00    +0.000 OA
ATOM     12  C   UNL     1      -0.900  11.624  18.852  0.00  0.00    +0.000 C 
ENDBRANCH   8  11
ENDBRANCH   1   6
BRANCH   1  13
ATOM     13  O   UNL     1       2.099   6.082  17.969  0.00  0.00    +0.000 OA
BRANCH  13  14
ATOM     14  C   UNL     1       2.789   4.846  18.266  0.00  0.00    +0.000 C 
ATOM     15  C   UNL     1       3.989   4.962  19.210  0.00  0.00    +0.000 C 
ATOM     16  C   UNL     1       4.777   3.645  19.199  0.00  0.00    +0.000 C 
ATOM     17  N   UNL     1       3.972   2.446  19.459  0.00  0.00    +0.000 NA
ATOM     18  C   UNL     1       3.786   2.190  20.881  0.00  0.00    +0.000 C 
ATOM     19  C   UNL     1       2.737   2.393  18.669  0.00  0.00    +0.000 C 
ATOM     20  C   UNL     1       1.872   3.671  18.647  0.00  0.00    +0.000 C 
ATOM     21  C   UNL     1       1.081   3.848  19.945  0.00  0.00    +0.000 C 
ENDBRANCH  13  14
ENDBRANCH   1  13
TORSDOF 5
ENDMDL
MODEL 7
REMARK VINA RESULT:      -6.4      1.003      1.801
REMARK  Name = 
REMARK  9 active torsions:
REMARK  status: ('A' for Active; 'I' for Inactive)
REMARK    1  A    between atoms: C_1  and  O_2
REMARK    2  A    between atoms: O_2  and  C_3
REMARK    3  A    between atoms: C_6  and  C_7
REMARK    4  A    between atoms: C_7  and  O_9
REMARK    5  A    between atoms: O_9  and  C_10
REMARK    6  A    between atoms: N_13  and  C_14
REMARK    7  A    between atoms: C_16  and  C_17
REMARK    8  A    between atoms: C_19  and  O_20
REMARK    9  A    between atoms: O_20  and  C_21
REMARK                            x       y       z     vdW  Elec       q    Type
REMARK                         _______ _______ _______ _____ _____    ______ ____
ROOT
ATOM      1  C   UNL     1       2.690   5.738  19.300  0.00  0.00    +0.000 C 
ATOM      2  O   UNL     1       1.893   4.809  19.240  0.00  0.00    +0.000 OA
ENDROOT
BRANCH   1   6
ATOM      3  C   UNL     1       1.015   9.692  19.450  0.00  0.00    +0.000 A 
ATOM      4  C   UNL     1       1.575   9.170  18.271  0.00  0.00    +0.000 A 
ATOM      5  C   UNL     1       2.159   7.906  18.249  0.00  0.00    +0.000 A 
ATOM      6  C   UNL     1       2.241   7.154  19.417  0.00  0.00    +0.000 A 
ATOM      7  C   UNL     1       1.826   7.727  20.622  0.00  0.00    +0.000 A 
ATOM      8  C   UNL     1       1.198   8.989  20.653  0.00  0.00    +0.000 A 
BRANCH   3  10
ATOM      9  C   UNL     1       1.077  12.051  19.616  0.00  0.00    +0.000 C 
ATOM     10  O   UNL     1       0.301  10.862  19.431  0.00  0.00    +0.000 OA
ENDBRANCH   3  10
BRANCH   8  11
ATOM     11  O   UNL     1       0.832   9.327  21.926  0.00  0.00    +0.000 OA
ATOM     12  C   UNL     1      -0.484   9.077  22.388  0.00  0.00    +0.000 C 
ENDBRANCH   8  11
ENDBRANCH   1   6
BRANCH   1  13
ATOM     13  O   UNL     1       4.027   5.636  19.363  0.00  0.00    +0.000 OA
BRANCH  13  14
ATOM     14  C   UNL     1       4.881   5.945  18.238  0.00  0.00    +0.000 C 
ATOM     15  C   UNL     1       6.375   5.678  18.441  0.00  0.00    +0.000 C 
ATOM     16  C   UNL     1       7.168   6.313  17.290  0.00  0.00    +0.000 C 
ATOM     17  N   UNL     1       6.708   5.939  15.948  0.00  0.00    +0.000 NA
ATOM     18  C   UNL     1       7.274   4.677  15.490  0.00  0.00    +0.000 C 
ATOM     19  C   UNL     1       5.255   6.045  15.782  0.00  0.00    +0.000 C 
ATOM     20  C   UNL     1       4.382   5.410  16.885  0.00  0.00    +0.000 C 
ATOM     21  C   UNL     1       4.325   3.886  16.761  0.00  0.00    +0.000 C 
ENDBRANCH  13  14
ENDBRANCH   1  13
TORSDOF 5
ENDMDL
MODEL 8
REMARK VINA RESULT:      -6.4      2.226      3.590
REMARK  Name = 
REMARK  9 active torsions:
REMARK  status: ('A' for Active; 'I' for Inactive)
REMARK    1  A    between atoms: C_1  and  O_2
REMARK    2  A    between atoms: O_2  and  C_3
REMARK    3  A    between atoms: C_6  and  C_7
REMARK    4  A    between atoms: C_7  and  O_9
REMARK    5  A    between atoms: O_9  and  C_10
REMARK    6  A    between atoms: N_13  and  C_14
REMARK    7  A    between atoms: C_16  and  C_17
REMARK    8  A    between atoms: C_19  and  O_20
REMARK    9  A    between atoms: O_20  and  C_21
REMARK                            x       y       z     vdW  Elec       q    Type
REMARK                         _______ _______ _______ _____ _____    ______ ____
ROOT
ATOM      1  C   UNL     1       2.628   7.378  18.208  0.00  0.00    +0.000 C 
ATOM      2  O   UNL     1       3.615   7.819  17.631  0.00  0.00    +0.000 OA
ENDROOT
BRANCH   1   6
ATOM      3  C   UNL     1       0.764   9.866  21.173  0.00  0.00    +0.000 A 
ATOM      4  C   UNL     1       1.214   8.569  21.473  0.00  0.00    +0.000 A 
ATOM      5  C   UNL     1       1.771   7.754  20.490  0.00  0.00    +0.000 A 
ATOM      6  C   UNL     1       1.847   8.200  19.174  0.00  0.00    +0.000 A 
ATOM      7  C   UNL     1       1.264   9.425  18.839  0.00  0.00    +0.000 A 
ATOM      8  C   UNL     1       0.732  10.276  19.828  0.00  0.00    +0.000 A 
BRANCH   3  10
ATOM      9  C   UNL     1      -0.669  10.221  23.021  0.00  0.00    +0.000 C 
ATOM     10  O   UNL     1       0.368  10.721  22.169  0.00  0.00    +0.000 OA
ENDBRANCH   3  10
BRANCH   8  11
ATOM     11  O   UNL     1       0.263  11.437  19.281  0.00  0.00    +0.000 OA
ATOM     12  C   UNL     1      -1.128  11.641  19.106  0.00  0.00    +0.000 C 
ENDBRANCH   8  11
ENDBRANCH   1   6
BRANCH   1  13
ATOM     13  O   UNL     1       2.059   6.178  18.006  0.00  0.00    +0.000 OA
BRANCH  13  14
ATOM     14  C   UNL     1       2.512   4.984  18.681  0.00  0.00    +0.000 C 
ATOM     15  C   UNL     1       1.563   3.783  18.625  0.00  0.00    +0.000 C 
ATOM     16  C   UNL     1       2.039   2.708  19.611  0.00  0.00    +0.000 C 
ATOM     17  N   UNL     1       3.446   2.318  19.460  0.00  0.00    +0.000 NA
ATOM     18  C   UNL     1       3.643   1.303  18.434  0.00  0.00    +0.000 C 
ATOM     19  C   UNL     1       4.358   3.462  19.360  0.00  0.00    +0.000 C 
ATOM     20  C   UNL     1       3.964   4.580  18.372  0.00  0.00    +0.000 C 
ATOM     21  C   UNL     1       4.241   4.181  16.920  0.00  0.00    +0.000 C 
ENDBRANCH  13  14
ENDBRANCH   1  13
TORSDOF 5
ENDMDL
MODEL 9
REMARK VINA RESULT:      -6.3      2.151      3.349
REMARK  Name = 
REMARK  9 active torsions:
REMARK  status: ('A' for Active; 'I' for Inactive)
REMARK    1  A    between atoms: C_1  and  O_2
REMARK    2  A    between atoms: O_2  and  C_3
REMARK    3  A    between atoms: C_6  and  C_7
REMARK    4  A    between atoms: C_7  and  O_9
REMARK    5  A    between atoms: O_9  and  C_10
REMARK    6  A    between atoms: N_13  and  C_14
REMARK    7  A    between atoms: C_16  and  C_17
REMARK    8  A    between atoms: C_19  and  O_20
REMARK    9  A    between atoms: O_20  and  C_21
REMARK                            x       y       z     vdW  Elec       q    Type
REMARK                         _______ _______ _______ _____ _____    ______ ____
ROOT
ATOM      1  C   UNL     1       2.364   8.111  18.374  0.00  0.00    +0.000 C 
ATOM      2  O   UNL     1       2.664   8.294  17.199  0.00  0.00    +0.000 OA
ENDROOT
BRANCH   1   6
ATOM      3  C   UNL     1      -0.448  10.764  20.247  0.00  0.00    +0.000 A 
ATOM      4  C   UNL     1       0.254  11.130  19.085  0.00  0.00    +0.000 A 
ATOM      5  C   UNL     1       1.199  10.280  18.516  0.00  0.00    +0.000 A 
ATOM      6  C   UNL     1       1.501   9.065  19.124  0.00  0.00    +0.000 A 
ATOM      7  C   UNL     1       0.921   8.762  20.359  0.00  0.00    +0.000 A 
ATOM      8  C   UNL     1      -0.066   9.594  20.927  0.00  0.00    +0.000 A 
BRANCH   3  10
ATOM      9  C   UNL     1      -2.086  12.394  19.740  0.00  0.00    +0.000 C 
ATOM     10  O   UNL     1      -1.488  11.528  20.711  0.00  0.00    +0.000 OA
ENDBRANCH   3  10
BRANCH   8  11
ATOM     11  O   UNL     1      -0.526   9.080  22.106  0.00  0.00    +0.000 OA
ATOM     12  C   UNL     1      -0.068   9.594  23.344  0.00  0.00    +0.000 C 
ENDBRANCH   8  11
ENDBRANCH   1   6
BRANCH   1  13
ATOM     13  O   UNL     1       2.668   7.032  19.113  0.00  0.00    +0.000 OA
BRANCH  13  14
ATOM     14  C   UNL     1       3.127   5.795  18.523  0.00  0.00    +0.000 C 
ATOM     15  C   UNL     1       4.362   5.163  19.172  0.00  0.00    +0.000 C 
ATOM     16  C   UNL     1       4.891   4.036  18.274  0.00  0.00    +0.000 C 
ATOM     17  N   UNL     1       3.887   3.037  17.889  0.00  0.00    +0.000 NA
ATOM     18  C   UNL     1       3.710   1.999  18.895  0.00  0.00    +0.000 C 
ATOM     19  C   UNL     1       2.635   3.629  17.405  0.00  0.00    +0.000 C 
ATOM     20  C   UNL     1       2.023   4.756  18.263  0.00  0.00    +0.000 C 
ATOM     21  C   UNL     1       1.328   4.208  19.511  0.00  0.00    +0.000 C 
ENDBRANCH  13  14
ENDBRANCH   1  13
TORSDOF 5
ENDMDL
