MODEL 1
REMARK VINA RESULT:      -8.6      0.000      0.000
REMARK  Name = 
REMARK  14 active torsions:
REMARK  status: ('A' for Active; 'I' for Inactive)
REMARK    1  A    between atoms: C_1  and  O_2
REMARK    2  A    between atoms: O_2  and  C_3
REMARK    3  A    between atoms: C_4  and  O_5
REMARK    4  A    between atoms: C_9  and  C_10
REMARK    5  A    between atoms: C_12  and  O_13
REMARK    6  A    between atoms: C_15  and  O_16
REMARK    7  A    between atoms: C_20  and  C_21
REMARK    8  A    between atoms: C_21  and  C_22
REMARK    9  A    between atoms: C_23  and  C_24
REMARK   10  A    between atoms: C_23  and  C_25
REMARK   11  A    between atoms: C_25  and  C_26
REMARK   12  A    between atoms: C_26  and  C_27
REMARK   13  A    between atoms: C_28  and  C_29
REMARK   14  A    between atoms: C_28  and  C_30
REMARK                            x       y       z     vdW  Elec       q    Type
REMARK                         _______ _______ _______ _____ _____    ______ ____
ROOT
ATOM      1  C   UNL     1       3.615   5.423  19.067  0.00  0.00    +0.000 A 
ATOM      2  C   UNL     1       2.707   5.390  20.153  0.00  0.00    +0.000 A 
ATOM      3  C   UNL     1       1.795   6.407  20.433  0.00  0.00    +0.000 A 
ATOM      4  C   UNL     1       1.850   7.493  19.574  0.00  0.00    +0.000 A 
ATOM      5  O   UNL     1       1.106   8.632  19.681  0.00  0.00    +0.000 OA
ATOM      6  C   UNL     1       1.490   9.464  18.666  0.00  0.00    +0.000 A 
ATOM      7  C   UNL     1       2.450   8.842  17.901  0.00  0.00    +0.000 A 
ATOM      8  C   UNL     1       2.718   7.584  18.496  0.00  0.00    +0.000 A 
ATOM      9  C   UNL     1       3.659   6.556  18.223  0.00  0.00    +0.000 A 
ENDROOT
BRANCH   6  10
ATOM     10  C   UNL     1       0.880  10.783  18.600  0.00  0.00    +0.000 A 
ATOM     11  C   UNL     1       1.648  11.954  18.639  0.00  0.00    +0.000 A 
ATOM     12  C   UNL     1       1.025  13.197  18.543  0.00  0.00    +0.000 A 
ATOM     13  C   UNL     1      -0.355  13.304  18.412  0.00  0.00    +0.000 A 
ATOM     14  C   UNL     1      -1.116  12.144  18.372  0.00  0.00    +0.000 A 
ATOM     15  C   UNL     1      -0.515  10.897  18.461  0.00  0.00    +0.000 A 
BRANCH  12  16
ATOM     16  O   UNL     1       1.750  14.354  18.568  0.00  0.00    +0.000 OA
ATOM     17  H   UNL     1       1.136  15.100  18.669  0.00  0.00    +0.000 HD
ENDBRANCH  12  16
BRANCH  14  18
ATOM     18  O   UNL     1      -2.472  12.180  18.238  0.00  0.00    +0.000 OA
ATOM     19  H   UNL     1      -2.687  12.605  17.388  0.00  0.00    +0.000 HD
ENDBRANCH  14  18
ENDBRANCH   6  10
BRANCH   1  21
ATOM     20  C   UNL     1       4.077   3.085  18.618  0.00  0.00    +0.000 C 
ATOM     21  O   UNL     1       4.497   4.368  19.067  0.00  0.00    +0.000 OA
ENDBRANCH   1  21
BRANCH   2  22
ATOM     22  O   UNL     1       2.729   4.335  21.036  0.00  0.00    +0.000 OA
ATOM     23  H   UNL     1       3.425   4.556  21.684  0.00  0.00    +0.000 HD
ENDBRANCH   2  22
BRANCH   9  24
ATOM     24  C   UNL     1       4.661   6.797  17.116  0.00  0.00    +0.000 C 
BRANCH  24  25
ATOM     25  C   UNL     1       4.844   5.578  16.250  0.00  0.00    +0.000 C 
ATOM     26  C   UNL     1       5.954   4.820  16.081  0.00  0.00    +0.000 C 
ATOM     27  C   UNL     1       7.263   5.127  16.750  0.00  0.00    +0.000 C 
BRANCH  26  28
ATOM     28  C   UNL     1       5.954   3.556  15.210  0.00  0.00    +0.000 C 
BRANCH  28  29
ATOM     29  C   UNL     1       6.252   3.819  13.726  0.00  0.00    +0.000 C 
BRANCH  29  30
ATOM     30  C   UNL     1       5.086   3.957  12.797  0.00  0.00    +0.000 C 
ATOM     31  C   UNL     1       4.882   3.107  11.768  0.00  0.00    +0.000 C 
ATOM     32  C   UNL     1       5.791   1.950  11.437  0.00  0.00    +0.000 C 
ATOM     33  C   UNL     1       3.698   3.249  10.853  0.00  0.00    +0.000 C 
ENDBRANCH  29  30
ENDBRANCH  28  29
ENDBRANCH  26  28
ENDBRANCH  24  25
ENDBRANCH   9  24
TORSDOF 10
ENDMDL
MODEL 2
REMARK VINA RESULT:      -8.5      3.214      9.781
REMARK  Name = 
REMARK  14 active torsions:
REMARK  status: ('A' for Active; 'I' for Inactive)
REMARK    1  A    between atoms: C_1  and  O_2
REMARK    2  A    between atoms: O_2  and  C_3
REMARK    3  A    between atoms: C_4  and  O_5
REMARK    4  A    between atoms: C_9  and  C_10
REMARK    5  A    between atoms: C_12  and  O_13
REMARK    6  A    between atoms: C_15  and  O_16
REMARK    7  A    between atoms: C_20  and  C_21
REMARK    8  A    between atoms: C_21  and  C_22
REMARK    9  A    between atoms: C_23  and  C_24
REMARK   10  A    between atoms: C_23  and  C_25
REMARK   11  A    between atoms: C_25  and  C_26
REMARK   12  A    between atoms: C_26  and  C_27
REMARK   13  A    between atoms: C_28  and  C_29
REMARK   14  A    between atoms: C_28  and  C_30
REMARK                            x       y       z     vdW  Elec       q    Type
REMARK                         _______ _______ _______ _____ _____    ______ ____
ROOT
ATOM      1  C   UNL     1      -0.094  10.559  21.135  0.00  0.00    +0.000 A 
ATOM      2  C   UNL     1       0.366   9.708  22.169  0.00  0.00    +0.000 A 
ATOM      3  C   UNL     1       1.207   8.616  21.960  0.00  0.00    +0.000 A 
ATOM      4  C   UNL     1       1.556   8.393  20.638  0.00  0.00    +0.000 A 
ATOM      5  O   UNL     1       2.312   7.354  20.178  0.00  0.00    +0.000 OA
ATOM      6  C   UNL     1       2.387   7.478  18.818  0.00  0.00    +0.000 A 
ATOM      7  C   UNL     1       1.708   8.608  18.422  0.00  0.00    +0.000 A 
ATOM      8  C   UNL     1       1.136   9.188  19.582  0.00  0.00    +0.000 A 
ATOM      9  C   UNL     1       0.265  10.289  19.794  0.00  0.00    +0.000 A 
ENDROOT
BRANCH   6  10
ATOM     10  C   UNL     1       3.096   6.445  18.078  0.00  0.00    +0.000 A 
ATOM     11  C   UNL     1       2.653   5.117  18.058  0.00  0.00    +0.000 A 
ATOM     12  C   UNL     1       3.346   4.165  17.312  0.00  0.00    +0.000 A 
ATOM     13  C   UNL     1       4.480   4.506  16.583  0.00  0.00    +0.000 A 
ATOM     14  C   UNL     1       4.918   5.822  16.601  0.00  0.00    +0.000 A 
ATOM     15  C   UNL     1       4.239   6.786  17.334  0.00  0.00    +0.000 A 
BRANCH  12  16
ATOM     16  O   UNL     1       2.932   2.865  17.266  0.00  0.00    +0.000 OA
ATOM     17  H   UNL     1       2.040   2.811  17.650  0.00  0.00    +0.000 HD
ENDBRANCH  12  16
BRANCH  14  18
ATOM     18  O   UNL     1       6.017   6.223  15.903  0.00  0.00    +0.000 OA
ATOM     19  H   UNL     1       6.689   5.519  15.954  0.00  0.00    +0.000 HD
ENDBRANCH  14  18
ENDBRANCH   6  10
BRANCH   1  21
ATOM     20  C   UNL     1      -0.601  12.830  21.818  0.00  0.00    +0.000 C 
ATOM     21  O   UNL     1      -1.008  11.490  21.566  0.00  0.00    +0.000 OA
ENDBRANCH   1  21
BRANCH   2  22
ATOM     22  O   UNL     1      -0.059   9.907  23.463  0.00  0.00    +0.000 OA
ATOM     23  H   UNL     1      -0.929   9.467  23.518  0.00  0.00    +0.000 HD
ENDBRANCH   2  22
BRANCH   9  24
ATOM     24  C   UNL     1      -0.256  11.017  18.576  0.00  0.00    +0.000 C 
BRANCH  24  25
ATOM     25  C   UNL     1      -1.582  10.467  18.118  0.00  0.00    +0.000 C 
ATOM     26  C   UNL     1      -2.823  10.969  18.325  0.00  0.00    +0.000 C 
ATOM     27  C   UNL     1      -3.078  12.212  19.129  0.00  0.00    +0.000 C 
BRANCH  26  28
ATOM     28  C   UNL     1      -4.077  10.321  17.722  0.00  0.00    +0.000 C 
BRANCH  28  29
ATOM     29  C   UNL     1      -5.374  11.100  17.988  0.00  0.00    +0.000 C 
BRANCH  29  30
ATOM     30  C   UNL     1      -6.424  10.438  18.825  0.00  0.00    +0.000 C 
ATOM     31  C   UNL     1      -6.848  10.962  19.995  0.00  0.00    +0.000 C 
ATOM     32  C   UNL     1      -6.317  12.245  20.586  0.00  0.00    +0.000 C 
ATOM     33  C   UNL     1      -7.914  10.294  20.816  0.00  0.00    +0.000 C 
ENDBRANCH  29  30
ENDBRANCH  28  29
ENDBRANCH  26  28
ENDBRANCH  24  25
ENDBRANCH   9  24
TORSDOF 10
ENDMDL
MODEL 3
REMARK VINA RESULT:      -8.5      2.536      4.804
REMARK  Name = 
REMARK  14 active torsions:
REMARK  status: ('A' for Active; 'I' for Inactive)
REMARK    1  A    between atoms: C_1  and  O_2
REMARK    2  A    between atoms: O_2  and  C_3
REMARK    3  A    between atoms: C_4  and  O_5
REMARK    4  A    between atoms: C_9  and  C_10
REMARK    5  A    between atoms: C_12  and  O_13
REMARK    6  A    between atoms: C_15  and  O_16
REMARK    7  A    between atoms: C_20  and  C_21
REMARK    8  A    between atoms: C_21  and  C_22
REMARK    9  A    between atoms: C_23  and  C_24
REMARK   10  A    between atoms: C_23  and  C_25
REMARK   11  A    between atoms: C_25  and  C_26
REMARK   12  A    between atoms: C_26  and  C_27
REMARK   13  A    between atoms: C_28  and  C_29
REMARK   14  A    between atoms: C_28  and  C_30
REMARK                            x       y       z     vdW  Elec       q    Type
REMARK                         _______ _______ _______ _____ _____    ______ ____
ROOT
ATOM      1  C   UNL     1       3.437   5.315  18.938  0.00  0.00    +0.000 A 
ATOM      2  C   UNL     1       2.674   5.387  20.128  0.00  0.00    +0.000 A 
ATOM      3  C   UNL     1       1.882   6.480  20.477  0.00  0.00    +0.000 A 
ATOM      4  C   UNL     1       1.908   7.532  19.575  0.00  0.00    +0.000 A 
ATOM      5  O   UNL     1       1.270   8.728  19.727  0.00  0.00    +0.000 OA
ATOM      6  C   UNL     1       1.583   9.496  18.640  0.00  0.00    +0.000 A 
ATOM      7  C   UNL     1       2.390   8.778  17.787  0.00  0.00    +0.000 A 
ATOM      8  C   UNL     1       2.638   7.522  18.395  0.00  0.00    +0.000 A 
ATOM      9  C   UNL     1       3.457   6.415  18.050  0.00  0.00    +0.000 A 
ENDROOT
BRANCH   6  10
ATOM     10  C   UNL     1       1.069  10.857  18.596  0.00  0.00    +0.000 A 
ATOM     11  C   UNL     1      -0.300  11.131  18.698  0.00  0.00    +0.000 A 
ATOM     12  C   UNL     1      -0.748  12.451  18.681  0.00  0.00    +0.000 A 
ATOM     13  C   UNL     1       0.142  13.513  18.558  0.00  0.00    +0.000 A 
ATOM     14  C   UNL     1       1.499  13.241  18.459  0.00  0.00    +0.000 A 
ATOM     15  C   UNL     1       1.965  11.934  18.479  0.00  0.00    +0.000 A 
BRANCH  12  16
ATOM     16  O   UNL     1      -2.075  12.749  18.789  0.00  0.00    +0.000 OA
ATOM     17  H   UNL     1      -2.220  13.645  18.442  0.00  0.00    +0.000 HD
ENDBRANCH  12  16
BRANCH  14  18
ATOM     18  O   UNL     1       2.424  14.235  18.345  0.00  0.00    +0.000 OA
ATOM     19  H   UNL     1       2.496  14.690  19.204  0.00  0.00    +0.000 HD
ENDBRANCH  14  18
ENDBRANCH   6  10
BRANCH   1  21
ATOM     20  C   UNL     1       3.880   3.119  18.008  0.00  0.00    +0.000 C 
ATOM     21  O   UNL     1       4.231   4.194  18.871  0.00  0.00    +0.000 OA
ENDBRANCH   1  21
BRANCH   2  22
ATOM     22  O   UNL     1       2.728   4.361  21.043  0.00  0.00    +0.000 OA
ATOM     23  H   UNL     1       1.932   4.469  21.598  0.00  0.00    +0.000 HD
ENDBRANCH   2  22
BRANCH   9  24
ATOM     24  C   UNL     1       4.327   6.542  16.819  0.00  0.00    +0.000 C 
BRANCH  24  25
ATOM     25  C   UNL     1       5.656   7.180  17.134  0.00  0.00    +0.000 C 
ATOM     26  C   UNL     1       6.868   6.589  17.259  0.00  0.00    +0.000 C 
ATOM     27  C   UNL     1       7.072   5.106  17.132  0.00  0.00    +0.000 C 
BRANCH  26  28
ATOM     28  C   UNL     1       8.147   7.398  17.512  0.00  0.00    +0.000 C 
BRANCH  28  29
ATOM     29  C   UNL     1       7.893   8.853  17.935  0.00  0.00    +0.000 C 
BRANCH  29  30
ATOM     30  C   UNL     1       8.847   9.471  18.909  0.00  0.00    +0.000 C 
ATOM     31  C   UNL     1       9.217  10.767  18.832  0.00  0.00    +0.000 C 
ATOM     32  C   UNL     1       8.729  11.721  17.770  0.00  0.00    +0.000 C 
ATOM     33  C   UNL     1      10.164  11.377  19.827  0.00  0.00    +0.000 C 
ENDBRANCH  29  30
ENDBRANCH  28  29
ENDBRANCH  26  28
ENDBRANCH  24  25
ENDBRANCH   9  24
TORSDOF 10
ENDMDL
MODEL 4
REMARK VINA RESULT:      -8.5      1.779      2.230
REMARK  Name = 
REMARK  14 active torsions:
REMARK  status: ('A' for Active; 'I' for Inactive)
REMARK    1  A    between atoms: C_1  and  O_2
REMARK    2  A    between atoms: O_2  and  C_3
REMARK    3  A    between atoms: C_4  and  O_5
REMARK    4  A    between atoms: C_9  and  C_10
REMARK    5  A    between atoms: C_12  and  O_13
REMARK    6  A    between atoms: C_15  and  O_16
REMARK    7  A    between atoms: C_20  and  C_21
REMARK    8  A    between atoms: C_21  and  C_22
REMARK    9  A    between atoms: C_23  and  C_24
REMARK   10  A    between atoms: C_23  and  C_25
REMARK   11  A    between atoms: C_25  and  C_26
REMARK   12  A    between atoms: C_26  and  C_27
REMARK   13  A    between atoms: C_28  and  C_29
REMARK   14  A    between atoms: C_28  and  C_30
REMARK                            x       y       z     vdW  Elec       q    Type
REMARK                         _______ _______ _______ _____ _____    ______ ____
ROOT
ATOM      1  C   UNL     1       3.480   4.219  19.139  0.00  0.00    +0.000 A 
ATOM      2  C   UNL     1       2.785   3.872  20.322  0.00  0.00    +0.000 A 
ATOM      3  C   UNL     1       1.962   4.750  21.026  0.00  0.00    +0.000 A 
ATOM      4  C   UNL     1       1.883   6.028  20.495  0.00  0.00    +0.000 A 
ATOM      5  O   UNL     1       1.197   7.075  21.038  0.00  0.00    +0.000 OA
ATOM      6  C   UNL     1       1.408   8.159  20.232  0.00  0.00    +0.000 A 
ATOM      7  C   UNL     1       2.197   7.792  19.166  0.00  0.00    +0.000 A 
ATOM      8  C   UNL     1       2.542   6.429  19.342  0.00  0.00    +0.000 A 
ATOM      9  C   UNL     1       3.393   5.538  18.637  0.00  0.00    +0.000 A 
ENDROOT
BRANCH   6  10
ATOM     10  C   UNL     1       0.825   9.431  20.634  0.00  0.00    +0.000 A 
ATOM     11  C   UNL     1       0.216   9.600  21.883  0.00  0.00    +0.000 A 
ATOM     12  C   UNL     1      -0.304  10.843  22.240  0.00  0.00    +0.000 A 
ATOM     13  C   UNL     1      -0.234  11.929  21.374  0.00  0.00    +0.000 A 
ATOM     14  C   UNL     1       0.371  11.762  20.137  0.00  0.00    +0.000 A 
ATOM     15  C   UNL     1       0.899  10.533  19.764  0.00  0.00    +0.000 A 
BRANCH  12  16
ATOM     16  O   UNL     1      -0.894  11.040  23.454  0.00  0.00    +0.000 OA
ATOM     17  H   UNL     1      -1.758  11.462  23.313  0.00  0.00    +0.000 HD
ENDBRANCH  12  16
BRANCH  14  18
ATOM     18  O   UNL     1       0.479  12.787  19.245  0.00  0.00    +0.000 OA
ATOM     19  H   UNL     1       1.111  13.439  19.600  0.00  0.00    +0.000 HD
ENDBRANCH  14  18
ENDBRANCH   6  10
BRANCH   1  21
ATOM     20  C   UNL     1       3.791   2.050  18.100  0.00  0.00    +0.000 C 
ATOM     21  O   UNL     1       4.323   3.228  18.695  0.00  0.00    +0.000 OA
ENDBRANCH   1  21
BRANCH   2  22
ATOM     22  O   UNL     1       2.943   2.619  20.870  0.00  0.00    +0.000 OA
ATOM     23  H   UNL     1       3.392   2.768  21.725  0.00  0.00    +0.000 HD
ENDBRANCH   2  22
BRANCH   9  24
ATOM     24  C   UNL     1       4.181   6.095  17.473  0.00  0.00    +0.000 C 
BRANCH  24  25
ATOM     25  C   UNL     1       4.605   5.013  16.513  0.00  0.00    +0.000 C 
ATOM     26  C   UNL     1       5.839   4.759  16.016  0.00  0.00    +0.000 C 
ATOM     27  C   UNL     1       7.040   5.599  16.343  0.00  0.00    +0.000 C 
BRANCH  26  28
ATOM     28  C   UNL     1       6.118   3.562  15.097  0.00  0.00    +0.000 C 
BRANCH  28  29
ATOM     29  C   UNL     1       6.334   3.942  13.624  0.00  0.00    +0.000 C 
BRANCH  29  30
ATOM     30  C   UNL     1       5.132   3.981  12.732  0.00  0.00    +0.000 C 
ATOM     31  C   UNL     1       4.931   3.072  11.754  0.00  0.00    +0.000 C 
ATOM     32  C   UNL     1       5.880   1.940  11.448  0.00  0.00    +0.000 C 
ATOM     33  C   UNL     1       3.712   3.115  10.878  0.00  0.00    +0.000 C 
ENDBRANCH  29  30
ENDBRANCH  28  29
ENDBRANCH  26  28
ENDBRANCH  24  25
ENDBRANCH   9  24
TORSDOF 10
ENDMDL
MODEL 5
REMARK VINA RESULT:      -8.4      2.447      4.484
REMARK  Name = 
REMARK  14 active torsions:
REMARK  status: ('A' for Active; 'I' for Inactive)
REMARK    1  A    between atoms: C_1  and  O_2
REMARK    2  A    between atoms: O_2  and  C_3
REMARK    3  A    between atoms: C_4  and  O_5
REMARK    4  A    between atoms: C_9  and  C_10
REMARK    5  A    between atoms: C_12  and  O_13
REMARK    6  A    between atoms: C_15  and  O_16
REMARK    7  A    between atoms: C_20  and  C_21
REMARK    8  A    between atoms: C_21  and  C_22
REMARK    9  A    between atoms: C_23  and  C_24
REMARK   10  A    between atoms: C_23  and  C_25
REMARK   11  A    between atoms: C_25  and  C_26
REMARK   12  A    between atoms: C_26  and  C_27
REMARK   13  A    between atoms: C_28  and  C_29
REMARK   14  A    between atoms: C_28  and  C_30
REMARK                            x       y       z     vdW  Elec       q    Type
REMARK                         _______ _______ _______ _____ _____    ______ ____
ROOT
ATOM      1  C   UNL     1       3.150   5.576  19.268  0.00  0.00    +0.000 A 
ATOM      2  C   UNL     1       2.398   5.685  20.462  0.00  0.00    +0.000 A 
ATOM      3  C   UNL     1       1.619   6.793  20.790  0.00  0.00    +0.000 A 
ATOM      4  C   UNL     1       1.645   7.822  19.862  0.00  0.00    +0.000 A 
ATOM      5  O   UNL     1       1.019   9.027  19.990  0.00  0.00    +0.000 OA
ATOM      6  C   UNL     1       1.329   9.765  18.881  0.00  0.00    +0.000 A 
ATOM      7  C   UNL     1       2.122   9.018  18.040  0.00  0.00    +0.000 A 
ATOM      8  C   UNL     1       2.364   7.776  18.677  0.00  0.00    +0.000 A 
ATOM      9  C   UNL     1       3.171   6.653  18.352  0.00  0.00    +0.000 A 
ENDROOT
BRANCH   6  10
ATOM     10  C   UNL     1       0.826  11.128  18.808  0.00  0.00    +0.000 A 
ATOM     11  C   UNL     1       1.681  12.220  18.617  0.00  0.00    +0.000 A 
ATOM     12  C   UNL     1       1.155  13.508  18.523  0.00  0.00    +0.000 A 
ATOM     13  C   UNL     1      -0.214  13.735  18.621  0.00  0.00    +0.000 A 
ATOM     14  C   UNL     1      -1.061  12.653  18.809  0.00  0.00    +0.000 A 
ATOM     15  C   UNL     1      -0.557  11.364  18.900  0.00  0.00    +0.000 A 
BRANCH  12  16
ATOM     16  O   UNL     1       1.964  14.589  18.326  0.00  0.00    +0.000 OA
ATOM     17  H   UNL     1       2.856  14.272  18.107  0.00  0.00    +0.000 HD
ENDBRANCH  12  16
BRANCH  14  18
ATOM     18  O   UNL     1      -2.412  12.808  18.905  0.00  0.00    +0.000 OA
ATOM     19  H   UNL     1      -2.669  13.597  18.395  0.00  0.00    +0.000 HD
ENDBRANCH  14  18
ENDBRANCH   6  10
BRANCH   1  21
ATOM     20  C   UNL     1       3.579   3.364  18.370  0.00  0.00    +0.000 C 
ATOM     21  O   UNL     1       3.933   4.447  19.222  0.00  0.00    +0.000 OA
ENDBRANCH   1  21
BRANCH   2  22
ATOM     22  O   UNL     1       2.452   4.681  21.402  0.00  0.00    +0.000 OA
ATOM     23  H   UNL     1       3.397   4.447  21.473  0.00  0.00    +0.000 HD
ENDBRANCH   2  22
BRANCH   9  24
ATOM     24  C   UNL     1       4.031   6.743  17.111  0.00  0.00    +0.000 C 
BRANCH  24  25
ATOM     25  C   UNL     1       5.441   7.162  17.434  0.00  0.00    +0.000 C 
ATOM     26  C   UNL     1       6.594   6.481  17.230  0.00  0.00    +0.000 C 
ATOM     27  C   UNL     1       6.633   5.097  16.649  0.00  0.00    +0.000 C 
BRANCH  26  28
ATOM     28  C   UNL     1       7.967   7.086  17.551  0.00  0.00    +0.000 C 
BRANCH  28  29
ATOM     29  C   UNL     1       7.954   8.614  17.713  0.00  0.00    +0.000 C 
BRANCH  29  30
ATOM     30  C   UNL     1       8.800   9.205  18.799  0.00  0.00    +0.000 C 
ATOM     31  C   UNL     1       9.087  10.523  18.850  0.00  0.00    +0.000 C 
ATOM     32  C   UNL     1       8.607  11.531  17.835  0.00  0.00    +0.000 C 
ATOM     33  C   UNL     1       9.924  11.104  19.955  0.00  0.00    +0.000 C 
ENDBRANCH  29  30
ENDBRANCH  28  29
ENDBRANCH  26  28
ENDBRANCH  24  25
ENDBRANCH   9  24
TORSDOF 10
ENDMDL
MODEL 6
REMARK VINA RESULT:      -8.3      2.056      2.681
REMARK  Name = 
REMARK  14 active torsions:
REMARK  status: ('A' for Active; 'I' for Inactive)
REMARK    1  A    between atoms: C_1  and  O_2
REMARK    2  A    between atoms: O_2  and  C_3
REMARK    3  A    between atoms: C_4  and  O_5
REMARK    4  A    between atoms: C_9  and  C_10
REMARK    5  A    between atoms: C_12  and  O_13
REMARK    6  A    between atoms: C_15  and  O_16
REMARK    7  A    between atoms: C_20  and  C_21
REMARK    8  A    between atoms: C_21  and  C_22
REMARK    9  A    between atoms: C_23  and  C_24
REMARK   10  A    between atoms: C_23  and  C_25
REMARK   11  A    between atoms: C_25  and  C_26
REMARK   12  A    between atoms: C_26  and  C_27
REMARK   13  A    between atoms: C_28  and  C_29
REMARK   14  A    between atoms: C_28  and  C_30
REMARK                            x       y       z     vdW  Elec       q    Type
REMARK                         _______ _______ _______ _____ _____    ______ ____
ROOT
ATOM      1  C   UNL     1       3.274   3.464  19.563  0.00  0.00    +0.000 A 
ATOM      2  C   UNL     1       2.024   3.118  20.131  0.00  0.00    +0.000 A 
ATOM      3  C   UNL     1       1.074   4.052  20.544  0.00  0.00    +0.000 A 
ATOM      4  C   UNL     1       1.449   5.376  20.383  0.00  0.00    +0.000 A 
ATOM      5  O   UNL     1       0.720   6.463  20.770  0.00  0.00    +0.000 OA
ATOM      6  C   UNL     1       1.458   7.574  20.469  0.00  0.00    +0.000 A 
ATOM      7  C   UNL     1       2.635   7.194  19.866  0.00  0.00    +0.000 A 
ATOM      8  C   UNL     1       2.659   5.777  19.837  0.00  0.00    +0.000 A 
ATOM      9  C   UNL     1       3.632   4.825  19.433  0.00  0.00    +0.000 A 
ENDROOT
BRANCH   6  10
ATOM     10  C   UNL     1       0.919   8.872  20.845  0.00  0.00    +0.000 A 
ATOM     11  C   UNL     1       1.018   9.985  20.000  0.00  0.00    +0.000 A 
ATOM     12  C   UNL     1       0.462  11.203  20.387  0.00  0.00    +0.000 A 
ATOM     13  C   UNL     1      -0.192  11.342  21.606  0.00  0.00    +0.000 A 
ATOM     14  C   UNL     1      -0.291  10.240  22.443  0.00  0.00    +0.000 A 
ATOM     15  C   UNL     1       0.251   9.017  22.074  0.00  0.00    +0.000 A 
BRANCH  12  16
ATOM     16  O   UNL     1       0.535  12.301  19.579  0.00  0.00    +0.000 OA
ATOM     17  H   UNL     1       1.435  12.664  19.632  0.00  0.00    +0.000 HD
ENDBRANCH  12  16
BRANCH  14  18
ATOM     18  O   UNL     1      -0.925  10.307  23.647  0.00  0.00    +0.000 OA
ATOM     19  H   UNL     1      -1.782  10.754  23.520  0.00  0.00    +0.000 HD
ENDBRANCH  14  18
ENDBRANCH   6  10
BRANCH   1  21
ATOM     20  C   UNL     1       4.882   1.859  20.410  0.00  0.00    +0.000 C 
ATOM     21  O   UNL     1       4.090   2.378  19.349  0.00  0.00    +0.000 OA
ENDBRANCH   1  21
BRANCH   2  22
ATOM     22  O   UNL     1       1.711   1.797  20.352  0.00  0.00    +0.000 OA
ATOM     23  H   UNL     1       0.958   1.609  19.759  0.00  0.00    +0.000 HD
ENDBRANCH   2  22
BRANCH   9  24
ATOM     24  C   UNL     1       4.977   5.346  18.979  0.00  0.00    +0.000 C 
BRANCH  24  25
ATOM     25  C   UNL     1       5.005   5.613  17.496  0.00  0.00    +0.000 C 
ATOM     26  C   UNL     1       5.960   5.282  16.595  0.00  0.00    +0.000 C 
ATOM     27  C   UNL     1       7.236   4.587  16.974  0.00  0.00    +0.000 C 
BRANCH  26  28
ATOM     28  C   UNL     1       5.799   5.565  15.095  0.00  0.00    +0.000 C 
BRANCH  28  29
ATOM     29  C   UNL     1       5.290   4.365  14.283  0.00  0.00    +0.000 C 
BRANCH  29  30
ATOM     30  C   UNL     1       6.271   3.655  13.402  0.00  0.00    +0.000 C 
ATOM     31  C   UNL     1       5.924   3.150  12.199  0.00  0.00    +0.000 C 
ATOM     32  C   UNL     1       4.533   3.233  11.619  0.00  0.00    +0.000 C 
ATOM     33  C   UNL     1       6.923   2.454  11.319  0.00  0.00    +0.000 C 
ENDBRANCH  29  30
ENDBRANCH  28  29
ENDBRANCH  26  28
ENDBRANCH  24  25
ENDBRANCH   9  24
TORSDOF 10
ENDMDL
MODEL 7
REMARK VINA RESULT:      -8.3      2.782      4.726
REMARK  Name = 
REMARK  14 active torsions:
REMARK  status: ('A' for Active; 'I' for Inactive)
REMARK    1  A    between atoms: C_1  and  O_2
REMARK    2  A    between atoms: O_2  and  C_3
REMARK    3  A    between atoms: C_4  and  O_5
REMARK    4  A    between atoms: C_9  and  C_10
REMARK    5  A    between atoms: C_12  and  O_13
REMARK    6  A    between atoms: C_15  and  O_16
REMARK    7  A    between atoms: C_20  and  C_21
REMARK    8  A    between atoms: C_21  and  C_22
REMARK    9  A    between atoms: C_23  and  C_24
REMARK   10  A    between atoms: C_23  and  C_25
REMARK   11  A    between atoms: C_25  and  C_26
REMARK   12  A    between atoms: C_26  and  C_27
REMARK   13  A    between atoms: C_28  and  C_29
REMARK   14  A    between atoms: C_28  and  C_30
REMARK                            x       y       z     vdW  Elec       q    Type
REMARK                         _______ _______ _______ _____ _____    ______ ____
ROOT
ATOM      1  C   UNL     1       3.500   4.928  18.948  0.00  0.00    +0.000 A 
ATOM      2  C   UNL     1       2.767   4.788  20.150  0.00  0.00    +0.000 A 
ATOM      3  C   UNL     1       1.922   5.771  20.664  0.00  0.00    +0.000 A 
ATOM      4  C   UNL     1       1.862   6.937  19.918  0.00  0.00    +0.000 A 
ATOM      5  O   UNL     1       1.160   8.060  20.248  0.00  0.00    +0.000 OA
ATOM      6  C   UNL     1       1.398   8.989  19.274  0.00  0.00    +0.000 A 
ATOM      7  C   UNL     1       2.222   8.447  18.314  0.00  0.00    +0.000 A 
ATOM      8  C   UNL     1       2.559   7.136  18.735  0.00  0.00    +0.000 A 
ATOM      9  C   UNL     1       3.432   6.140  18.222  0.00  0.00    +0.000 A 
ENDROOT
BRANCH   6  10
ATOM     10  C   UNL     1       0.805  10.308  19.431  0.00  0.00    +0.000 A 
ATOM     11  C   UNL     1       0.184  10.969  18.364  0.00  0.00    +0.000 A 
ATOM     12  C   UNL     1      -0.398  12.219  18.565  0.00  0.00    +0.000 A 
ATOM     13  C   UNL     1      -0.372  12.834  19.812  0.00  0.00    +0.000 A 
ATOM     14  C   UNL     1       0.242  12.179  20.869  0.00  0.00    +0.000 A 
ATOM     15  C   UNL     1       0.823  10.931  20.691  0.00  0.00    +0.000 A 
BRANCH  12  16
ATOM     16  O   UNL     1      -1.019  12.882  17.546  0.00  0.00    +0.000 OA
ATOM     17  H   UNL     1      -1.515  13.629  17.920  0.00  0.00    +0.000 HD
ENDBRANCH  12  16
BRANCH  14  18
ATOM     18  O   UNL     1       0.295  12.723  22.118  0.00  0.00    +0.000 OA
ATOM     19  H   UNL     1       0.546  13.661  22.035  0.00  0.00    +0.000 HD
ENDBRANCH  14  18
ENDBRANCH   6  10
BRANCH   1  21
ATOM     20  C   UNL     1       4.010   2.875  17.763  0.00  0.00    +0.000 C 
ATOM     21  O   UNL     1       4.356   3.879  18.709  0.00  0.00    +0.000 OA
ENDBRANCH   1  21
BRANCH   2  22
ATOM     22  O   UNL     1       2.906   3.650  20.911  0.00  0.00    +0.000 OA
ATOM     23  H   UNL     1       2.365   3.807  21.709  0.00  0.00    +0.000 HD
ENDBRANCH   2  22
BRANCH   9  24
ATOM     24  C   UNL     1       4.259   6.491  17.005  0.00  0.00    +0.000 C 
BRANCH  24  25
ATOM     25  C   UNL     1       5.556   7.159  17.381  0.00  0.00    +0.000 C 
ATOM     26  C   UNL     1       6.812   6.654  17.336  0.00  0.00    +0.000 C 
ATOM     27  C   UNL     1       7.110   5.244  16.913  0.00  0.00    +0.000 C 
BRANCH  26  28
ATOM     28  C   UNL     1       8.044   7.498  17.687  0.00  0.00    +0.000 C 
BRANCH  28  29
ATOM     29  C   UNL     1       7.725   8.968  18.002  0.00  0.00    +0.000 C 
BRANCH  29  30
ATOM     30  C   UNL     1       8.718  10.002  17.570  0.00  0.00    +0.000 C 
ATOM     31  C   UNL     1       9.464  10.698  18.455  0.00  0.00    +0.000 C 
ATOM     32  C   UNL     1       9.377  10.524  19.951  0.00  0.00    +0.000 C 
ATOM     33  C   UNL     1      10.467  11.722  18.006  0.00  0.00    +0.000 C 
ENDBRANCH  29  30
ENDBRANCH  28  29
ENDBRANCH  26  28
ENDBRANCH  24  25
ENDBRANCH   9  24
TORSDOF 10
ENDMDL
MODEL 8
REMARK VINA RESULT:      -8.3      2.674      4.612
REMARK  Name = 
REMARK  14 active torsions:
REMARK  status: ('A' for Active; 'I' for Inactive)
REMARK    1  A    between atoms: C_1  and  O_2
REMARK    2  A    between atoms: O_2  and  C_3
REMARK    3  A    between atoms: C_4  and  O_5
REMARK    4  A    between atoms: C_9  and  C_10
REMARK    5  A    between atoms: C_12  and  O_13
REMARK    6  A    between atoms: C_15  and  O_16
REMARK    7  A    between atoms: C_20  and  C_21
REMARK    8  A    between atoms: C_21  and  C_22
REMARK    9  A    between atoms: C_23  and  C_24
REMARK   10  A    between atoms: C_23  and  C_25
REMARK   11  A    between atoms: C_25  and  C_26
REMARK   12  A    between atoms: C_26  and  C_27
REMARK   13  A    between atoms: C_28  and  C_29
REMARK   14  A    between atoms: C_28  and  C_30
REMARK                            x       y       z     vdW  Elec       q    Type
REMARK                         _______ _______ _______ _____ _____    ______ ____
ROOT
ATOM      1  C   UNL     1       3.192   5.088  19.221  0.00  0.00    +0.000 A 
ATOM      2  C   UNL     1       2.450   5.010  20.424  0.00  0.00    +0.000 A 
ATOM      3  C   UNL     1       1.655   6.045  20.914  0.00  0.00    +0.000 A 
ATOM      4  C   UNL     1       1.656   7.198  20.144  0.00  0.00    +0.000 A 
ATOM      5  O   UNL     1       1.011   8.361  20.449  0.00  0.00    +0.000 OA
ATOM      6  C   UNL     1       1.299   9.256  19.456  0.00  0.00    +0.000 A 
ATOM      7  C   UNL     1       2.096   8.653  18.511  0.00  0.00    +0.000 A 
ATOM      8  C   UNL     1       2.365   7.336  18.960  0.00  0.00    +0.000 A 
ATOM      9  C   UNL     1       3.187   6.286  18.471  0.00  0.00    +0.000 A 
ENDROOT
BRANCH   6  10
ATOM     10  C   UNL     1       0.772  10.607  19.584  0.00  0.00    +0.000 A 
ATOM     11  C   UNL     1       0.988  11.376  20.733  0.00  0.00    +0.000 A 
ATOM     12  C   UNL     1       0.491  12.677  20.803  0.00  0.00    +0.000 A 
ATOM     13  C   UNL     1      -0.225  13.231  19.748  0.00  0.00    +0.000 A 
ATOM     14  C   UNL     1      -0.438  12.469  18.608  0.00  0.00    +0.000 A 
ATOM     15  C   UNL     1       0.053  11.174  18.518  0.00  0.00    +0.000 A 
BRANCH  12  16
ATOM     16  O   UNL     1       0.695  13.453  21.906  0.00  0.00    +0.000 OA
ATOM     17  H   UNL     1       0.486  14.375  21.679  0.00  0.00    +0.000 HD
ENDBRANCH  12  16
BRANCH  14  18
ATOM     18  O   UNL     1      -1.125  12.956  17.537  0.00  0.00    +0.000 OA
ATOM     19  H   UNL     1      -1.862  13.504  17.866  0.00  0.00    +0.000 HD
ENDBRANCH  14  18
ENDBRANCH   6  10
BRANCH   1  21
ATOM     20  C   UNL     1       3.631   3.018  18.036  0.00  0.00    +0.000 C 
ATOM     21  O   UNL     1       3.994   3.992  19.008  0.00  0.00    +0.000 OA
ENDBRANCH   1  21
BRANCH   2  22
ATOM     22  O   UNL     1       2.529   3.883  21.209  0.00  0.00    +0.000 OA
ATOM     23  H   UNL     1       3.397   3.486  21.002  0.00  0.00    +0.000 HD
ENDBRANCH   2  22
BRANCH   9  24
ATOM     24  C   UNL     1       4.034   6.569  17.250  0.00  0.00    +0.000 C 
BRANCH  24  25
ATOM     25  C   UNL     1       5.425   7.013  17.621  0.00  0.00    +0.000 C 
ATOM     26  C   UNL     1       6.611   6.566  17.144  0.00  0.00    +0.000 C 
ATOM     27  C   UNL     1       6.721   5.459  16.135  0.00  0.00    +0.000 C 
BRANCH  26  28
ATOM     28  C   UNL     1       7.949   7.180  17.578  0.00  0.00    +0.000 C 
BRANCH  28  29
ATOM     29  C   UNL     1       7.905   8.705  17.763  0.00  0.00    +0.000 C 
BRANCH  29  30
ATOM     30  C   UNL     1       8.894   9.319  18.705  0.00  0.00    +0.000 C 
ATOM     31  C   UNL     1       9.147  10.645  18.719  0.00  0.00    +0.000 C 
ATOM     32  C   UNL     1       8.482  11.640  17.800  0.00  0.00    +0.000 C 
ATOM     33  C   UNL     1      10.130  11.249  19.681  0.00  0.00    +0.000 C 
ENDBRANCH  29  30
ENDBRANCH  28  29
ENDBRANCH  26  28
ENDBRANCH  24  25
ENDBRANCH   9  24
TORSDOF 10
ENDMDL
MODEL 9
REMARK VINA RESULT:      -8.3      3.060      9.503
REMARK  Name = 
REMARK  14 active torsions:
REMARK  status: ('A' for Active; 'I' for Inactive)
REMARK    1  A    between atoms: C_1  and  O_2
REMARK    2  A    between atoms: O_2  and  C_3
REMARK    3  A    between atoms: C_4  and  O_5
REMARK    4  A    between atoms: C_9  and  C_10
REMARK    5  A    between atoms: C_12  and  O_13
REMARK    6  A    between atoms: C_15  and  O_16
REMARK    7  A    between atoms: C_20  and  C_21
REMARK    8  A    between atoms: C_21  and  C_22
REMARK    9  A    between atoms: C_23  and  C_24
REMARK   10  A    between atoms: C_23  and  C_25
REMARK   11  A    between atoms: C_25  and  C_26
REMARK   12  A    between atoms: C_26  and  C_27
REMARK   13  A    between atoms: C_28  and  C_29
REMARK   14  A    between atoms: C_28  and  C_30
REMARK                            x       y       z     vdW  Elec       q    Type
REMARK                         _______ _______ _______ _____ _____    ______ ____
ROOT
ATOM      1  C   UNL     1      -0.315  10.592  21.498  0.00  0.00    +0.000 A 
ATOM      2  C   UNL     1       0.118   9.650  22.461  0.00  0.00    +0.000 A 
ATOM      3  C   UNL     1       0.967   8.582  22.177  0.00  0.00    +0.000 A 
ATOM      4  C   UNL     1       1.354   8.482  20.850  0.00  0.00    +0.000 A 
ATOM      5  O   UNL     1       2.126   7.490  20.318  0.00  0.00    +0.000 OA
ATOM      6  C   UNL     1       2.239   7.739  18.978  0.00  0.00    +0.000 A 
ATOM      7  C   UNL     1       1.568   8.900  18.669  0.00  0.00    +0.000 A 
ATOM      8  C   UNL     1       0.962   9.370  19.860  0.00  0.00    +0.000 A 
ATOM      9  C   UNL     1       0.083  10.447  20.148  0.00  0.00    +0.000 A 
ENDROOT
BRANCH   6  10
ATOM     10  C   UNL     1       2.972   6.778  18.167  0.00  0.00    +0.000 A 
ATOM     11  C   UNL     1       4.096   7.150  17.419  0.00  0.00    +0.000 A 
ATOM     12  C   UNL     1       4.786   6.192  16.678  0.00  0.00    +0.000 A 
ATOM     13  C   UNL     1       4.377   4.863  16.660  0.00  0.00    +0.000 A 
ATOM     14  C   UNL     1       3.264   4.494  17.402  0.00  0.00    +0.000 A 
ATOM     15  C   UNL     1       2.566   5.432  18.150  0.00  0.00    +0.000 A 
BRANCH  12  16
ATOM     16  O   UNL     1       5.890   6.524  15.949  0.00  0.00    +0.000 OA
ATOM     17  H   UNL     1       6.004   7.489  15.982  0.00  0.00    +0.000 HD
ENDBRANCH  12  16
BRANCH  14  18
ATOM     18  O   UNL     1       2.816   3.207  17.433  0.00  0.00    +0.000 OA
ATOM     19  H   UNL     1       2.549   2.996  18.347  0.00  0.00    +0.000 HD
ENDBRANCH  14  18
ENDBRANCH   6  10
BRANCH   1  21
ATOM     20  C   UNL     1      -0.853  12.801  22.342  0.00  0.00    +0.000 C 
ATOM     21  O   UNL     1      -1.244  11.480  21.986  0.00  0.00    +0.000 OA
ENDBRANCH   1  21
BRANCH   2  22
ATOM     22  O   UNL     1      -0.345   9.729  23.755  0.00  0.00    +0.000 OA
ATOM     23  H   UNL     1      -0.859  10.558  23.794  0.00  0.00    +0.000 HD
ENDBRANCH   2  22
BRANCH   9  24
ATOM     24  C   UNL     1      -0.406  11.284  18.987  0.00  0.00    +0.000 C 
BRANCH  24  25
ATOM     25  C   UNL     1      -1.888  11.126  18.765  0.00  0.00    +0.000 C 
ATOM     26  C   UNL     1      -2.529  10.461  17.775  0.00  0.00    +0.000 C 
ATOM     27  C   UNL     1      -1.805   9.769  16.655  0.00  0.00    +0.000 C 
BRANCH  26  28
ATOM     28  C   UNL     1      -4.057  10.333  17.734  0.00  0.00    +0.000 C 
BRANCH  28  29
ATOM     29  C   UNL     1      -4.780  11.613  17.287  0.00  0.00    +0.000 C 
BRANCH  29  30
ATOM     30  C   UNL     1      -6.088  11.936  17.940  0.00  0.00    +0.000 C 
ATOM     31  C   UNL     1      -6.162  12.496  19.167  0.00  0.00    +0.000 C 
ATOM     32  C   UNL     1      -4.959  12.845  20.008  0.00  0.00    +0.000 C 
ATOM     33  C   UNL     1      -7.482  12.829  19.802  0.00  0.00    +0.000 C 
ENDBRANCH  29  30
ENDBRANCH  28  29
ENDBRANCH  26  28
ENDBRANCH  24  25
ENDBRANCH   9  24
TORSDOF 10
ENDMDL
