MODEL 1
REMARK VINA RESULT:      -6.5      0.000      0.000
REMARK  Name = 
REMARK  3 active torsions:
REMARK  status: ('A' for Active; 'I' for Inactive)
REMARK    1  A    between atoms: C_1  and  O_2
REMARK    2  A    between atoms: O_2  and  C_3
REMARK    3  A    between atoms: C_7  and  C_8
REMARK                            x       y       z     vdW  Elec       q    Type
REMARK                         _______ _______ _______ _____ _____    ______ ____
ROOT
ATOM      1  C   UNL     1       5.908   5.289  15.484  0.00  0.00    +0.000 A 
ATOM      2  C   UNL     1       5.543   4.060  16.033  0.00  0.00    +0.000 A 
ATOM      3  C   UNL     1       4.578   3.987  17.042  0.00  0.00    +0.000 A 
ATOM      4  C   UNL     1       3.963   5.165  17.509  0.00  0.00    +0.000 A 
ATOM      5  C   UNL     1       2.932   5.443  18.456  0.00  0.00    +0.000 A 
ATOM      6  C   UNL     1       2.744   6.810  18.471  0.00  0.00    +0.000 A 
ATOM      7  N   UNL     1       3.639   7.368  17.593  0.00  0.00    +0.000 N 
ATOM      8  C   UNL     1       4.375   6.386  16.968  0.00  0.00    +0.000 A 
ATOM      9  C   UNL     1       5.356   6.478  15.973  0.00  0.00    +0.000 A 
ATOM     10  H   UNL     1       3.728   8.357  17.404  0.00  0.00    +0.000 HD
ENDROOT
BRANCH   5  11
ATOM     11  C   UNL     1       2.170   4.431  19.260  0.00  0.00    +0.000 A 
ATOM     12  N   UNL     1       1.386   3.540  18.684  0.00  0.00    +0.000 NA
ATOM     13  C   UNL     1       0.784   2.744  19.634  0.00  0.00    +0.000 A 
ATOM     14  C   UNL     1       1.104   3.041  20.939  0.00  0.00    +0.000 A 
ATOM     15  S   UNL     1       2.223   4.338  20.980  0.00  0.00    +0.000 S 
ENDBRANCH   5  11
BRANCH   1  17
ATOM     16  C   UNL     1       6.798   4.401  13.491  0.00  0.00    +0.000 C 
ATOM     17  O   UNL     1       6.826   5.433  14.475  0.00  0.00    +0.000 OA
ENDBRANCH   1  17
TORSDOF 2
ENDMDL
MODEL 2
REMARK VINA RESULT:      -6.5      0.977      1.108
REMARK  Name = 
REMARK  3 active torsions:
REMARK  status: ('A' for Active; 'I' for Inactive)
REMARK    1  A    between atoms: C_1  and  O_2
REMARK    2  A    between atoms: O_2  and  C_3
REMARK    3  A    between atoms: C_7  and  C_8
REMARK                            x       y       z     vdW  Elec       q    Type
REMARK                         _______ _______ _______ _____ _____    ______ ____
ROOT
ATOM      1  C   UNL     1       5.777   5.217  15.524  0.00  0.00    +0.000 A 
ATOM      2  C   UNL     1       5.517   4.024  16.199  0.00  0.00    +0.000 A 
ATOM      3  C   UNL     1       4.639   3.997  17.287  0.00  0.00    +0.000 A 
ATOM      4  C   UNL     1       4.006   5.183  17.706  0.00  0.00    +0.000 A 
ATOM      5  C   UNL     1       3.039   5.496  18.708  0.00  0.00    +0.000 A 
ATOM      6  C   UNL     1       2.785   6.850  18.628  0.00  0.00    +0.000 A 
ATOM      7  N   UNL     1       3.580   7.369  17.636  0.00  0.00    +0.000 N 
ATOM      8  C   UNL     1       4.312   6.369  17.035  0.00  0.00    +0.000 A 
ATOM      9  C   UNL     1       5.207   6.418  15.958  0.00  0.00    +0.000 A 
ATOM     10  H   UNL     1       3.605   8.341  17.360  0.00  0.00    +0.000 HD
ENDROOT
BRANCH   5  11
ATOM     11  C   UNL     1       2.393   4.524  19.652  0.00  0.00    +0.000 A 
ATOM     12  N   UNL     1       2.639   4.554  20.947  0.00  0.00    +0.000 NA
ATOM     13  C   UNL     1       1.948   3.550  21.590  0.00  0.00    +0.000 A 
ATOM     14  C   UNL     1       1.183   2.746  20.775  0.00  0.00    +0.000 A 
ATOM     15  S   UNL     1       1.304   3.285  19.154  0.00  0.00    +0.000 S 
ENDBRANCH   5  11
BRANCH   1  17
ATOM     16  C   UNL     1       6.577   4.185  13.562  0.00  0.00    +0.000 C 
ATOM     17  O   UNL     1       6.605   5.313  14.435  0.00  0.00    +0.000 OA
ENDBRANCH   1  17
TORSDOF 2
ENDMDL
MODEL 3
REMARK VINA RESULT:      -6.5      1.923      2.019
REMARK  Name = 
REMARK  3 active torsions:
REMARK  status: ('A' for Active; 'I' for Inactive)
REMARK    1  A    between atoms: C_1  and  O_2
REMARK    2  A    between atoms: O_2  and  C_3
REMARK    3  A    between atoms: C_7  and  C_8
REMARK                            x       y       z     vdW  Elec       q    Type
REMARK                         _______ _______ _______ _____ _____    ______ ____
ROOT
ATOM      1  C   UNL     1       6.901   5.094  15.112  0.00  0.00    +0.000 A 
ATOM      2  C   UNL     1       5.798   4.268  14.892  0.00  0.00    +0.000 A 
ATOM      3  C   UNL     1       4.935   3.937  15.940  0.00  0.00    +0.000 A 
ATOM      4  C   UNL     1       5.174   4.444  17.232  0.00  0.00    +0.000 A 
ATOM      5  C   UNL     1       4.485   4.360  18.479  0.00  0.00    +0.000 A 
ATOM      6  C   UNL     1       5.207   5.092  19.399  0.00  0.00    +0.000 A 
ATOM      7  N   UNL     1       6.316   5.592  18.763  0.00  0.00    +0.000 N 
ATOM      8  C   UNL     1       6.306   5.238  17.432  0.00  0.00    +0.000 A 
ATOM      9  C   UNL     1       7.194   5.560  16.398  0.00  0.00    +0.000 A 
ATOM     10  H   UNL     1       7.027   6.165  19.197  0.00  0.00    +0.000 HD
ENDROOT
BRANCH   5  11
ATOM     11  C   UNL     1       3.196   3.635  18.733  0.00  0.00    +0.000 A 
ATOM     12  N   UNL     1       3.136   2.599  19.547  0.00  0.00    +0.000 NA
ATOM     13  C   UNL     1       1.853   2.097  19.591  0.00  0.00    +0.000 A 
ATOM     14  C   UNL     1       0.938   2.749  18.796  0.00  0.00    +0.000 A 
ATOM     15  S   UNL     1       1.699   4.056  17.992  0.00  0.00    +0.000 S 
ENDBRANCH   5  11
BRANCH   1  17
ATOM     16  C   UNL     1       7.548   4.874  12.856  0.00  0.00    +0.000 C 
ATOM     17  O   UNL     1       7.775   5.480  14.128  0.00  0.00    +0.000 OA
ENDBRANCH   1  17
TORSDOF 2
ENDMDL
MODEL 4
REMARK VINA RESULT:      -6.2      2.024      2.410
REMARK  Name = 
REMARK  3 active torsions:
REMARK  status: ('A' for Active; 'I' for Inactive)
REMARK    1  A    between atoms: C_1  and  O_2
REMARK    2  A    between atoms: O_2  and  C_3
REMARK    3  A    between atoms: C_7  and  C_8
REMARK                            x       y       z     vdW  Elec       q    Type
REMARK                         _______ _______ _______ _____ _____    ______ ____
ROOT
ATOM      1  C   UNL     1       6.484   4.530  14.639  0.00  0.00    +0.000 A 
ATOM      2  C   UNL     1       5.208   4.054  14.938  0.00  0.00    +0.000 A 
ATOM      3  C   UNL     1       4.727   4.075  16.250  0.00  0.00    +0.000 A 
ATOM      4  C   UNL     1       5.536   4.585  17.285  0.00  0.00    +0.000 A 
ATOM      5  C   UNL     1       5.346   4.803  18.683  0.00  0.00    +0.000 A 
ATOM      6  C   UNL     1       6.510   5.356  19.175  0.00  0.00    +0.000 A 
ATOM      7  N   UNL     1       7.402   5.455  18.136  0.00  0.00    +0.000 N 
ATOM      8  C   UNL     1       6.824   5.021  16.964  0.00  0.00    +0.000 A 
ATOM      9  C   UNL     1       7.329   4.986  15.658  0.00  0.00    +0.000 A 
ATOM     10  H   UNL     1       8.340   5.823  18.208  0.00  0.00    +0.000 HD
ENDROOT
BRANCH   5  11
ATOM     11  C   UNL     1       4.098   4.514  19.464  0.00  0.00    +0.000 A 
ATOM     12  N   UNL     1       3.314   5.482  19.895  0.00  0.00    +0.000 NA
ATOM     13  C   UNL     1       2.252   4.962  20.602  0.00  0.00    +0.000 A 
ATOM     14  C   UNL     1       2.239   3.590  20.719  0.00  0.00    +0.000 A 
ATOM     15  S   UNL     1       3.580   2.925  19.887  0.00  0.00    +0.000 S 
ENDBRANCH   5  11
BRANCH   1  17
ATOM     16  C   UNL     1       6.456   3.610  12.471  0.00  0.00    +0.000 C 
ATOM     17  O   UNL     1       7.011   4.565  13.374  0.00  0.00    +0.000 OA
ENDBRANCH   1  17
TORSDOF 2
ENDMDL
MODEL 5
REMARK VINA RESULT:      -6.2      3.293      5.800
REMARK  Name = 
REMARK  3 active torsions:
REMARK  status: ('A' for Active; 'I' for Inactive)
REMARK    1  A    between atoms: C_1  and  O_2
REMARK    2  A    between atoms: O_2  and  C_3
REMARK    3  A    between atoms: C_7  and  C_8
REMARK                            x       y       z     vdW  Elec       q    Type
REMARK                         _______ _______ _______ _____ _____    ______ ____
ROOT
ATOM      1  C   UNL     1       2.209   3.978  17.799  0.00  0.00    +0.000 A 
ATOM      2  C   UNL     1       2.574   5.137  18.486  0.00  0.00    +0.000 A 
ATOM      3  C   UNL     1       3.866   5.657  18.370  0.00  0.00    +0.000 A 
ATOM      4  C   UNL     1       4.811   5.010  17.551  0.00  0.00    +0.000 A 
ATOM      5  C   UNL     1       6.158   5.290  17.170  0.00  0.00    +0.000 A 
ATOM      6  C   UNL     1       6.562   4.286  16.315  0.00  0.00    +0.000 A 
ATOM      7  N   UNL     1       5.523   3.399  16.186  0.00  0.00    +0.000 N 
ATOM      8  C   UNL     1       4.430   3.832  16.905  0.00  0.00    +0.000 A 
ATOM      9  C   UNL     1       3.147   3.285  17.027  0.00  0.00    +0.000 A 
ATOM     10  H   UNL     1       5.539   2.561  15.621  0.00  0.00    +0.000 HD
ENDROOT
BRANCH   5  11
ATOM     11  C   UNL     1       6.972   6.477  17.597  0.00  0.00    +0.000 A 
ATOM     12  N   UNL     1       6.931   7.615  16.934  0.00  0.00    +0.000 NA
ATOM     13  C   UNL     1       7.781   8.536  17.508  0.00  0.00    +0.000 A 
ATOM     14  C   UNL     1       8.479   8.089  18.606  0.00  0.00    +0.000 A 
ATOM     15  S   UNL     1       8.032   6.472  18.955  0.00  0.00    +0.000 S 
ENDBRANCH   5  11
BRANCH   1  17
ATOM     16  C   UNL     1       0.773   2.439  18.858  0.00  0.00    +0.000 C 
ATOM     17  O   UNL     1       0.954   3.427  17.844  0.00  0.00    +0.000 OA
ENDBRANCH   1  17
TORSDOF 2
ENDMDL
MODEL 6
REMARK VINA RESULT:      -6.1      2.040      2.348
REMARK  Name = 
REMARK  3 active torsions:
REMARK  status: ('A' for Active; 'I' for Inactive)
REMARK    1  A    between atoms: C_1  and  O_2
REMARK    2  A    between atoms: O_2  and  C_3
REMARK    3  A    between atoms: C_7  and  C_8
REMARK                            x       y       z     vdW  Elec       q    Type
REMARK                         _______ _______ _______ _____ _____    ______ ____
ROOT
ATOM      1  C   UNL     1       6.463   4.419  14.793  0.00  0.00    +0.000 A 
ATOM      2  C   UNL     1       5.126   4.109  15.044  0.00  0.00    +0.000 A 
ATOM      3  C   UNL     1       4.595   4.227  16.332  0.00  0.00    +0.000 A 
ATOM      4  C   UNL     1       5.415   4.667  17.389  0.00  0.00    +0.000 A 
ATOM      5  C   UNL     1       5.194   4.949  18.771  0.00  0.00    +0.000 A 
ATOM      6  C   UNL     1       6.394   5.373  19.303  0.00  0.00    +0.000 A 
ATOM      7  N   UNL     1       7.335   5.332  18.304  0.00  0.00    +0.000 N 
ATOM      8  C   UNL     1       6.759   4.936  17.118  0.00  0.00    +0.000 A 
ATOM      9  C   UNL     1       7.311   4.800  15.838  0.00  0.00    +0.000 A 
ATOM     10  H   UNL     1       8.307   5.587  18.410  0.00  0.00    +0.000 HD
ENDROOT
BRANCH   5  11
ATOM     11  C   UNL     1       3.887   4.836  19.501  0.00  0.00    +0.000 A 
ATOM     12  N   UNL     1       3.531   3.721  20.108  0.00  0.00    +0.000 NA
ATOM     13  C   UNL     1       2.285   3.862  20.681  0.00  0.00    +0.000 A 
ATOM     14  C   UNL     1       1.689   5.089  20.495  0.00  0.00    +0.000 A 
ATOM     15  S   UNL     1       2.735   6.112  19.605  0.00  0.00    +0.000 S 
ENDBRANCH   5  11
BRANCH   1  17
ATOM     16  C   UNL     1       6.328   3.566  12.601  0.00  0.00    +0.000 C 
ATOM     17  O   UNL     1       7.043   4.352  13.552  0.00  0.00    +0.000 OA
ENDBRANCH   1  17
TORSDOF 2
ENDMDL
MODEL 7
REMARK VINA RESULT:      -6.1      3.516      6.267
REMARK  Name = 
REMARK  3 active torsions:
REMARK  status: ('A' for Active; 'I' for Inactive)
REMARK    1  A    between atoms: C_1  and  O_2
REMARK    2  A    between atoms: O_2  and  C_3
REMARK    3  A    between atoms: C_7  and  C_8
REMARK                            x       y       z     vdW  Elec       q    Type
REMARK                         _______ _______ _______ _____ _____    ______ ____
ROOT
ATOM      1  C   UNL     1       3.651   5.494  19.080  0.00  0.00    +0.000 A 
ATOM      2  C   UNL     1       3.377   5.705  17.728  0.00  0.00    +0.000 A 
ATOM      3  C   UNL     1       4.366   5.505  16.760  0.00  0.00    +0.000 A 
ATOM      4  C   UNL     1       5.652   5.082  17.149  0.00  0.00    +0.000 A 
ATOM      5  C   UNL     1       6.844   4.736  16.443  0.00  0.00    +0.000 A 
ATOM      6  C   UNL     1       7.788   4.374  17.381  0.00  0.00    +0.000 A 
ATOM      7  N   UNL     1       7.223   4.514  18.624  0.00  0.00    +0.000 N 
ATOM      8  C   UNL     1       5.909   4.914  18.512  0.00  0.00    +0.000 A 
ATOM      9  C   UNL     1       4.937   5.132  19.496  0.00  0.00    +0.000 A 
ATOM     10  H   UNL     1       7.688   4.321  19.500  0.00  0.00    +0.000 HD
ENDROOT
BRANCH   5  11
ATOM     11  C   UNL     1       7.023   4.736  14.953  0.00  0.00    +0.000 A 
ATOM     12  N   UNL     1       7.919   5.504  14.366  0.00  0.00    +0.000 NA
ATOM     13  C   UNL     1       7.871   5.339  12.999  0.00  0.00    +0.000 A 
ATOM     14  C   UNL     1       6.924   4.449  12.546  0.00  0.00    +0.000 A 
ATOM     15  S   UNL     1       6.087   3.768  13.877  0.00  0.00    +0.000 S 
ENDBRANCH   5  11
BRANCH   1  17
ATOM     16  C   UNL     1       1.825   4.548  20.230  0.00  0.00    +0.000 C 
ATOM     17  O   UNL     1       2.725   5.645  20.080  0.00  0.00    +0.000 OA
ENDBRANCH   1  17
TORSDOF 2
ENDMDL
MODEL 8
REMARK VINA RESULT:      -6.0      3.517      6.203
REMARK  Name = 
REMARK  3 active torsions:
REMARK  status: ('A' for Active; 'I' for Inactive)
REMARK    1  A    between atoms: C_1  and  O_2
REMARK    2  A    between atoms: O_2  and  C_3
REMARK    3  A    between atoms: C_7  and  C_8
REMARK                            x       y       z     vdW  Elec       q    Type
REMARK                         _______ _______ _______ _____ _____    ______ ____
ROOT
ATOM      1  C   UNL     1       3.150   4.113  19.012  0.00  0.00    +0.000 A 
ATOM      2  C   UNL     1       2.913   4.169  17.639  0.00  0.00    +0.000 A 
ATOM      3  C   UNL     1       3.968   4.345  16.739  0.00  0.00    +0.000 A 
ATOM      4  C   UNL     1       5.286   4.464  17.220  0.00  0.00    +0.000 A 
ATOM      5  C   UNL     1       6.566   4.591  16.600  0.00  0.00    +0.000 A 
ATOM      6  C   UNL     1       7.508   4.646  17.606  0.00  0.00    +0.000 A 
ATOM      7  N   UNL     1       6.846   4.585  18.807  0.00  0.00    +0.000 N 
ATOM      8  C   UNL     1       5.491   4.442  18.601  0.00  0.00    +0.000 A 
ATOM      9  C   UNL     1       4.443   4.289  19.517  0.00  0.00    +0.000 A 
ATOM     10  H   UNL     1       7.286   4.609  19.716  0.00  0.00    +0.000 HD
ENDROOT
BRANCH   5  11
ATOM     11  C   UNL     1       6.837   4.624  15.124  0.00  0.00    +0.000 A 
ATOM     12  N   UNL     1       7.794   5.375  14.615  0.00  0.00    +0.000 NA
ATOM     13  C   UNL     1       7.825   5.249  13.243  0.00  0.00    +0.000 A 
ATOM     14  C   UNL     1       6.876   4.407  12.708  0.00  0.00    +0.000 A 
ATOM     15  S   UNL     1       5.936   3.721  13.965  0.00  0.00    +0.000 S 
ENDBRANCH   5  11
BRANCH   1  17
ATOM     16  C   UNL     1       2.084   2.584  20.454  0.00  0.00    +0.000 C 
ATOM     17  O   UNL     1       2.169   3.916  19.950  0.00  0.00    +0.000 OA
ENDBRANCH   1  17
TORSDOF 2
ENDMDL
MODEL 9
REMARK VINA RESULT:      -5.9      3.715      6.006
REMARK  Name = 
REMARK  3 active torsions:
REMARK  status: ('A' for Active; 'I' for Inactive)
REMARK    1  A    between atoms: C_1  and  O_2
REMARK    2  A    between atoms: O_2  and  C_3
REMARK    3  A    between atoms: C_7  and  C_8
REMARK                            x       y       z     vdW  Elec       q    Type
REMARK                         _______ _______ _______ _____ _____    ______ ____
ROOT
ATOM      1  C   UNL     1       0.994   9.596  19.231  0.00  0.00    +0.000 A 
ATOM      2  C   UNL     1       1.649   9.538  18.001  0.00  0.00    +0.000 A 
ATOM      3  C   UNL     1       2.482   8.460  17.686  0.00  0.00    +0.000 A 
ATOM      4  C   UNL     1       2.661   7.418  18.617  0.00  0.00    +0.000 A 
ATOM      5  C   UNL     1       3.369   6.179  18.603  0.00  0.00    +0.000 A 
ATOM      6  C   UNL     1       3.152   5.565  19.819  0.00  0.00    +0.000 A 
ATOM      7  N   UNL     1       2.363   6.396  20.575  0.00  0.00    +0.000 N 
ATOM      8  C   UNL     1       2.022   7.520  19.856  0.00  0.00    +0.000 A 
ATOM      9  C   UNL     1       1.203   8.604  20.195  0.00  0.00    +0.000 A 
ATOM     10  H   UNL     1       2.048   6.202  21.515  0.00  0.00    +0.000 HD
ENDROOT
BRANCH   5  11
ATOM     11  C   UNL     1       4.175   5.631  17.461  0.00  0.00    +0.000 A 
ATOM     12  N   UNL     1       4.051   4.379  17.067  0.00  0.00    +0.000 NA
ATOM     13  C   UNL     1       4.911   4.116  16.023  0.00  0.00    +0.000 A 
ATOM     14  C   UNL     1       5.701   5.174  15.631  0.00  0.00    +0.000 A 
ATOM     15  S   UNL     1       5.331   6.554  16.577  0.00  0.00    +0.000 S 
ENDBRANCH   5  11
BRANCH   1  17
ATOM     16  C   UNL     1      -1.157  10.533  19.016  0.00  0.00    +0.000 C 
ATOM     17  O   UNL     1       0.144  10.608  19.597  0.00  0.00    +0.000 OA
ENDBRANCH   1  17
TORSDOF 2
ENDMDL
