MODEL 1
REMARK VINA RESULT:      -6.7      0.000      0.000
REMARK  Name = 
REMARK  16 active torsions:
REMARK  status: ('A' for Active; 'I' for Inactive)
REMARK    1  A    between atoms: C_1  and  C_2
REMARK    2  A    between atoms: N_4  and  CA_5
REMARK    3  A    between atoms: CA_5  and  CB_6
REMARK    4  A    between atoms: CA_5  and  C_25
REMARK    5  A    between atoms: CB_6  and  SG_7
REMARK    6  A    between atoms: SG_7  and  C_8
REMARK    7  A    between atoms: C_8  and  C_9
REMARK    8  A    between atoms: C_9  and  C_10
REMARK    9  A    between atoms: C_10  and  C_11
REMARK   10  A    between atoms: C_11  and  C_12
REMARK   11  A    between atoms: CA_13  and  N_14
REMARK   12  A    between atoms: CA_13  and  C_22
REMARK   13  A    between atoms: C_15  and  C_17
REMARK   14  A    between atoms: C_19  and  C_20
REMARK   15  A    between atoms: C_19  and  C_21
REMARK   16  A    between atoms: C_22  and  OXT_24
REMARK                            x       y       z     vdW  Elec       q    Type
REMARK                         _______ _______ _______ _____ _____    ______ ____
ROOT
ATOM      1  C   UNL     1       1.671   9.817  18.229  0.00  0.00    +0.000 C 
ENDROOT
BRANCH   1   2
ATOM      2  C   UNL     1       1.136   9.929  19.602  0.00  0.00    +0.000 C 
ATOM      3  CA  UNL     1      -0.141  10.243  19.899  0.00  0.00    +0.000 C 
BRANCH   3   4
ATOM      4  N   UNL     1      -1.206  10.439  19.010  0.00  0.00    +0.000 N 
ATOM      5  C   UNL     1      -1.533  11.578  18.253  0.00  0.00    +0.000 C 
ATOM      6  O   UNL     1      -0.905  12.606  18.163  0.00  0.00    +0.000 OA
ATOM      7  H   UNL     1      -1.865   9.667  18.964  0.00  0.00    +0.000 HD
BRANCH   5   8
ATOM      8  C   UNL     1      -2.800  11.413  17.468  0.00  0.00    +0.000 C 
ATOM      9  C   UNL     1      -3.636  10.196  17.808  0.00  0.00    +0.000 C 
ATOM     10  C   UNL     1      -4.253  11.567  17.944  0.00  0.00    +0.000 C 
ATOM     11  C   UNL     1      -4.624  12.052  19.322  0.00  0.00    +0.000 C 
ATOM     12  C   UNL     1      -5.250  11.981  16.881  0.00  0.00    +0.000 C 
ENDBRANCH   5   8
ENDBRANCH   3   4
BRANCH   3  13
ATOM     13  C   UNL     1      -0.369  10.418  21.380  0.00  0.00    +0.000 C 
ATOM     14  O   UNL     1      -0.513  11.483  21.943  0.00  0.00    +0.000 OA
BRANCH  13  15
ATOM     15  OXT UNL     1      -0.337   9.243  22.061  0.00  0.00    +0.000 OA
ATOM     16  HXT UNL     1      -0.880   9.250  22.873  0.00  0.00    +0.000 HD
ENDBRANCH  13  15
ENDBRANCH   3  13
ENDBRANCH   1   2
BRANCH   1  17
ATOM     17  C   UNL     1       2.034   8.455  17.648  0.00  0.00    +0.000 C 
BRANCH  17  18
ATOM     18  C   UNL     1       2.401   7.548  18.849  0.00  0.00    +0.000 C 
BRANCH  18  19
ATOM     19  C   UNL     1       3.110   6.244  18.432  0.00  0.00    +0.000 C 
BRANCH  19  20
ATOM     20  SG  UNL     1       4.337   6.717  17.204  0.00  0.00    +0.000 S 
BRANCH  20  21
ATOM     21  CB  UNL     1       5.135   5.125  16.855  0.00  0.00    +0.000 C 
BRANCH  21  22
ATOM     22  CA  UNL     1       6.643   5.335  16.645  0.00  0.00    +0.000 C 
BRANCH  22  26
ATOM     23  C   UNL     1       7.958   8.733  17.808  0.00  0.00    +0.000 C 
ATOM     24  C   UNL     1       7.753   7.250  17.901  0.00  0.00    +0.000 C 
ATOM     25  O   UNL     1       8.178   6.604  18.856  0.00  0.00    +0.000 OA
ATOM     26  N   UNL     1       7.055   6.743  16.835  0.00  0.00    +0.000 N 
ATOM     27  H   UNL     1       7.145   7.208  15.924  0.00  0.00    +0.000 HD
ENDBRANCH  22  26
BRANCH  22  28
ATOM     28  C   UNL     1       6.895   4.897  15.171  0.00  0.00    +0.000 C 
ATOM     29  O   UNL     1       6.106   3.981  14.773  0.00  0.00    +0.000 OA
ATOM     30  OXT UNL     1       7.845   5.464  14.561  0.00  0.00    +0.000 OA
ENDBRANCH  22  28
ENDBRANCH  21  22
ENDBRANCH  20  21
ENDBRANCH  19  20
ENDBRANCH  18  19
ENDBRANCH  17  18
ENDBRANCH   1  17
TORSDOF 13
ENDMDL
MODEL 2
REMARK VINA RESULT:      -6.7      2.975      9.534
REMARK  Name = 
REMARK  16 active torsions:
REMARK  status: ('A' for Active; 'I' for Inactive)
REMARK    1  A    between atoms: C_1  and  C_2
REMARK    2  A    between atoms: N_4  and  CA_5
REMARK    3  A    between atoms: CA_5  and  CB_6
REMARK    4  A    between atoms: CA_5  and  C_25
REMARK    5  A    between atoms: CB_6  and  SG_7
REMARK    6  A    between atoms: SG_7  and  C_8
REMARK    7  A    between atoms: C_8  and  C_9
REMARK    8  A    between atoms: C_9  and  C_10
REMARK    9  A    between atoms: C_10  and  C_11
REMARK   10  A    between atoms: C_11  and  C_12
REMARK   11  A    between atoms: CA_13  and  N_14
REMARK   12  A    between atoms: CA_13  and  C_22
REMARK   13  A    between atoms: C_15  and  C_17
REMARK   14  A    between atoms: C_19  and  C_20
REMARK   15  A    between atoms: C_19  and  C_21
REMARK   16  A    between atoms: C_22  and  OXT_24
REMARK                            x       y       z     vdW  Elec       q    Type
REMARK                         _______ _______ _______ _____ _____    ______ ____
ROOT
ATOM      1  C   UNL     1       2.247   5.762  20.254  0.00  0.00    +0.000 C 
ENDROOT
BRANCH   1   2
ATOM      2  C   UNL     1       1.741   4.408  19.942  0.00  0.00    +0.000 C 
ATOM      3  CA  UNL     1       2.002   3.741  18.801  0.00  0.00    +0.000 C 
BRANCH   3   4
ATOM      4  N   UNL     1       2.839   4.135  17.749  0.00  0.00    +0.000 N 
ATOM      5  C   UNL     1       4.004   3.517  17.261  0.00  0.00    +0.000 C 
ATOM      6  O   UNL     1       4.478   2.462  17.611  0.00  0.00    +0.000 OA
ATOM      7  H   UNL     1       2.600   5.030  17.331  0.00  0.00    +0.000 HD
BRANCH   5   8
ATOM      8  C   UNL     1       4.659   4.293  16.158  0.00  0.00    +0.000 C 
ATOM      9  C   UNL     1       4.941   5.752  16.452  0.00  0.00    +0.000 C 
ATOM     10  C   UNL     1       6.091   4.845  16.089  0.00  0.00    +0.000 C 
ATOM     11  C   UNL     1       7.137   4.560  17.138  0.00  0.00    +0.000 C 
ATOM     12  C   UNL     1       6.671   4.991  14.698  0.00  0.00    +0.000 C 
ENDBRANCH   5   8
ENDBRANCH   3   4
BRANCH   3  13
ATOM     13  C   UNL     1       1.245   2.440  18.700  0.00  0.00    +0.000 C 
ATOM     14  O   UNL     1       0.036   2.335  18.682  0.00  0.00    +0.000 OA
BRANCH  13  15
ATOM     15  OXT UNL     1       2.061   1.354  18.692  0.00  0.00    +0.000 OA
ATOM     16  HXT UNL     1       2.351   1.079  19.584  0.00  0.00    +0.000 HD
ENDBRANCH  13  15
ENDBRANCH   3  13
ENDBRANCH   1   2
BRANCH   1  17
ATOM     17  C   UNL     1       1.307   6.836  20.788  0.00  0.00    +0.000 C 
BRANCH  17  18
ATOM     18  C   UNL     1       1.767   8.175  20.158  0.00  0.00    +0.000 C 
BRANCH  18  19
ATOM     19  C   UNL     1       2.324   8.016  18.730  0.00  0.00    +0.000 C 
BRANCH  19  20
ATOM     20  SG  UNL     1       1.315   9.075  17.682  0.00  0.00    +0.000 S 
BRANCH  20  21
ATOM     21  CB  UNL     1       0.763  10.337  18.865  0.00  0.00    +0.000 C 
BRANCH  21  22
ATOM     22  CA  UNL     1      -0.766  10.482  18.793  0.00  0.00    +0.000 C 
BRANCH  22  26
ATOM     23  C   UNL     1      -2.662  10.024  15.504  0.00  0.00    +0.000 C 
ATOM     24  C   UNL     1      -2.478   9.941  16.990  0.00  0.00    +0.000 C 
ATOM     25  O   UNL     1      -3.339   9.448  17.715  0.00  0.00    +0.000 OA
ATOM     26  N   UNL     1      -1.277  10.455  17.405  0.00  0.00    +0.000 N 
ATOM     27  H   UNL     1      -0.856  11.218  16.862  0.00  0.00    +0.000 HD
ENDBRANCH  22  26
BRANCH  22  28
ATOM     28  C   UNL     1      -1.055  11.868  19.445  0.00  0.00    +0.000 C 
ATOM     29  O   UNL     1      -0.050  12.650  19.438  0.00  0.00    +0.000 OA
ATOM     30  OXT UNL     1      -2.212  12.046  19.918  0.00  0.00    +0.000 OA
ENDBRANCH  22  28
ENDBRANCH  21  22
ENDBRANCH  20  21
ENDBRANCH  19  20
ENDBRANCH  18  19
ENDBRANCH  17  18
ENDBRANCH   1  17
TORSDOF 13
ENDMDL
MODEL 3
REMARK VINA RESULT:      -6.6      2.818      9.912
REMARK  Name = 
REMARK  16 active torsions:
REMARK  status: ('A' for Active; 'I' for Inactive)
REMARK    1  A    between atoms: C_1  and  C_2
REMARK    2  A    between atoms: N_4  and  CA_5
REMARK    3  A    between atoms: CA_5  and  CB_6
REMARK    4  A    between atoms: CA_5  and  C_25
REMARK    5  A    between atoms: CB_6  and  SG_7
REMARK    6  A    between atoms: SG_7  and  C_8
REMARK    7  A    between atoms: C_8  and  C_9
REMARK    8  A    between atoms: C_9  and  C_10
REMARK    9  A    between atoms: C_10  and  C_11
REMARK   10  A    between atoms: C_11  and  C_12
REMARK   11  A    between atoms: CA_13  and  N_14
REMARK   12  A    between atoms: CA_13  and  C_22
REMARK   13  A    between atoms: C_15  and  C_17
REMARK   14  A    between atoms: C_19  and  C_20
REMARK   15  A    between atoms: C_19  and  C_21
REMARK   16  A    between atoms: C_22  and  OXT_24
REMARK                            x       y       z     vdW  Elec       q    Type
REMARK                         _______ _______ _______ _____ _____    ______ ____
ROOT
ATOM      1  C   UNL     1       3.677   7.504  17.938  0.00  0.00    +0.000 C 
ENDROOT
BRANCH   1   2
ATOM      2  C   UNL     1       4.367   6.686  16.917  0.00  0.00    +0.000 C 
ATOM      3  CA  UNL     1       4.491   5.346  16.970  0.00  0.00    +0.000 C 
BRANCH   3   4
ATOM      4  N   UNL     1       3.945   4.470  17.917  0.00  0.00    +0.000 N 
ATOM      5  C   UNL     1       2.679   3.857  17.935  0.00  0.00    +0.000 C 
ATOM      6  O   UNL     1       1.827   3.906  17.080  0.00  0.00    +0.000 OA
ATOM      7  H   UNL     1       4.526   4.318  18.736  0.00  0.00    +0.000 HD
BRANCH   5   8
ATOM      8  C   UNL     1       2.445   3.036  19.168  0.00  0.00    +0.000 C 
ATOM      9  C   UNL     1       3.569   3.032  20.183  0.00  0.00    +0.000 C 
ATOM     10  C   UNL     1       2.203   3.513  20.608  0.00  0.00    +0.000 C 
ATOM     11  C   UNL     1       2.040   4.965  20.982  0.00  0.00    +0.000 C 
ATOM     12  C   UNL     1       1.385   2.581  21.478  0.00  0.00    +0.000 C 
ENDBRANCH   5   8
ENDBRANCH   3   4
BRANCH   3  13
ATOM     13  C   UNL     1       5.358   4.797  15.864  0.00  0.00    +0.000 C 
ATOM     14  O   UNL     1       5.698   3.637  15.754  0.00  0.00    +0.000 OA
BRANCH  13  15
ATOM     15  OXT UNL     1       5.791   5.757  15.006  0.00  0.00    +0.000 OA
ATOM     16  HXT UNL     1       5.188   6.523  14.945  0.00  0.00    +0.000 HD
ENDBRANCH  13  15
ENDBRANCH   3  13
ENDBRANCH   1   2
BRANCH   1  17
ATOM     17  C   UNL     1       2.178   7.762  17.840  0.00  0.00    +0.000 C 
BRANCH  17  18
ATOM     18  C   UNL     1       1.995   9.301  17.865  0.00  0.00    +0.000 C 
BRANCH  18  19
ATOM     19  C   UNL     1       0.535   9.735  18.106  0.00  0.00    +0.000 C 
BRANCH  19  20
ATOM     20  SG  UNL     1       0.593  10.958  19.424  0.00  0.00    +0.000 S 
BRANCH  20  21
ATOM     21  CB  UNL     1      -0.608  12.186  18.835  0.00  0.00    +0.000 C 
BRANCH  21  22
ATOM     22  CA  UNL     1      -1.984  11.907  19.459  0.00  0.00    +0.000 C 
BRANCH  22  26
ATOM     23  C   UNL     1      -4.636  11.457  16.740  0.00  0.00    +0.000 C 
ATOM     24  C   UNL     1      -3.539  11.005  17.657  0.00  0.00    +0.000 C 
ATOM     25  O   UNL     1      -3.117   9.852  17.630  0.00  0.00    +0.000 OA
ATOM     26  N   UNL     1      -3.087  12.007  18.478  0.00  0.00    +0.000 N 
ATOM     27  H   UNL     1      -3.745  12.741  18.763  0.00  0.00    +0.000 HD
ENDBRANCH  22  26
BRANCH  22  28
ATOM     28  C   UNL     1      -2.142  13.003  20.556  0.00  0.00    +0.000 C 
ATOM     29  O   UNL     1      -2.722  12.584  21.610  0.00  0.00    +0.000 OA
ATOM     30  OXT UNL     1      -1.716  14.158  20.275  0.00  0.00    +0.000 OA
ENDBRANCH  22  28
ENDBRANCH  21  22
ENDBRANCH  20  21
ENDBRANCH  19  20
ENDBRANCH  18  19
ENDBRANCH  17  18
ENDBRANCH   1  17
TORSDOF 13
ENDMDL
MODEL 4
REMARK VINA RESULT:      -6.6      2.365      3.246
REMARK  Name = 
REMARK  16 active torsions:
REMARK  status: ('A' for Active; 'I' for Inactive)
REMARK    1  A    between atoms: C_1  and  C_2
REMARK    2  A    between atoms: N_4  and  CA_5
REMARK    3  A    between atoms: CA_5  and  CB_6
REMARK    4  A    between atoms: CA_5  and  C_25
REMARK    5  A    between atoms: CB_6  and  SG_7
REMARK    6  A    between atoms: SG_7  and  C_8
REMARK    7  A    between atoms: C_8  and  C_9
REMARK    8  A    between atoms: C_9  and  C_10
REMARK    9  A    between atoms: C_10  and  C_11
REMARK   10  A    between atoms: C_11  and  C_12
REMARK   11  A    between atoms: CA_13  and  N_14
REMARK   12  A    between atoms: CA_13  and  C_22
REMARK   13  A    between atoms: C_15  and  C_17
REMARK   14  A    between atoms: C_19  and  C_20
REMARK   15  A    between atoms: C_19  and  C_21
REMARK   16  A    between atoms: C_22  and  OXT_24
REMARK                            x       y       z     vdW  Elec       q    Type
REMARK                         _______ _______ _______ _____ _____    ______ ____
ROOT
ATOM      1  C   UNL     1       1.847   7.607  19.993  0.00  0.00    +0.000 C 
ENDROOT
BRANCH   1   2
ATOM      2  C   UNL     1       1.274   8.470  21.048  0.00  0.00    +0.000 C 
ATOM      3  CA  UNL     1       0.267   9.344  20.855  0.00  0.00    +0.000 C 
BRANCH   3   4
ATOM      4  N   UNL     1      -0.476   9.553  19.685  0.00  0.00    +0.000 N 
ATOM      5  C   UNL     1      -0.497  10.672  18.835  0.00  0.00    +0.000 C 
ATOM      6  O   UNL     1       0.191  11.663  18.905  0.00  0.00    +0.000 OA
ATOM      7  H   UNL     1      -1.138   8.814  19.468  0.00  0.00    +0.000 HD
BRANCH   5   8
ATOM      8  C   UNL     1      -1.485  10.536  17.715  0.00  0.00    +0.000 C 
ATOM      9  C   UNL     1      -2.642   9.591  17.965  0.00  0.00    +0.000 C 
ATOM     10  C   UNL     1      -2.936  11.036  17.646  0.00  0.00    +0.000 C 
ATOM     11  C   UNL     1      -3.566  11.891  18.717  0.00  0.00    +0.000 C 
ATOM     12  C   UNL     1      -3.458  11.343  16.258  0.00  0.00    +0.000 C 
ENDBRANCH   5   8
ENDBRANCH   3   4
BRANCH   3  13
ATOM     13  C   UNL     1      -0.018  10.183  22.075  0.00  0.00    +0.000 C 
ATOM     14  O   UNL     1      -0.637   9.811  23.050  0.00  0.00    +0.000 OA
BRANCH  13  15
ATOM     15  OXT UNL     1       0.442  11.456  21.960  0.00  0.00    +0.000 OA
ATOM     16  HXT UNL     1       0.845  11.800  22.780  0.00  0.00    +0.000 HD
ENDBRANCH  13  15
ENDBRANCH   3  13
ENDBRANCH   1   2
BRANCH   1  17
ATOM     17  C   UNL     1       2.418   6.237  20.337  0.00  0.00    +0.000 C 
BRANCH  17  18
ATOM     18  C   UNL     1       1.218   5.257  20.377  0.00  0.00    +0.000 C 
BRANCH  18  19
ATOM     19  C   UNL     1       1.637   3.778  20.260  0.00  0.00    +0.000 C 
BRANCH  19  20
ATOM     20  SG  UNL     1       1.493   3.358  18.516  0.00  0.00    +0.000 S 
BRANCH  20  21
ATOM     21  CB  UNL     1       3.123   2.630  18.181  0.00  0.00    +0.000 C 
BRANCH  21  22
ATOM     22  CA  UNL     1       4.149   3.747  17.936  0.00  0.00    +0.000 C 
BRANCH  22  26
ATOM     23  C   UNL     1       6.114   3.923  14.660  0.00  0.00    +0.000 C 
ATOM     24  C   UNL     1       5.367   4.492  15.829  0.00  0.00    +0.000 C 
ATOM     25  O   UNL     1       5.167   5.700  15.935  0.00  0.00    +0.000 OA
ATOM     26  N   UNL     1       4.949   3.529  16.712  0.00  0.00    +0.000 N 
ATOM     27  H   UNL     1       5.513   2.676  16.809  0.00  0.00    +0.000 HD
ENDBRANCH  22  26
BRANCH  22  28
ATOM     28  C   UNL     1       5.070   3.711  19.193  0.00  0.00    +0.000 C 
ATOM     29  O   UNL     1       4.938   2.651  19.887  0.00  0.00    +0.000 OA
ATOM     30  OXT UNL     1       5.804   4.719  19.393  0.00  0.00    +0.000 OA
ENDBRANCH  22  28
ENDBRANCH  21  22
ENDBRANCH  20  21
ENDBRANCH  19  20
ENDBRANCH  18  19
ENDBRANCH  17  18
ENDBRANCH   1  17
TORSDOF 13
ENDMDL
MODEL 5
REMARK VINA RESULT:      -6.5      3.232      9.518
REMARK  Name = 
REMARK  16 active torsions:
REMARK  status: ('A' for Active; 'I' for Inactive)
REMARK    1  A    between atoms: C_1  and  C_2
REMARK    2  A    between atoms: N_4  and  CA_5
REMARK    3  A    between atoms: CA_5  and  CB_6
REMARK    4  A    between atoms: CA_5  and  C_25
REMARK    5  A    between atoms: CB_6  and  SG_7
REMARK    6  A    between atoms: SG_7  and  C_8
REMARK    7  A    between atoms: C_8  and  C_9
REMARK    8  A    between atoms: C_9  and  C_10
REMARK    9  A    between atoms: C_10  and  C_11
REMARK   10  A    between atoms: C_11  and  C_12
REMARK   11  A    between atoms: CA_13  and  N_14
REMARK   12  A    between atoms: CA_13  and  C_22
REMARK   13  A    between atoms: C_15  and  C_17
REMARK   14  A    between atoms: C_19  and  C_20
REMARK   15  A    between atoms: C_19  and  C_21
REMARK   16  A    between atoms: C_22  and  OXT_24
REMARK                            x       y       z     vdW  Elec       q    Type
REMARK                         _______ _______ _______ _____ _____    ______ ____
ROOT
ATOM      1  C   UNL     1       3.724   7.529  17.895  0.00  0.00    +0.000 C 
ENDROOT
BRANCH   1   2
ATOM      2  C   UNL     1       4.406   6.691  16.885  0.00  0.00    +0.000 C 
ATOM      3  CA  UNL     1       4.520   5.350  16.960  0.00  0.00    +0.000 C 
BRANCH   3   4
ATOM      4  N   UNL     1       3.970   4.494  17.923  0.00  0.00    +0.000 N 
ATOM      5  C   UNL     1       2.744   3.806  17.903  0.00  0.00    +0.000 C 
ATOM      6  O   UNL     1       1.941   3.759  17.001  0.00  0.00    +0.000 OA
ATOM      7  H   UNL     1       4.511   4.420  18.779  0.00  0.00    +0.000 HD
BRANCH   5   8
ATOM      8  C   UNL     1       2.485   3.039  19.165  0.00  0.00    +0.000 C 
ATOM      9  C   UNL     1       3.569   3.115  20.220  0.00  0.00    +0.000 C 
ATOM     10  C   UNL     1       2.174   3.576  20.571  0.00  0.00    +0.000 C 
ATOM     11  C   UNL     1       1.957   5.038  20.867  0.00  0.00    +0.000 C 
ATOM     12  C   UNL     1       1.349   2.662  21.454  0.00  0.00    +0.000 C 
ENDBRANCH   5   8
ENDBRANCH   3   4
BRANCH   3  13
ATOM     13  C   UNL     1       5.381   4.777  15.861  0.00  0.00    +0.000 C 
ATOM     14  O   UNL     1       5.694   3.610  15.756  0.00  0.00    +0.000 OA
BRANCH  13  15
ATOM     15  OXT UNL     1       5.841   5.724  15.003  0.00  0.00    +0.000 OA
ATOM     16  HXT UNL     1       6.207   6.510  15.452  0.00  0.00    +0.000 HD
ENDBRANCH  13  15
ENDBRANCH   3  13
ENDBRANCH   1   2
BRANCH   1  17
ATOM     17  C   UNL     1       2.221   7.769  17.815  0.00  0.00    +0.000 C 
BRANCH  17  18
ATOM     18  C   UNL     1       2.021   9.306  17.808  0.00  0.00    +0.000 C 
BRANCH  18  19
ATOM     19  C   UNL     1       0.733   9.755  18.527  0.00  0.00    +0.000 C 
BRANCH  19  20
ATOM     20  SG  UNL     1       0.894   9.194  20.229  0.00  0.00    +0.000 S 
BRANCH  20  21
ATOM     21  CB  UNL     1       0.777  10.759  21.141  0.00  0.00    +0.000 C 
BRANCH  21  22
ATOM     22  CA  UNL     1      -0.700  11.118  21.369  0.00  0.00    +0.000 C 
BRANCH  22  26
ATOM     23  C   UNL     1      -0.921  14.921  21.037  0.00  0.00    +0.000 C 
ATOM     24  C   UNL     1      -0.320  13.630  21.508  0.00  0.00    +0.000 C 
ATOM     25  O   UNL     1       0.671  13.613  22.233  0.00  0.00    +0.000 OA
ATOM     26  N   UNL     1      -1.000  12.530  21.051  0.00  0.00    +0.000 N 
ATOM     27  H   UNL     1      -1.478  12.592  20.144  0.00  0.00    +0.000 HD
ENDBRANCH  22  26
BRANCH  22  28
ATOM     28  C   UNL     1      -0.936  10.848  22.886  0.00  0.00    +0.000 C 
ATOM     29  O   UNL     1      -2.037  11.318  23.318  0.00  0.00    +0.000 OA
ATOM     30  OXT UNL     1      -0.022  10.235  23.506  0.00  0.00    +0.000 OA
ENDBRANCH  22  28
ENDBRANCH  21  22
ENDBRANCH  20  21
ENDBRANCH  19  20
ENDBRANCH  18  19
ENDBRANCH  17  18
ENDBRANCH   1  17
TORSDOF 13
ENDMDL
MODEL 6
REMARK VINA RESULT:      -6.5      2.353      3.601
REMARK  Name = 
REMARK  16 active torsions:
REMARK  status: ('A' for Active; 'I' for Inactive)
REMARK    1  A    between atoms: C_1  and  C_2
REMARK    2  A    between atoms: N_4  and  CA_5
REMARK    3  A    between atoms: CA_5  and  CB_6
REMARK    4  A    between atoms: CA_5  and  C_25
REMARK    5  A    between atoms: CB_6  and  SG_7
REMARK    6  A    between atoms: SG_7  and  C_8
REMARK    7  A    between atoms: C_8  and  C_9
REMARK    8  A    between atoms: C_9  and  C_10
REMARK    9  A    between atoms: C_10  and  C_11
REMARK   10  A    between atoms: C_11  and  C_12
REMARK   11  A    between atoms: CA_13  and  N_14
REMARK   12  A    between atoms: CA_13  and  C_22
REMARK   13  A    between atoms: C_15  and  C_17
REMARK   14  A    between atoms: C_19  and  C_20
REMARK   15  A    between atoms: C_19  and  C_21
REMARK   16  A    between atoms: C_22  and  OXT_24
REMARK                            x       y       z     vdW  Elec       q    Type
REMARK                         _______ _______ _______ _____ _____    ______ ____
ROOT
ATOM      1  C   UNL     1       2.759   8.544  17.916  0.00  0.00    +0.000 C 
ENDROOT
BRANCH   1   2
ATOM      2  C   UNL     1       1.311   8.844  17.887  0.00  0.00    +0.000 C 
ATOM      3  CA  UNL     1       0.776  10.050  18.158  0.00  0.00    +0.000 C 
BRANCH   3   4
ATOM      4  N   UNL     1       1.453  11.246  18.432  0.00  0.00    +0.000 N 
ATOM      5  C   UNL     1       1.543  11.959  19.641  0.00  0.00    +0.000 C 
ATOM      6  O   UNL     1       1.109  11.633  20.721  0.00  0.00    +0.000 OA
ATOM      7  H   UNL     1       1.877  11.687  17.622  0.00  0.00    +0.000 HD
BRANCH   5   8
ATOM      8  C   UNL     1       2.308  13.241  19.508  0.00  0.00    +0.000 C 
ATOM      9  C   UNL     1       2.505  13.750  18.095  0.00  0.00    +0.000 C 
ATOM     10  C   UNL     1       1.795  14.629  19.095  0.00  0.00    +0.000 C 
ATOM     11  C   UNL     1       0.336  14.936  18.869  0.00  0.00    +0.000 C 
ATOM     12  C   UNL     1       2.570  15.806  19.650  0.00  0.00    +0.000 C 
ENDBRANCH   5   8
ENDBRANCH   3   4
BRANCH   3  13
ATOM     13  C   UNL     1      -0.732  10.028  18.183  0.00  0.00    +0.000 C 
ATOM     14  O   UNL     1      -1.443   9.841  17.218  0.00  0.00    +0.000 OA
BRANCH  13  15
ATOM     15  OXT UNL     1      -1.244  10.304  19.411  0.00  0.00    +0.000 OA
ATOM     16  HXT UNL     1      -2.179  10.040  19.510  0.00  0.00    +0.000 HD
ENDBRANCH  13  15
ENDBRANCH   3  13
ENDBRANCH   1   2
BRANCH   1  17
ATOM     17  C   UNL     1       3.258   7.180  18.375  0.00  0.00    +0.000 C 
BRANCH  17  18
ATOM     18  C   UNL     1       2.139   6.164  18.035  0.00  0.00    +0.000 C 
BRANCH  18  19
ATOM     19  C   UNL     1       2.670   4.742  17.765  0.00  0.00    +0.000 C 
BRANCH  19  20
ATOM     20  SG  UNL     1       4.452   4.826  17.997  0.00  0.00    +0.000 S 
BRANCH  20  21
ATOM     21  CB  UNL     1       5.032   5.037  16.289  0.00  0.00    +0.000 C 
BRANCH  21  22
ATOM     22  CA  UNL     1       6.560   5.204  16.277  0.00  0.00    +0.000 C 
BRANCH  22  26
ATOM     23  C   UNL     1       7.841   8.517  17.692  0.00  0.00    +0.000 C 
ATOM     24  C   UNL     1       7.593   7.038  17.706  0.00  0.00    +0.000 C 
ATOM     25  O   UNL     1       7.910   6.345  18.670  0.00  0.00    +0.000 OA
ATOM     26  N   UNL     1       6.985   6.591  16.561  0.00  0.00    +0.000 N 
ATOM     27  H   UNL     1       7.171   7.088  15.682  0.00  0.00    +0.000 HD
ENDBRANCH  22  26
BRANCH  22  28
ATOM     28  C   UNL     1       6.983   4.798  14.833  0.00  0.00    +0.000 C 
ATOM     29  O   UNL     1       6.389   3.755  14.405  0.00  0.00    +0.000 OA
ATOM     30  OXT UNL     1       7.863   5.510  14.274  0.00  0.00    +0.000 OA
ENDBRANCH  22  28
ENDBRANCH  21  22
ENDBRANCH  20  21
ENDBRANCH  19  20
ENDBRANCH  18  19
ENDBRANCH  17  18
ENDBRANCH   1  17
TORSDOF 13
ENDMDL
MODEL 7
REMARK VINA RESULT:      -6.5      2.035      2.854
REMARK  Name = 
REMARK  16 active torsions:
REMARK  status: ('A' for Active; 'I' for Inactive)
REMARK    1  A    between atoms: C_1  and  C_2
REMARK    2  A    between atoms: N_4  and  CA_5
REMARK    3  A    between atoms: CA_5  and  CB_6
REMARK    4  A    between atoms: CA_5  and  C_25
REMARK    5  A    between atoms: CB_6  and  SG_7
REMARK    6  A    between atoms: SG_7  and  C_8
REMARK    7  A    between atoms: C_8  and  C_9
REMARK    8  A    between atoms: C_9  and  C_10
REMARK    9  A    between atoms: C_10  and  C_11
REMARK   10  A    between atoms: C_11  and  C_12
REMARK   11  A    between atoms: CA_13  and  N_14
REMARK   12  A    between atoms: CA_13  and  C_22
REMARK   13  A    between atoms: C_15  and  C_17
REMARK   14  A    between atoms: C_19  and  C_20
REMARK   15  A    between atoms: C_19  and  C_21
REMARK   16  A    between atoms: C_22  and  OXT_24
REMARK                            x       y       z     vdW  Elec       q    Type
REMARK                         _______ _______ _______ _____ _____    ______ ____
ROOT
ATOM      1  C   UNL     1       1.428   8.538  20.574  0.00  0.00    +0.000 C 
ENDROOT
BRANCH   1   2
ATOM      2  C   UNL     1       0.690   9.532  21.384  0.00  0.00    +0.000 C 
ATOM      3  CA  UNL     1      -0.342  10.270  20.930  0.00  0.00    +0.000 C 
BRANCH   3   4
ATOM      4  N   UNL     1      -0.962  10.198  19.676  0.00  0.00    +0.000 N 
ATOM      5  C   UNL     1      -0.966  11.140  18.631  0.00  0.00    +0.000 C 
ATOM      6  O   UNL     1      -0.359  12.184  18.580  0.00  0.00    +0.000 OA
ATOM      7  H   UNL     1      -1.544   9.377  19.539  0.00  0.00    +0.000 HD
BRANCH   5   8
ATOM      8  C   UNL     1      -1.811  10.717  17.467  0.00  0.00    +0.000 C 
ATOM      9  C   UNL     1      -2.788   9.591  17.734  0.00  0.00    +0.000 C 
ATOM     10  C   UNL     1      -3.319  10.919  17.251  0.00  0.00    +0.000 C 
ATOM     11  C   UNL     1      -4.187  11.724  18.184  0.00  0.00    +0.000 C 
ATOM     12  C   UNL     1      -3.768  10.996  15.807  0.00  0.00    +0.000 C 
ENDBRANCH   5   8
ENDBRANCH   3   4
BRANCH   3  13
ATOM     13  C   UNL     1      -0.811  11.295  21.933  0.00  0.00    +0.000 C 
ATOM     14  O   UNL     1      -0.448  11.357  23.089  0.00  0.00    +0.000 OA
BRANCH  13  15
ATOM     15  OXT UNL     1      -1.754  12.133  21.430  0.00  0.00    +0.000 OA
ATOM     16  HXT UNL     1      -1.459  12.618  20.635  0.00  0.00    +0.000 HD
ENDBRANCH  13  15
ENDBRANCH   3  13
ENDBRANCH   1   2
BRANCH   1  17
ATOM     17  C   UNL     1       1.326   7.051  20.892  0.00  0.00    +0.000 C 
BRANCH  17  18
ATOM     18  C   UNL     1       2.296   6.328  19.923  0.00  0.00    +0.000 C 
BRANCH  18  19
ATOM     19  C   UNL     1       2.690   7.186  18.704  0.00  0.00    +0.000 C 
BRANCH  19  20
ATOM     20  SG  UNL     1       3.691   6.123  17.653  0.00  0.00    +0.000 S 
BRANCH  20  21
ATOM     21  CB  UNL     1       4.857   5.417  18.852  0.00  0.00    +0.000 C 
BRANCH  21  22
ATOM     22  CA  UNL     1       5.333   4.040  18.364  0.00  0.00    +0.000 C 
BRANCH  22  26
ATOM     23  C   UNL     1       6.589   4.209  14.756  0.00  0.00    +0.000 C 
ATOM     24  C   UNL     1       6.721   4.299  16.247  0.00  0.00    +0.000 C 
ATOM     25  O   UNL     1       7.781   4.623  16.777  0.00  0.00    +0.000 OA
ATOM     26  N   UNL     1       5.555   3.998  16.902  0.00  0.00    +0.000 N 
ATOM     27  H   UNL     1       4.908   3.329  16.469  0.00  0.00    +0.000 HD
ENDBRANCH  22  26
BRANCH  22  28
ATOM     28  C   UNL     1       4.181   3.068  18.760  0.00  0.00    +0.000 C 
ATOM     29  O   UNL     1       3.768   2.350  17.792  0.00  0.00    +0.000 OA
ATOM     30  OXT UNL     1       3.776   3.119  19.955  0.00  0.00    +0.000 OA
ENDBRANCH  22  28
ENDBRANCH  21  22
ENDBRANCH  20  21
ENDBRANCH  19  20
ENDBRANCH  18  19
ENDBRANCH  17  18
ENDBRANCH   1  17
TORSDOF 13
ENDMDL
MODEL 8
REMARK VINA RESULT:      -6.4      2.661      9.439
REMARK  Name = 
REMARK  16 active torsions:
REMARK  status: ('A' for Active; 'I' for Inactive)
REMARK    1  A    between atoms: C_1  and  C_2
REMARK    2  A    between atoms: N_4  and  CA_5
REMARK    3  A    between atoms: CA_5  and  CB_6
REMARK    4  A    between atoms: CA_5  and  C_25
REMARK    5  A    between atoms: CB_6  and  SG_7
REMARK    6  A    between atoms: SG_7  and  C_8
REMARK    7  A    between atoms: C_8  and  C_9
REMARK    8  A    between atoms: C_9  and  C_10
REMARK    9  A    between atoms: C_10  and  C_11
REMARK   10  A    between atoms: C_11  and  C_12
REMARK   11  A    between atoms: CA_13  and  N_14
REMARK   12  A    between atoms: CA_13  and  C_22
REMARK   13  A    between atoms: C_15  and  C_17
REMARK   14  A    between atoms: C_19  and  C_20
REMARK   15  A    between atoms: C_19  and  C_21
REMARK   16  A    between atoms: C_22  and  OXT_24
REMARK                            x       y       z     vdW  Elec       q    Type
REMARK                         _______ _______ _______ _____ _____    ______ ____
ROOT
ATOM      1  C   UNL     1       4.282   7.280  17.649  0.00  0.00    +0.000 C 
ENDROOT
BRANCH   1   2
ATOM      2  C   UNL     1       5.207   6.438  16.861  0.00  0.00    +0.000 C 
ATOM      3  CA  UNL     1       5.179   5.091  16.836  0.00  0.00    +0.000 C 
BRANCH   3   4
ATOM      4  N   UNL     1       4.255   4.241  17.458  0.00  0.00    +0.000 N 
ATOM      5  C   UNL     1       4.387   3.506  18.650  0.00  0.00    +0.000 C 
ATOM      6  O   UNL     1       5.312   3.525  19.427  0.00  0.00    +0.000 OA
ATOM      7  H   UNL     1       3.401   4.087  16.931  0.00  0.00    +0.000 HD
BRANCH   5   8
ATOM      8  C   UNL     1       3.190   2.653  18.945  0.00  0.00    +0.000 C 
ATOM      9  C   UNL     1       2.900   2.404  20.411  0.00  0.00    +0.000 C 
ATOM     10  C   UNL     1       1.843   3.065  19.560  0.00  0.00    +0.000 C 
ATOM     11  C   UNL     1       1.475   4.496  19.860  0.00  0.00    +0.000 C 
ATOM     12  C   UNL     1       0.653   2.218  19.158  0.00  0.00    +0.000 C 
ENDBRANCH   5   8
ENDBRANCH   3   4
BRANCH   3  13
ATOM     13  C   UNL     1       6.324   4.498  16.053  0.00  0.00    +0.000 C 
ATOM     14  O   UNL     1       7.348   5.081  15.763  0.00  0.00    +0.000 OA
BRANCH  13  15
ATOM     15  OXT UNL     1       6.075   3.230  15.633  0.00  0.00    +0.000 OA
ATOM     16  HXT UNL     1       6.825   2.621  15.773  0.00  0.00    +0.000 HD
ENDBRANCH  13  15
ENDBRANCH   3  13
ENDBRANCH   1   2
BRANCH   1  17
ATOM     17  C   UNL     1       2.846   7.496  17.187  0.00  0.00    +0.000 C 
BRANCH  17  18
ATOM     18  C   UNL     1       2.288   8.675  18.023  0.00  0.00    +0.000 C 
BRANCH  18  19
ATOM     19  C   UNL     1       1.874   8.266  19.451  0.00  0.00    +0.000 C 
BRANCH  19  20
ATOM     20  SG  UNL     1       0.804   9.581  20.053  0.00  0.00    +0.000 S 
BRANCH  20  21
ATOM     21  CB  UNL     1       0.777  10.709  18.631  0.00  0.00    +0.000 C 
BRANCH  21  22
ATOM     22  CA  UNL     1      -0.484  11.586  18.688  0.00  0.00    +0.000 C 
BRANCH  22  26
ATOM     23  C   UNL     1      -2.828  10.829  15.763  0.00  0.00    +0.000 C 
ATOM     24  C   UNL     1      -2.269  10.639  17.142  0.00  0.00    +0.000 C 
ATOM     25  O   UNL     1      -2.688   9.755  17.886  0.00  0.00    +0.000 OA
ATOM     26  N   UNL     1      -1.273  11.533  17.438  0.00  0.00    +0.000 N 
ATOM     27  H   UNL     1      -1.303  12.463  17.004  0.00  0.00    +0.000 HD
ENDBRANCH  22  26
BRANCH  22  28
ATOM     28  C   UNL     1       0.057  13.029  18.921  0.00  0.00    +0.000 C 
ATOM     29  O   UNL     1       1.325  13.114  18.837  0.00  0.00    +0.000 OA
ATOM     30  OXT UNL     1      -0.795  13.922  19.186  0.00  0.00    +0.000 OA
ENDBRANCH  22  28
ENDBRANCH  21  22
ENDBRANCH  20  21
ENDBRANCH  19  20
ENDBRANCH  18  19
ENDBRANCH  17  18
ENDBRANCH   1  17
TORSDOF 13
ENDMDL
MODEL 9
REMARK VINA RESULT:      -6.4      2.789      9.696
REMARK  Name = 
REMARK  16 active torsions:
REMARK  status: ('A' for Active; 'I' for Inactive)
REMARK    1  A    between atoms: C_1  and  C_2
REMARK    2  A    between atoms: N_4  and  CA_5
REMARK    3  A    between atoms: CA_5  and  CB_6
REMARK    4  A    between atoms: CA_5  and  C_25
REMARK    5  A    between atoms: CB_6  and  SG_7
REMARK    6  A    between atoms: SG_7  and  C_8
REMARK    7  A    between atoms: C_8  and  C_9
REMARK    8  A    between atoms: C_9  and  C_10
REMARK    9  A    between atoms: C_10  and  C_11
REMARK   10  A    between atoms: C_11  and  C_12
REMARK   11  A    between atoms: CA_13  and  N_14
REMARK   12  A    between atoms: CA_13  and  C_22
REMARK   13  A    between atoms: C_15  and  C_17
REMARK   14  A    between atoms: C_19  and  C_20
REMARK   15  A    between atoms: C_19  and  C_21
REMARK   16  A    between atoms: C_22  and  OXT_24
REMARK                            x       y       z     vdW  Elec       q    Type
REMARK                         _______ _______ _______ _____ _____    ______ ____
ROOT
ATOM      1  C   UNL     1       2.004   4.943  18.768  0.00  0.00    +0.000 C 
ENDROOT
BRANCH   1   2
ATOM      2  C   UNL     1       2.720   4.024  19.679  0.00  0.00    +0.000 C 
ATOM      3  CA  UNL     1       3.845   3.356  19.358  0.00  0.00    +0.000 C 
BRANCH   3   4
ATOM      4  N   UNL     1       4.591   3.450  18.175  0.00  0.00    +0.000 N 
ATOM      5  C   UNL     1       5.811   4.110  17.944  0.00  0.00    +0.000 C 
ATOM      6  O   UNL     1       6.507   4.674  18.756  0.00  0.00    +0.000 OA
ATOM      7  H   UNL     1       4.145   3.037  17.362  0.00  0.00    +0.000 HD
BRANCH   5   8
ATOM      8  C   UNL     1       6.254   4.035  16.514  0.00  0.00    +0.000 C 
ATOM      9  C   UNL     1       5.158   3.809  15.493  0.00  0.00    +0.000 C 
ATOM     10  C   UNL     1       6.018   5.044  15.380  0.00  0.00    +0.000 C 
ATOM     11  C   UNL     1       5.371   6.389  15.593  0.00  0.00    +0.000 C 
ATOM     12  C   UNL     1       7.065   5.056  14.286  0.00  0.00    +0.000 C 
ENDBRANCH   5   8
ENDBRANCH   3   4
BRANCH   3  13
ATOM     13  C   UNL     1       4.277   2.391  20.433  0.00  0.00    +0.000 C 
ATOM     14  O   UNL     1       5.256   1.676  20.379  0.00  0.00    +0.000 OA
BRANCH  13  15
ATOM     15  OXT UNL     1       3.410   2.344  21.479  0.00  0.00    +0.000 OA
ATOM     16  HXT UNL     1       3.847   2.417  22.349  0.00  0.00    +0.000 HD
ENDBRANCH  13  15
ENDBRANCH   3  13
ENDBRANCH   1   2
BRANCH   1  17
ATOM     17  C   UNL     1       2.775   5.930  17.900  0.00  0.00    +0.000 C 
BRANCH  17  18
ATOM     18  C   UNL     1       2.940   7.220  18.743  0.00  0.00    +0.000 C 
BRANCH  18  19
ATOM     19  C   UNL     1       1.627   8.010  18.910  0.00  0.00    +0.000 C 
BRANCH  19  20
ATOM     20  SG  UNL     1       1.817   9.504  17.926  0.00  0.00    +0.000 S 
BRANCH  20  21
ATOM     21  CB  UNL     1       0.920  10.720  18.932  0.00  0.00    +0.000 C 
BRANCH  21  22
ATOM     22  CA  UNL     1      -0.586  10.418  18.890  0.00  0.00    +0.000 C 
BRANCH  22  26
ATOM     23  C   UNL     1      -2.621  10.418  15.652  0.00  0.00    +0.000 C 
ATOM     24  C   UNL     1      -2.351  10.081  17.088  0.00  0.00    +0.000 C 
ATOM     25  O   UNL     1      -3.134   9.396  17.742  0.00  0.00    +0.000 OA
ATOM     26  N   UNL     1      -1.168  10.604  17.543  0.00  0.00    +0.000 N 
ATOM     27  H   UNL     1      -0.833  11.485  17.135  0.00  0.00    +0.000 HD
ENDBRANCH  22  26
BRANCH  22  28
ATOM     28  C   UNL     1      -1.214  11.434  19.891  0.00  0.00    +0.000 C 
ATOM     29  O   UNL     1      -0.838  11.257  21.095  0.00  0.00    +0.000 OA
ATOM     30  OXT UNL     1      -2.024  12.278  19.415  0.00  0.00    +0.000 OA
ENDBRANCH  22  28
ENDBRANCH  21  22
ENDBRANCH  20  21
ENDBRANCH  19  20
ENDBRANCH  18  19
ENDBRANCH  17  18
ENDBRANCH   1  17
TORSDOF 13
ENDMDL
