MODEL 1
REMARK VINA RESULT:      -8.5      0.000      0.000
REMARK  Name = 
REMARK  7 active torsions:
REMARK  status: ('A' for Active; 'I' for Inactive)
REMARK    1  A    between atoms: C_1  and  O_2
REMARK    2  A    between atoms: O_2  and  C_3
REMARK    3  A    between atoms: C_12  and  C_13
REMARK    4  A    between atoms: C_14  and  C_15
REMARK    5  A    between atoms: N_17  and  C_18
REMARK    6  A    between atoms: C_19  and  C_20
REMARK    7  A    between atoms: C_20  and  O_22
REMARK                            x       y       z     vdW  Elec       q    Type
REMARK                         _______ _______ _______ _____ _____    ______ ____
ROOT
ATOM      1  C   UNL     1       8.920   9.388  18.917  0.00  0.00    +0.000 C 
ATOM      2  C   UNL     1       8.158   8.992  17.882  0.00  0.00    +0.000 C 
ENDROOT
BRANCH   1  12
ATOM      3  C   UNL     1       9.547  11.475  20.241  0.00  0.00    +0.000 A 
ATOM      4  N   UNL     1      10.106  12.704  20.348  0.00  0.00    +0.000 NA
ATOM      5  C   UNL     1      10.654  13.252  19.255  0.00  0.00    +0.000 A 
ATOM      6  C   UNL     1      11.242  14.505  19.348  0.00  0.00    +0.000 A 
ATOM      7  C   UNL     1      11.820  15.129  18.239  0.00  0.00    +0.000 A 
ATOM      8  C   UNL     1      11.809  14.494  17.003  0.00  0.00    +0.000 A 
ATOM      9  C   UNL     1      11.224  13.234  16.884  0.00  0.00    +0.000 A 
ATOM     10  C   UNL     1      10.652  12.604  18.003  0.00  0.00    +0.000 A 
ATOM     11  C   UNL     1      10.075  11.327  17.928  0.00  0.00    +0.000 A 
ATOM     12  C   UNL     1       9.535  10.718  19.066  0.00  0.00    +0.000 A 
BRANCH   3  14
ATOM     13  C   UNL     1       8.507  11.921  22.288  0.00  0.00    +0.000 C 
ATOM     14  O   UNL     1       8.963  10.932  21.371  0.00  0.00    +0.000 OA
ENDBRANCH   3  14
ENDBRANCH   1  12
BRANCH   2  15
ATOM     15  C   UNL     1       7.658   7.591  17.859  0.00  0.00    +0.000 C 
ATOM     16  O   UNL     1       8.095   6.762  18.648  0.00  0.00    +0.000 OA
ATOM     17  N   UNL     1       6.726   7.363  16.852  0.00  0.00    +0.000 N 
ATOM     18  H   UNL     1       6.364   8.189  16.381  0.00  0.00    +0.000 HD
BRANCH  17  19
ATOM     19  C   UNL     1       6.203   6.126  16.469  0.00  0.00    +0.000 C 
ATOM     20  C   UNL     1       5.044   5.636  16.980  0.00  0.00    +0.000 C 
ATOM     21  C   UNL     1       4.500   4.269  16.614  0.00  0.00    +0.000 C 
ATOM     22  C   UNL     1       5.515   3.352  15.935  0.00  0.00    +0.000 C 
ATOM     23  C   UNL     1       6.272   4.108  14.862  0.00  0.00    +0.000 C 
ATOM     24  C   UNL     1       6.994   5.317  15.450  0.00  0.00    +0.000 C 
BRANCH  20  25
ATOM     25  C   UNL     1       4.195   6.337  17.982  0.00  0.00    +0.000 C 
ATOM     26  O   UNL     1       3.910   5.874  19.073  0.00  0.00    +0.000 OA
BRANCH  25  27
ATOM     27  O   UNL     1       3.717   7.524  17.543  0.00  0.00    +0.000 OA
ATOM     28  H   UNL     1       2.884   7.398  17.046  0.00  0.00    +0.000 HD
ENDBRANCH  25  27
ENDBRANCH  20  25
ENDBRANCH  17  19
ENDBRANCH   2  15
TORSDOF 6
ENDMDL
MODEL 2
REMARK VINA RESULT:      -8.2      6.678      9.808
REMARK  Name = 
REMARK  7 active torsions:
REMARK  status: ('A' for Active; 'I' for Inactive)
REMARK    1  A    between atoms: C_1  and  O_2
REMARK    2  A    between atoms: O_2  and  C_3
REMARK    3  A    between atoms: C_12  and  C_13
REMARK    4  A    between atoms: C_14  and  C_15
REMARK    5  A    between atoms: N_17  and  C_18
REMARK    6  A    between atoms: C_19  and  C_20
REMARK    7  A    between atoms: C_20  and  O_22
REMARK                            x       y       z     vdW  Elec       q    Type
REMARK                         _______ _______ _______ _____ _____    ______ ____
ROOT
ATOM      1  C   UNL     1       2.119   8.379  19.017  0.00  0.00    +0.000 C 
ATOM      2  C   UNL     1       1.541   9.326  18.257  0.00  0.00    +0.000 C 
ENDROOT
BRANCH   1  12
ATOM      3  C   UNL     1       2.610   5.878  19.067  0.00  0.00    +0.000 A 
ATOM      4  N   UNL     1       3.225   4.767  18.595  0.00  0.00    +0.000 NA
ATOM      5  C   UNL     1       4.057   4.893  17.552  0.00  0.00    +0.000 A 
ATOM      6  C   UNL     1       4.685   3.765  17.046  0.00  0.00    +0.000 A 
ATOM      7  C   UNL     1       5.569   3.838  15.967  0.00  0.00    +0.000 A 
ATOM      8  C   UNL     1       5.842   5.067  15.378  0.00  0.00    +0.000 A 
ATOM      9  C   UNL     1       5.222   6.216  15.867  0.00  0.00    +0.000 A 
ATOM     10  C   UNL     1       4.325   6.138  16.947  0.00  0.00    +0.000 A 
ATOM     11  C   UNL     1       3.665   7.268  17.453  0.00  0.00    +0.000 A 
ATOM     12  C   UNL     1       2.760   7.152  18.514  0.00  0.00    +0.000 A 
BRANCH   3  14
ATOM     13  C   UNL     1       1.324   4.399  20.343  0.00  0.00    +0.000 C 
ATOM     14  O   UNL     1       1.774   5.737  20.159  0.00  0.00    +0.000 OA
ENDBRANCH   3  14
ENDBRANCH   1  12
BRANCH   2  15
ATOM     15  C   UNL     1       0.888  10.482  18.929  0.00  0.00    +0.000 C 
ATOM     16  O   UNL     1       1.287  11.623  18.731  0.00  0.00    +0.000 OA
ATOM     17  N   UNL     1      -0.137  10.102  19.788  0.00  0.00    +0.000 N 
ATOM     18  H   UNL     1      -0.438   9.132  19.726  0.00  0.00    +0.000 HD
BRANCH  17  19
ATOM     19  C   UNL     1      -0.823  10.930  20.680  0.00  0.00    +0.000 C 
ATOM     20  C   UNL     1      -0.632  10.869  22.023  0.00  0.00    +0.000 C 
ATOM     21  C   UNL     1      -1.414  11.722  23.002  0.00  0.00    +0.000 C 
ATOM     22  C   UNL     1      -2.664  12.369  22.410  0.00  0.00    +0.000 C 
ATOM     23  C   UNL     1      -2.353  12.974  21.057  0.00  0.00    +0.000 C 
ATOM     24  C   UNL     1      -1.823  11.916  20.093  0.00  0.00    +0.000 C 
BRANCH  20  25
ATOM     25  C   UNL     1       0.314   9.943  22.705  0.00  0.00    +0.000 C 
ATOM     26  O   UNL     1       1.413   9.650  22.266  0.00  0.00    +0.000 OA
BRANCH  25  27
ATOM     27  O   UNL     1      -0.187   9.405  23.841  0.00  0.00    +0.000 OA
ATOM     28  H   UNL     1      -0.240   8.432  23.768  0.00  0.00    +0.000 HD
ENDBRANCH  25  27
ENDBRANCH  20  25
ENDBRANCH  17  19
ENDBRANCH   2  15
TORSDOF 6
ENDMDL
MODEL 3
REMARK VINA RESULT:      -8.1      1.381      2.170
REMARK  Name = 
REMARK  7 active torsions:
REMARK  status: ('A' for Active; 'I' for Inactive)
REMARK    1  A    between atoms: C_1  and  O_2
REMARK    2  A    between atoms: O_2  and  C_3
REMARK    3  A    between atoms: C_12  and  C_13
REMARK    4  A    between atoms: C_14  and  C_15
REMARK    5  A    between atoms: N_17  and  C_18
REMARK    6  A    between atoms: C_19  and  C_20
REMARK    7  A    between atoms: C_20  and  O_22
REMARK                            x       y       z     vdW  Elec       q    Type
REMARK                         _______ _______ _______ _____ _____    ______ ____
ROOT
ATOM      1  C   UNL     1       8.707   9.332  19.108  0.00  0.00    +0.000 C 
ATOM      2  C   UNL     1       8.325   8.663  18.005  0.00  0.00    +0.000 C 
ENDROOT
BRANCH   1  12
ATOM      3  C   UNL     1       9.732  11.363  20.258  0.00  0.00    +0.000 A 
ATOM      4  N   UNL     1      10.421  12.529  20.243  0.00  0.00    +0.000 NA
ATOM      5  C   UNL     1      10.852  12.999  19.064  0.00  0.00    +0.000 A 
ATOM      6  C   UNL     1      11.571  14.184  19.030  0.00  0.00    +0.000 A 
ATOM      7  C   UNL     1      12.038  14.726  17.829  0.00  0.00    +0.000 A 
ATOM      8  C   UNL     1      11.778  14.075  16.629  0.00  0.00    +0.000 A 
ATOM      9  C   UNL     1      11.058  12.881  16.637  0.00  0.00    +0.000 A 
ATOM     10  C   UNL     1      10.598  12.333  17.848  0.00  0.00    +0.000 A 
ATOM     11  C   UNL     1       9.891  11.122  17.899  0.00  0.00    +0.000 A 
ATOM     12  C   UNL     1       9.468  10.593  19.123  0.00  0.00    +0.000 A 
BRANCH   3  14
ATOM     13  C   UNL     1       8.457  11.854  22.157  0.00  0.00    +0.000 C 
ATOM     14  O   UNL     1       9.271  10.903  21.478  0.00  0.00    +0.000 OA
ENDBRANCH   3  14
ENDBRANCH   1  12
BRANCH   2  15
ATOM     15  C   UNL     1       7.607   7.370  18.166  0.00  0.00    +0.000 C 
ATOM     16  O   UNL     1       8.112   6.455  18.806  0.00  0.00    +0.000 OA
ATOM     17  N   UNL     1       6.390   7.337  17.495  0.00  0.00    +0.000 N 
ATOM     18  H   UNL     1       6.052   8.226  17.136  0.00  0.00    +0.000 HD
BRANCH  17  19
ATOM     19  C   UNL     1       5.570   6.220  17.317  0.00  0.00    +0.000 C 
ATOM     20  C   UNL     1       5.969   5.129  16.614  0.00  0.00    +0.000 C 
ATOM     21  C   UNL     1       5.065   3.938  16.366  0.00  0.00    +0.000 C 
ATOM     22  C   UNL     1       3.587   4.206  16.637  0.00  0.00    +0.000 C 
ATOM     23  C   UNL     1       3.418   4.943  17.950  0.00  0.00    +0.000 C 
ATOM     24  C   UNL     1       4.180   6.266  17.936  0.00  0.00    +0.000 C 
BRANCH  20  25
ATOM     25  C   UNL     1       7.300   4.979  15.963  0.00  0.00    +0.000 C 
ATOM     26  O   UNL     1       7.585   5.459  14.880  0.00  0.00    +0.000 OA
BRANCH  25  27
ATOM     27  O   UNL     1       8.157   4.203  16.668  0.00  0.00    +0.000 OA
ATOM     28  H   UNL     1       9.083   4.441  16.466  0.00  0.00    +0.000 HD
ENDBRANCH  25  27
ENDBRANCH  20  25
ENDBRANCH  17  19
ENDBRANCH   2  15
TORSDOF 6
ENDMDL
MODEL 4
REMARK VINA RESULT:      -8.1      6.678      9.829
REMARK  Name = 
REMARK  7 active torsions:
REMARK  status: ('A' for Active; 'I' for Inactive)
REMARK    1  A    between atoms: C_1  and  O_2
REMARK    2  A    between atoms: O_2  and  C_3
REMARK    3  A    between atoms: C_12  and  C_13
REMARK    4  A    between atoms: C_14  and  C_15
REMARK    5  A    between atoms: N_17  and  C_18
REMARK    6  A    between atoms: C_19  and  C_20
REMARK    7  A    between atoms: C_20  and  O_22
REMARK                            x       y       z     vdW  Elec       q    Type
REMARK                         _______ _______ _______ _____ _____    ______ ____
ROOT
ATOM      1  C   UNL     1       2.181   8.340  18.798  0.00  0.00    +0.000 C 
ATOM      2  C   UNL     1       1.877   9.403  18.033  0.00  0.00    +0.000 C 
ENDROOT
BRANCH   1  12
ATOM      3  C   UNL     1       2.704   5.847  18.912  0.00  0.00    +0.000 A 
ATOM      4  N   UNL     1       3.336   4.733  18.472  0.00  0.00    +0.000 NA
ATOM      5  C   UNL     1       4.174   4.845  17.432  0.00  0.00    +0.000 A 
ATOM      6  C   UNL     1       4.820   3.714  16.958  0.00  0.00    +0.000 A 
ATOM      7  C   UNL     1       5.711   3.772  15.883  0.00  0.00    +0.000 A 
ATOM      8  C   UNL     1       5.972   4.990  15.266  0.00  0.00    +0.000 A 
ATOM      9  C   UNL     1       5.334   6.142  15.723  0.00  0.00    +0.000 A 
ATOM     10  C   UNL     1       4.430   6.078  16.798  0.00  0.00    +0.000 A 
ATOM     11  C   UNL     1       3.751   7.212  17.272  0.00  0.00    +0.000 A 
ATOM     12  C   UNL     1       2.841   7.110  18.330  0.00  0.00    +0.000 A 
BRANCH   3  14
ATOM     13  C   UNL     1       1.398   4.389  20.193  0.00  0.00    +0.000 C 
ATOM     14  O   UNL     1       1.862   5.722  20.002  0.00  0.00    +0.000 OA
ENDBRANCH   3  14
ENDBRANCH   1  12
BRANCH   2  15
ATOM     15  C   UNL     1       1.157  10.548  18.653  0.00  0.00    +0.000 C 
ATOM     16  O   UNL     1       1.596  11.687  18.550  0.00  0.00    +0.000 OA
ATOM     17  N   UNL     1       0.022  10.159  19.357  0.00  0.00    +0.000 N 
ATOM     18  H   UNL     1      -0.282   9.198  19.221  0.00  0.00    +0.000 HD
BRANCH  17  19
ATOM     19  C   UNL     1      -0.763  10.971  20.180  0.00  0.00    +0.000 C 
ATOM     20  C   UNL     1      -1.759  11.753  19.693  0.00  0.00    +0.000 C 
ATOM     21  C   UNL     1      -2.577  12.681  20.570  0.00  0.00    +0.000 C 
ATOM     22  C   UNL     1      -1.966  12.943  21.944  0.00  0.00    +0.000 C 
ATOM     23  C   UNL     1      -1.486  11.646  22.563  0.00  0.00    +0.000 C 
ATOM     24  C   UNL     1      -0.454  10.963  21.671  0.00  0.00    +0.000 C 
BRANCH  20  25
ATOM     25  C   UNL     1      -2.144  11.843  18.257  0.00  0.00    +0.000 C 
ATOM     26  O   UNL     1      -3.109  11.275  17.775  0.00  0.00    +0.000 OA
BRANCH  25  27
ATOM     27  O   UNL     1      -1.280  12.575  17.515  0.00  0.00    +0.000 OA
ATOM     28  H   UNL     1      -0.838  12.015  16.847  0.00  0.00    +0.000 HD
ENDBRANCH  25  27
ENDBRANCH  20  25
ENDBRANCH  17  19
ENDBRANCH   2  15
TORSDOF 6
ENDMDL
MODEL 5
REMARK VINA RESULT:      -8.0      5.883      7.983
REMARK  Name = 
REMARK  7 active torsions:
REMARK  status: ('A' for Active; 'I' for Inactive)
REMARK    1  A    between atoms: C_1  and  O_2
REMARK    2  A    between atoms: O_2  and  C_3
REMARK    3  A    between atoms: C_12  and  C_13
REMARK    4  A    between atoms: C_14  and  C_15
REMARK    5  A    between atoms: N_17  and  C_18
REMARK    6  A    between atoms: C_19  and  C_20
REMARK    7  A    between atoms: C_20  and  O_22
REMARK                            x       y       z     vdW  Elec       q    Type
REMARK                         _______ _______ _______ _____ _____    ______ ____
ROOT
ATOM      1  C   UNL     1       2.137   8.257  18.625  0.00  0.00    +0.000 C 
ATOM      2  C   UNL     1       2.266   6.969  18.989  0.00  0.00    +0.000 C 
ENDROOT
BRANCH   1  12
ATOM      3  C   UNL     1       1.402  10.657  19.074  0.00  0.00    +0.000 A 
ATOM      4  N   UNL     1       0.759  11.597  19.807  0.00  0.00    +0.000 NA
ATOM      5  C   UNL     1       0.137  11.212  20.931  0.00  0.00    +0.000 A 
ATOM      6  C   UNL     1      -0.538  12.158  21.688  0.00  0.00    +0.000 A 
ATOM      7  C   UNL     1      -1.197  11.816  22.872  0.00  0.00    +0.000 A 
ATOM      8  C   UNL     1      -1.179  10.501  23.320  0.00  0.00    +0.000 A 
ATOM      9  C   UNL     1      -0.508   9.531  22.576  0.00  0.00    +0.000 A 
ATOM     10  C   UNL     1       0.145   9.876  21.379  0.00  0.00    +0.000 A 
ATOM     11  C   UNL     1       0.811   8.924  20.591  0.00  0.00    +0.000 A 
ATOM     12  C   UNL     1       1.432   9.297  19.393  0.00  0.00    +0.000 A 
BRANCH   3  14
ATOM     13  C   UNL     1       2.587  12.389  18.043  0.00  0.00    +0.000 C 
ATOM     14  O   UNL     1       2.060  11.071  17.931  0.00  0.00    +0.000 OA
ENDBRANCH   3  14
ENDBRANCH   1  12
BRANCH   2  15
ATOM     15  C   UNL     1       2.964   6.032  18.068  0.00  0.00    +0.000 C 
ATOM     16  O   UNL     1       2.482   4.935  17.815  0.00  0.00    +0.000 OA
ATOM     17  N   UNL     1       4.178   6.529  17.605  0.00  0.00    +0.000 N 
ATOM     18  H   UNL     1       4.361   7.512  17.792  0.00  0.00    +0.000 HD
BRANCH  17  19
ATOM     19  C   UNL     1       5.135   5.827  16.868  0.00  0.00    +0.000 C 
ATOM     20  C   UNL     1       6.030   4.989  17.450  0.00  0.00    +0.000 C 
ATOM     21  C   UNL     1       7.110   4.269  16.665  0.00  0.00    +0.000 C 
ATOM     22  C   UNL     1       7.348   4.832  15.267  0.00  0.00    +0.000 C 
ATOM     23  C   UNL     1       6.027   5.077  14.566  0.00  0.00    +0.000 C 
ATOM     24  C   UNL     1       5.157   6.045  15.361  0.00  0.00    +0.000 C 
BRANCH  20  25
ATOM     25  C   UNL     1       6.103   4.705  18.910  0.00  0.00    +0.000 C 
ATOM     26  O   UNL     1       6.621   5.452  19.722  0.00  0.00    +0.000 OA
BRANCH  25  27
ATOM     27  O   UNL     1       5.586   3.501  19.249  0.00  0.00    +0.000 OA
ATOM     28  H   UNL     1       4.921   3.215  18.593  0.00  0.00    +0.000 HD
ENDBRANCH  25  27
ENDBRANCH  20  25
ENDBRANCH  17  19
ENDBRANCH   2  15
TORSDOF 6
ENDMDL
MODEL 6
REMARK VINA RESULT:      -7.9      1.744      2.103
REMARK  Name = 
REMARK  7 active torsions:
REMARK  status: ('A' for Active; 'I' for Inactive)
REMARK    1  A    between atoms: C_1  and  O_2
REMARK    2  A    between atoms: O_2  and  C_3
REMARK    3  A    between atoms: C_12  and  C_13
REMARK    4  A    between atoms: C_14  and  C_15
REMARK    5  A    between atoms: N_17  and  C_18
REMARK    6  A    between atoms: C_19  and  C_20
REMARK    7  A    between atoms: C_20  and  O_22
REMARK                            x       y       z     vdW  Elec       q    Type
REMARK                         _______ _______ _______ _____ _____    ______ ____
ROOT
ATOM      1  C   UNL     1       8.787   9.408  18.598  0.00  0.00    +0.000 C 
ATOM      2  C   UNL     1       8.036   9.172  17.508  0.00  0.00    +0.000 C 
ENDROOT
BRANCH   1  12
ATOM      3  C   UNL     1       9.558  11.290  20.136  0.00  0.00    +0.000 A 
ATOM      4  N   UNL     1      10.210  12.453  20.374  0.00  0.00    +0.000 NA
ATOM      5  C   UNL     1      10.815  13.066  19.347  0.00  0.00    +0.000 A 
ATOM      6  C   UNL     1      11.499  14.251  19.573  0.00  0.00    +0.000 A 
ATOM      7  C   UNL     1      12.140  14.938  18.540  0.00  0.00    +0.000 A 
ATOM      8  C   UNL     1      12.096  14.437  17.244  0.00  0.00    +0.000 A 
ATOM      9  C   UNL     1      11.416  13.247  16.991  0.00  0.00    +0.000 A 
ATOM     10  C   UNL     1      10.780  12.552  18.035  0.00  0.00    +0.000 A 
ATOM     11  C   UNL     1      10.105  11.340  17.823  0.00  0.00    +0.000 A 
ATOM     12  C   UNL     1       9.502  10.662  18.889  0.00  0.00    +0.000 A 
BRANCH   3  14
ATOM     13  C   UNL     1       8.482  11.609  22.188  0.00  0.00    +0.000 C 
ATOM     14  O   UNL     1       8.917  10.681  21.200  0.00  0.00    +0.000 OA
ENDBRANCH   3  14
ENDBRANCH   1  12
BRANCH   2  15
ATOM     15  C   UNL     1       7.424   7.827  17.339  0.00  0.00    +0.000 C 
ATOM     16  O   UNL     1       7.900   7.023  16.547  0.00  0.00    +0.000 OA
ATOM     17  N   UNL     1       6.288   7.644  18.120  0.00  0.00    +0.000 N 
ATOM     18  H   UNL     1       6.114   8.352  18.830  0.00  0.00    +0.000 HD
BRANCH  17  19
ATOM     19  C   UNL     1       5.404   6.564  18.061  0.00  0.00    +0.000 C 
ATOM     20  C   UNL     1       5.757   5.313  18.454  0.00  0.00    +0.000 C 
ATOM     21  C   UNL     1       4.823   4.124  18.338  0.00  0.00    +0.000 C 
ATOM     22  C   UNL     1       3.623   4.357  17.423  0.00  0.00    +0.000 C 
ATOM     23  C   UNL     1       2.996   5.705  17.710  0.00  0.00    +0.000 C 
ATOM     24  C   UNL     1       4.007   6.832  17.518  0.00  0.00    +0.000 C 
BRANCH  20  25
ATOM     25  C   UNL     1       7.092   4.938  18.995  0.00  0.00    +0.000 C 
ATOM     26  O   UNL     1       7.496   5.267  20.097  0.00  0.00    +0.000 OA
BRANCH  25  27
ATOM     27  O   UNL     1       7.848   4.237  18.118  0.00  0.00    +0.000 OA
ATOM     28  H   UNL     1       8.368   4.841  17.551  0.00  0.00    +0.000 HD
ENDBRANCH  25  27
ENDBRANCH  20  25
ENDBRANCH  17  19
ENDBRANCH   2  15
TORSDOF 6
ENDMDL
MODEL 7
REMARK VINA RESULT:      -7.8      7.377     11.432
REMARK  Name = 
REMARK  7 active torsions:
REMARK  status: ('A' for Active; 'I' for Inactive)
REMARK    1  A    between atoms: C_1  and  O_2
REMARK    2  A    between atoms: O_2  and  C_3
REMARK    3  A    between atoms: C_12  and  C_13
REMARK    4  A    between atoms: C_14  and  C_15
REMARK    5  A    between atoms: N_17  and  C_18
REMARK    6  A    between atoms: C_19  and  C_20
REMARK    7  A    between atoms: C_20  and  O_22
REMARK                            x       y       z     vdW  Elec       q    Type
REMARK                         _______ _______ _______ _____ _____    ______ ____
ROOT
ATOM      1  C   UNL     1       1.438   8.251  21.130  0.00  0.00    +0.000 C 
ATOM      2  C   UNL     1       0.198   8.708  21.378  0.00  0.00    +0.000 C 
ENDROOT
BRANCH   1  12
ATOM      3  C   UNL     1       2.339   7.143  19.018  0.00  0.00    +0.000 A 
ATOM      4  N   UNL     1       2.618   6.055  18.260  0.00  0.00    +0.000 NA
ATOM      5  C   UNL     1       2.299   4.845  18.740  0.00  0.00    +0.000 A 
ATOM      6  C   UNL     1       2.589   3.719  17.984  0.00  0.00    +0.000 A 
ATOM      7  C   UNL     1       2.272   2.433  18.430  0.00  0.00    +0.000 A 
ATOM      8  C   UNL     1       1.643   2.262  19.658  0.00  0.00    +0.000 A 
ATOM      9  C   UNL     1       1.342   3.378  20.437  0.00  0.00    +0.000 A 
ATOM     10  C   UNL     1       1.672   4.670  19.990  0.00  0.00    +0.000 A 
ATOM     11  C   UNL     1       1.406   5.816  20.756  0.00  0.00    +0.000 A 
ATOM     12  C   UNL     1       1.768   7.086  20.292  0.00  0.00    +0.000 A 
BRANCH   3  14
ATOM     13  C   UNL     1       1.624   8.909  17.662  0.00  0.00    +0.000 C 
ATOM     14  O   UNL     1       2.650   8.386  18.500  0.00  0.00    +0.000 OA
ENDBRANCH   3  14
ENDBRANCH   1  12
BRANCH   2  15
ATOM     15  C   UNL     1       0.034   9.868  22.295  0.00  0.00    +0.000 C 
ATOM     16  O   UNL     1       0.417   9.801  23.456  0.00  0.00    +0.000 OA
ATOM     17  N   UNL     1      -0.612  10.946  21.699  0.00  0.00    +0.000 N 
ATOM     18  H   UNL     1      -0.732  10.894  20.690  0.00  0.00    +0.000 HD
BRANCH  17  19
ATOM     19  C   UNL     1      -1.058  12.104  22.339  0.00  0.00    +0.000 C 
ATOM     20  C   UNL     1      -0.409  13.291  22.231  0.00  0.00    +0.000 C 
ATOM     21  C   UNL     1      -0.853  14.539  22.969  0.00  0.00    +0.000 C 
ATOM     22  C   UNL     1      -1.836  14.277  24.107  0.00  0.00    +0.000 C 
ATOM     23  C   UNL     1      -2.917  13.315  23.658  0.00  0.00    +0.000 C 
ATOM     24  C   UNL     1      -2.315  11.993  23.193  0.00  0.00    +0.000 C 
BRANCH  20  25
ATOM     25  C   UNL     1       0.826  13.513  21.430  0.00  0.00    +0.000 C 
ATOM     26  O   UNL     1       1.024  13.017  20.334  0.00  0.00    +0.000 OA
BRANCH  25  27
ATOM     27  O   UNL     1       1.745  14.280  22.062  0.00  0.00    +0.000 OA
ATOM     28  H   UNL     1       2.650  14.018  21.803  0.00  0.00    +0.000 HD
ENDBRANCH  25  27
ENDBRANCH  20  25
ENDBRANCH  17  19
ENDBRANCH   2  15
TORSDOF 6
ENDMDL
MODEL 8
REMARK VINA RESULT:      -7.6      6.633      9.624
REMARK  Name = 
REMARK  7 active torsions:
REMARK  status: ('A' for Active; 'I' for Inactive)
REMARK    1  A    between atoms: C_1  and  O_2
REMARK    2  A    between atoms: O_2  and  C_3
REMARK    3  A    between atoms: C_12  and  C_13
REMARK    4  A    between atoms: C_14  and  C_15
REMARK    5  A    between atoms: N_17  and  C_18
REMARK    6  A    between atoms: C_19  and  C_20
REMARK    7  A    between atoms: C_20  and  O_22
REMARK                            x       y       z     vdW  Elec       q    Type
REMARK                         _______ _______ _______ _____ _____    ______ ____
ROOT
ATOM      1  C   UNL     1       1.954   7.805  18.758  0.00  0.00    +0.000 C 
ATOM      2  C   UNL     1       1.611   8.920  18.089  0.00  0.00    +0.000 C 
ENDROOT
BRANCH   1  12
ATOM      3  C   UNL     1       2.998   5.480  18.825  0.00  0.00    +0.000 A 
ATOM      4  N   UNL     1       3.836   4.527  18.351  0.00  0.00    +0.000 NA
ATOM      5  C   UNL     1       4.595   4.820  17.286  0.00  0.00    +0.000 A 
ATOM      6  C   UNL     1       5.450   3.853  16.778  0.00  0.00    +0.000 A 
ATOM      7  C   UNL     1       6.270   4.104  15.675  0.00  0.00    +0.000 A 
ATOM      8  C   UNL     1       6.245   5.352  15.064  0.00  0.00    +0.000 A 
ATOM      9  C   UNL     1       5.394   6.341  15.555  0.00  0.00    +0.000 A 
ATOM     10  C   UNL     1       4.562   6.082  16.659  0.00  0.00    +0.000 A 
ATOM     11  C   UNL     1       3.675   7.043  17.167  0.00  0.00    +0.000 A 
ATOM     12  C   UNL     1       2.844   6.745  18.254  0.00  0.00    +0.000 A 
BRANCH   3  14
ATOM     13  C   UNL     1       1.467   3.989  19.776  0.00  0.00    +0.000 C 
ATOM     14  O   UNL     1       2.240   5.173  19.940  0.00  0.00    +0.000 OA
ENDBRANCH   3  14
ENDBRANCH   1  12
BRANCH   2  15
ATOM     15  C   UNL     1       0.654   9.867  18.723  0.00  0.00    +0.000 C 
ATOM     16  O   UNL     1      -0.324  10.269  18.104  0.00  0.00    +0.000 OA
ATOM     17  N   UNL     1       1.028  10.238  20.009  0.00  0.00    +0.000 N 
ATOM     18  H   UNL     1       1.784   9.702  20.429  0.00  0.00    +0.000 HD
BRANCH  17  19
ATOM     19  C   UNL     1       0.434  11.231  20.793  0.00  0.00    +0.000 C 
ATOM     20  C   UNL     1      -0.205  10.953  21.958  0.00  0.00    +0.000 C 
ATOM     21  C   UNL     1      -0.903  12.015  22.784  0.00  0.00    +0.000 C 
ATOM     22  C   UNL     1      -1.150  13.325  22.040  0.00  0.00    +0.000 C 
ATOM     23  C   UNL     1       0.093  13.742  21.281  0.00  0.00    +0.000 C 
ATOM     24  C   UNL     1       0.514  12.665  20.286  0.00  0.00    +0.000 C 
BRANCH  20  25
ATOM     25  C   UNL     1      -0.347   9.591  22.544  0.00  0.00    +0.000 C 
ATOM     26  O   UNL     1      -0.672   8.607  21.903  0.00  0.00    +0.000 OA
BRANCH  25  27
ATOM     27  O   UNL     1      -0.135   9.558  23.880  0.00  0.00    +0.000 OA
ATOM     28  H   UNL     1      -0.703   8.885  24.303  0.00  0.00    +0.000 HD
ENDBRANCH  25  27
ENDBRANCH  20  25
ENDBRANCH  17  19
ENDBRANCH   2  15
TORSDOF 6
ENDMDL
MODEL 9
REMARK VINA RESULT:      -7.6      5.868     10.442
REMARK  Name = 
REMARK  7 active torsions:
REMARK  status: ('A' for Active; 'I' for Inactive)
REMARK    1  A    between atoms: C_1  and  O_2
REMARK    2  A    between atoms: O_2  and  C_3
REMARK    3  A    between atoms: C_12  and  C_13
REMARK    4  A    between atoms: C_14  and  C_15
REMARK    5  A    between atoms: N_17  and  C_18
REMARK    6  A    between atoms: C_19  and  C_20
REMARK    7  A    between atoms: C_20  and  O_22
REMARK                            x       y       z     vdW  Elec       q    Type
REMARK                         _______ _______ _______ _____ _____    ______ ____
ROOT
ATOM      1  C   UNL     1       2.117   7.934  19.130  0.00  0.00    +0.000 C 
ATOM      2  C   UNL     1       1.625   8.855  18.282  0.00  0.00    +0.000 C 
ENDROOT
BRANCH   1  12
ATOM      3  C   UNL     1       3.707   6.343  17.929  0.00  0.00    +0.000 A 
ATOM      4  N   UNL     1       4.127   5.103  17.583  0.00  0.00    +0.000 NA
ATOM      5  C   UNL     1       3.430   4.047  18.026  0.00  0.00    +0.000 A 
ATOM      6  C   UNL     1       3.852   2.769  17.693  0.00  0.00    +0.000 A 
ATOM      7  C   UNL     1       3.160   1.632  18.118  0.00  0.00    +0.000 A 
ATOM      8  C   UNL     1       2.013   1.770  18.891  0.00  0.00    +0.000 A 
ATOM      9  C   UNL     1       1.568   3.044  19.239  0.00  0.00    +0.000 A 
ATOM     10  C   UNL     1       2.273   4.186  18.818  0.00  0.00    +0.000 A 
ATOM     11  C   UNL     1       1.870   5.484  19.169  0.00  0.00    +0.000 A 
ATOM     12  C   UNL     1       2.607   6.598  18.752  0.00  0.00    +0.000 A 
BRANCH   3  14
ATOM     13  C   UNL     1       5.759   7.089  17.091  0.00  0.00    +0.000 C 
ATOM     14  O   UNL     1       4.421   7.424  17.445  0.00  0.00    +0.000 OA
ENDBRANCH   3  14
ENDBRANCH   1  12
BRANCH   2  15
ATOM     15  C   UNL     1       1.120  10.139  18.836  0.00  0.00    +0.000 C 
ATOM     16  O   UNL     1       1.677  11.196  18.562  0.00  0.00    +0.000 OA
ATOM     17  N   UNL     1       0.031   9.974  19.686  0.00  0.00    +0.000 N 
ATOM     18  H   UNL     1      -0.398   9.052  19.690  0.00  0.00    +0.000 HD
BRANCH  17  19
ATOM     19  C   UNL     1      -0.556  10.959  20.484  0.00  0.00    +0.000 C 
ATOM     20  C   UNL     1      -0.476  10.940  21.839  0.00  0.00    +0.000 C 
ATOM     21  C   UNL     1      -1.160  11.971  22.715  0.00  0.00    +0.000 C 
ATOM     22  C   UNL     1      -2.226  12.794  21.997  0.00  0.00    +0.000 C 
ATOM     23  C   UNL     1      -1.715  13.258  20.649  0.00  0.00    +0.000 C 
ATOM     24  C   UNL     1      -1.317  12.072  19.776  0.00  0.00    +0.000 C 
BRANCH  20  25
ATOM     25  C   UNL     1       0.237   9.901  22.633  0.00  0.00    +0.000 C 
ATOM     26  O   UNL     1       1.398   9.582  22.447  0.00  0.00    +0.000 OA
BRANCH  25  27
ATOM     27  O   UNL     1      -0.550   9.296  23.553  0.00  0.00    +0.000 OA
ATOM     28  H   UNL     1      -1.494   9.417  23.332  0.00  0.00    +0.000 HD
ENDBRANCH  25  27
ENDBRANCH  20  25
ENDBRANCH  17  19
ENDBRANCH   2  15
TORSDOF 6
ENDMDL
