MODEL 1
REMARK VINA RESULT:      -7.5      0.000      0.000
REMARK  Name = 
REMARK  6 active torsions:
REMARK  status: ('A' for Active; 'I' for Inactive)
REMARK    1  A    between atoms: C_1  and  C_2
REMARK    2  A    between atoms: C_5  and  C_6
REMARK    3  A    between atoms: N_7  and  O_8
REMARK    4  A    between atoms: N_9  and  C_10
REMARK    5  A    between atoms: C_15  and  O_16
REMARK    6  A    between atoms: O_16  and  C_17
REMARK                            x       y       z     vdW  Elec       q    Type
REMARK                         _______ _______ _______ _____ _____    ______ ____
ROOT
ATOM      1  C   UNL     1       0.249   2.659  19.886  0.00  0.00    +0.000 C 
ATOM      2  C   UNL     1       1.423   3.182  19.121  0.00  0.00    +0.000 A 
ATOM      3  C   UNL     1       1.895   2.561  17.975  0.00  0.00    +0.000 A 
ATOM      4  C   UNL     1       3.038   3.075  17.359  0.00  0.00    +0.000 A 
ATOM      5  C   UNL     1       3.676   4.224  17.861  0.00  0.00    +0.000 A 
ATOM      6  C   UNL     1       3.075   4.843  18.967  0.00  0.00    +0.000 A 
ATOM      7  N   UNL     1       1.999   4.301  19.609  0.00  0.00    +0.000 NA
ENDROOT
BRANCH   5   8
ATOM      8  C   UNL     1       4.983   4.677  17.228  0.00  0.00    +0.000 C 
ATOM      9  N   UNL     1       5.069   4.471  15.949  0.00  0.00    +0.000 NA
ATOM     10  N   UNL     1       5.909   5.288  18.074  0.00  0.00    +0.000 N 
ATOM     11  H   UNL     1       6.110   4.738  18.907  0.00  0.00    +0.000 HD
BRANCH  10  12
ATOM     12  C   UNL     1       7.008   6.179  17.718  0.00  0.00    +0.000 C 
ATOM     13  C   UNL     1       6.558   7.600  17.373  0.00  0.00    +0.000 C 
ATOM     14  C   UNL     1       7.800   8.455  17.596  0.00  0.00    +0.000 C 
ATOM     15  C   UNL     1       8.566   7.787  18.730  0.00  0.00    +0.000 C 
ATOM     16  C   UNL     1       7.892   6.431  18.950  0.00  0.00    +0.000 C 
ENDBRANCH  10  12
BRANCH   9  17
ATOM     17  O   UNL     1       6.305   4.789  15.400  0.00  0.00    +0.000 OA
ATOM     18  H   UNL     1       6.195   5.741  15.219  0.00  0.00    +0.000 HD
ENDBRANCH   9  17
ENDBRANCH   5   8
BRANCH   6  19
ATOM     19  O   UNL     1       3.519   6.081  19.438  0.00  0.00    +0.000 OA
BRANCH  19  20
ATOM     20  C   UNL     1       2.850   7.209  18.978  0.00  0.00    +0.000 A 
ATOM     21  C   UNL     1       3.048   7.663  17.667  0.00  0.00    +0.000 A 
ATOM     22  C   UNL     1       2.298   8.718  17.158  0.00  0.00    +0.000 A 
ATOM     23  C   UNL     1       1.346   9.337  17.961  0.00  0.00    +0.000 A 
ATOM     24  C   UNL     1       1.172   8.939  19.296  0.00  0.00    +0.000 A 
ATOM     25  C   UNL     1       1.981   7.912  19.839  0.00  0.00    +0.000 A 
ATOM     26  C   UNL     1       1.889   7.564  21.307  0.00  0.00    +0.000 C 
ATOM     27  C   UNL     1       1.115   8.603  22.134  0.00  0.00    +0.000 C 
ATOM     28  C   UNL     1      -0.187   8.970  21.439  0.00  0.00    +0.000 C 
ATOM     29  C   UNL     1       0.117   9.653  20.109  0.00  0.00    +0.000 C 
ENDBRANCH  19  20
ENDBRANCH   6  19
TORSDOF 5
ENDMDL
MODEL 2
REMARK VINA RESULT:      -7.0      4.661      7.608
REMARK  Name = 
REMARK  6 active torsions:
REMARK  status: ('A' for Active; 'I' for Inactive)
REMARK    1  A    between atoms: C_1  and  C_2
REMARK    2  A    between atoms: C_5  and  C_6
REMARK    3  A    between atoms: N_7  and  O_8
REMARK    4  A    between atoms: N_9  and  C_10
REMARK    5  A    between atoms: C_15  and  O_16
REMARK    6  A    between atoms: O_16  and  C_17
REMARK                            x       y       z     vdW  Elec       q    Type
REMARK                         _______ _______ _______ _____ _____    ______ ____
ROOT
ATOM      1  C   UNL     1      -3.136   9.636  17.097  0.00  0.00    +0.000 C 
ATOM      2  C   UNL     1      -2.152  10.467  17.858  0.00  0.00    +0.000 A 
ATOM      3  C   UNL     1      -2.528  11.603  18.558  0.00  0.00    +0.000 A 
ATOM      4  C   UNL     1      -1.537  12.360  19.185  0.00  0.00    +0.000 A 
ATOM      5  C   UNL     1      -0.188  11.959  19.147  0.00  0.00    +0.000 A 
ATOM      6  C   UNL     1       0.089  10.746  18.499  0.00  0.00    +0.000 A 
ATOM      7  N   UNL     1      -0.870  10.045  17.829  0.00  0.00    +0.000 NA
ENDROOT
BRANCH   5   8
ATOM      8  C   UNL     1       0.870  12.877  19.744  0.00  0.00    +0.000 C 
ATOM      9  N   UNL     1       1.316  12.511  20.906  0.00  0.00    +0.000 NA
ATOM     10  N   UNL     1       1.261  13.967  18.966  0.00  0.00    +0.000 N 
ATOM     11  H   UNL     1       0.475  14.525  18.639  0.00  0.00    +0.000 HD
BRANCH  10  12
ATOM     12  C   UNL     1       2.495  14.741  19.051  0.00  0.00    +0.000 C 
ATOM     13  C   UNL     1       3.646  14.151  18.236  0.00  0.00    +0.000 C 
ATOM     14  C   UNL     1       4.584  15.328  17.996  0.00  0.00    +0.000 C 
ATOM     15  C   UNL     1       3.690  16.559  17.909  0.00  0.00    +0.000 C 
ATOM     16  C   UNL     1       2.303  16.103  18.363  0.00  0.00    +0.000 C 
ENDBRANCH  10  12
BRANCH   9  17
ATOM     17  O   UNL     1       2.200  13.410  21.489  0.00  0.00    +0.000 OA
ATOM     18  H   UNL     1       1.927  14.247  21.070  0.00  0.00    +0.000 HD
ENDBRANCH   9  17
ENDBRANCH   5   8
BRANCH   6  19
ATOM     19  O   UNL     1       1.359  10.166  18.553  0.00  0.00    +0.000 OA
BRANCH  19  20
ATOM     20  C   UNL     1       1.506   9.042  19.354  0.00  0.00    +0.000 A 
ATOM     21  C   UNL     1       0.917   8.997  20.626  0.00  0.00    +0.000 A 
ATOM     22  C   UNL     1       0.958   7.834  21.388  0.00  0.00    +0.000 A 
ATOM     23  C   UNL     1       1.598   6.705  20.890  0.00  0.00    +0.000 A 
ATOM     24  C   UNL     1       2.247   6.744  19.646  0.00  0.00    +0.000 A 
ATOM     25  C   UNL     1       2.268   7.945  18.896  0.00  0.00    +0.000 A 
ATOM     26  C   UNL     1       3.070   8.034  17.618  0.00  0.00    +0.000 C 
ATOM     27  C   UNL     1       4.047   6.862  17.427  0.00  0.00    +0.000 C 
ATOM     28  C   UNL     1       3.347   5.540  17.702  0.00  0.00    +0.000 C 
ATOM     29  C   UNL     1       2.920   5.480  19.165  0.00  0.00    +0.000 C 
ENDBRANCH  19  20
ENDBRANCH   6  19
TORSDOF 5
ENDMDL
MODEL 3
REMARK VINA RESULT:      -6.8      0.908      2.010
REMARK  Name = 
REMARK  6 active torsions:
REMARK  status: ('A' for Active; 'I' for Inactive)
REMARK    1  A    between atoms: C_1  and  C_2
REMARK    2  A    between atoms: C_5  and  C_6
REMARK    3  A    between atoms: N_7  and  O_8
REMARK    4  A    between atoms: N_9  and  C_10
REMARK    5  A    between atoms: C_15  and  O_16
REMARK    6  A    between atoms: O_16  and  C_17
REMARK                            x       y       z     vdW  Elec       q    Type
REMARK                         _______ _______ _______ _____ _____    ______ ____
ROOT
ATOM      1  C   UNL     1       0.508   2.699  19.222  0.00  0.00    +0.000 C 
ATOM      2  C   UNL     1       1.686   3.282  18.508  0.00  0.00    +0.000 A 
ATOM      3  C   UNL     1       2.462   2.539  17.632  0.00  0.00    +0.000 A 
ATOM      4  C   UNL     1       3.585   3.141  17.060  0.00  0.00    +0.000 A 
ATOM      5  C   UNL     1       3.902   4.485  17.330  0.00  0.00    +0.000 A 
ATOM      6  C   UNL     1       3.008   5.188  18.151  0.00  0.00    +0.000 A 
ATOM      7  N   UNL     1       1.951   4.581  18.764  0.00  0.00    +0.000 NA
ENDROOT
BRANCH   5   8
ATOM      8  C   UNL     1       5.198   5.061  16.778  0.00  0.00    +0.000 C 
ATOM      9  N   UNL     1       5.271   5.095  15.483  0.00  0.00    +0.000 NA
ATOM     10  N   UNL     1       6.128   5.515  17.714  0.00  0.00    +0.000 N 
ATOM     11  H   UNL     1       6.343   4.823  18.429  0.00  0.00    +0.000 HD
BRANCH  10  12
ATOM     12  C   UNL     1       7.215   6.469  17.517  0.00  0.00    +0.000 C 
ATOM     13  C   UNL     1       6.739   7.911  17.334  0.00  0.00    +0.000 C 
ATOM     14  C   UNL     1       7.948   8.759  17.713  0.00  0.00    +0.000 C 
ATOM     15  C   UNL     1       8.688   7.971  18.786  0.00  0.00    +0.000 C 
ATOM     16  C   UNL     1       8.044   6.584  18.808  0.00  0.00    +0.000 C 
ENDBRANCH  10  12
BRANCH   9  17
ATOM     17  O   UNL     1       6.498   5.521  14.990  0.00  0.00    +0.000 OA
ATOM     18  H   UNL     1       7.064   4.754  15.194  0.00  0.00    +0.000 HD
ENDBRANCH   9  17
ENDBRANCH   5   8
BRANCH   6  19
ATOM     19  O   UNL     1       3.127   6.567  18.342  0.00  0.00    +0.000 OA
BRANCH  19  20
ATOM     20  C   UNL     1       2.289   7.149  19.285  0.00  0.00    +0.000 A 
ATOM     21  C   UNL     1       1.862   6.415  20.400  0.00  0.00    +0.000 A 
ATOM     22  C   UNL     1       1.121   7.021  21.410  0.00  0.00    +0.000 A 
ATOM     23  C   UNL     1       0.790   8.368  21.308  0.00  0.00    +0.000 A 
ATOM     24  C   UNL     1       1.155   9.108  20.172  0.00  0.00    +0.000 A 
ATOM     25  C   UNL     1       1.849   8.478  19.111  0.00  0.00    +0.000 A 
ATOM     26  C   UNL     1       2.134   9.232  17.832  0.00  0.00    +0.000 C 
ATOM     27  C   UNL     1       1.347  10.547  17.709  0.00  0.00    +0.000 C 
ATOM     28  C   UNL     1       1.440  11.342  19.003  0.00  0.00    +0.000 C 
ATOM     29  C   UNL     1       0.764  10.567  20.130  0.00  0.00    +0.000 C 
ENDBRANCH  19  20
ENDBRANCH   6  19
TORSDOF 5
ENDMDL
MODEL 4
REMARK VINA RESULT:      -6.8      5.473     10.089
REMARK  Name = 
REMARK  6 active torsions:
REMARK  status: ('A' for Active; 'I' for Inactive)
REMARK    1  A    between atoms: C_1  and  C_2
REMARK    2  A    between atoms: C_5  and  C_6
REMARK    3  A    between atoms: N_7  and  O_8
REMARK    4  A    between atoms: N_9  and  C_10
REMARK    5  A    between atoms: C_15  and  O_16
REMARK    6  A    between atoms: O_16  and  C_17
REMARK                            x       y       z     vdW  Elec       q    Type
REMARK                         _______ _______ _______ _____ _____    ______ ____
ROOT
ATOM      1  C   UNL     1       2.684  14.505  18.369  0.00  0.00    +0.000 C 
ATOM      2  C   UNL     1       1.294  14.131  18.774  0.00  0.00    +0.000 A 
ATOM      3  C   UNL     1       0.349  15.077  19.136  0.00  0.00    +0.000 A 
ATOM      4  C   UNL     1      -0.905  14.639  19.568  0.00  0.00    +0.000 A 
ATOM      5  C   UNL     1      -1.222  13.269  19.596  0.00  0.00    +0.000 A 
ATOM      6  C   UNL     1      -0.239  12.387  19.121  0.00  0.00    +0.000 A 
ATOM      7  N   UNL     1       1.008  12.811  18.766  0.00  0.00    +0.000 NA
ENDROOT
BRANCH   5   8
ATOM      8  C   UNL     1      -2.556  12.833  20.184  0.00  0.00    +0.000 C 
ATOM      9  N   UNL     1      -2.696  13.071  21.452  0.00  0.00    +0.000 NA
ATOM     10  N   UNL     1      -3.476  12.272  19.298  0.00  0.00    +0.000 N 
ATOM     11  H   UNL     1      -3.085  11.510  18.747  0.00  0.00    +0.000 HD
BRANCH  10  12
ATOM     12  C   UNL     1      -4.924  12.163  19.447  0.00  0.00    +0.000 C 
ATOM     13  C   UNL     1      -5.678  13.432  19.046  0.00  0.00    +0.000 C 
ATOM     14  C   UNL     1      -7.089  12.949  18.731  0.00  0.00    +0.000 C 
ATOM     15  C   UNL     1      -6.931  11.540  18.176  0.00  0.00    +0.000 C 
ATOM     16  C   UNL     1      -5.476  11.148  18.433  0.00  0.00    +0.000 C 
ENDBRANCH  10  12
BRANCH   9  17
ATOM     17  O   UNL     1      -3.871  12.574  22.002  0.00  0.00    +0.000 OA
ATOM     18  H   UNL     1      -4.494  13.301  21.813  0.00  0.00    +0.000 HD
ENDBRANCH   9  17
ENDBRANCH   5   8
BRANCH   6  19
ATOM     19  O   UNL     1      -0.508  11.028  18.939  0.00  0.00    +0.000 OA
BRANCH  19  20
ATOM     20  C   UNL     1       0.089  10.142  19.826  0.00  0.00    +0.000 A 
ATOM     21  C   UNL     1      -0.223  10.191  21.193  0.00  0.00    +0.000 A 
ATOM     22  C   UNL     1       0.276   9.235  22.072  0.00  0.00    +0.000 A 
ATOM     23  C   UNL     1       1.102   8.224  21.593  0.00  0.00    +0.000 A 
ATOM     24  C   UNL     1       1.478   8.189  20.241  0.00  0.00    +0.000 A 
ATOM     25  C   UNL     1       1.028   9.199  19.356  0.00  0.00    +0.000 A 
ATOM     26  C   UNL     1       1.528   9.242  17.930  0.00  0.00    +0.000 C 
ATOM     27  C   UNL     1       2.739   8.330  17.679  0.00  0.00    +0.000 C 
ATOM     28  C   UNL     1       2.495   6.951  18.274  0.00  0.00    +0.000 C 
ATOM     29  C   UNL     1       2.376   7.061  19.791  0.00  0.00    +0.000 C 
ENDBRANCH  19  20
ENDBRANCH   6  19
TORSDOF 5
ENDMDL
MODEL 5
REMARK VINA RESULT:      -6.7      5.149      9.390
REMARK  Name = 
REMARK  6 active torsions:
REMARK  status: ('A' for Active; 'I' for Inactive)
REMARK    1  A    between atoms: C_1  and  C_2
REMARK    2  A    between atoms: C_5  and  C_6
REMARK    3  A    between atoms: N_7  and  O_8
REMARK    4  A    between atoms: N_9  and  C_10
REMARK    5  A    between atoms: C_15  and  O_16
REMARK    6  A    between atoms: O_16  and  C_17
REMARK                            x       y       z     vdW  Elec       q    Type
REMARK                         _______ _______ _______ _____ _____    ______ ____
ROOT
ATOM      1  C   UNL     1      -2.856   9.535  15.520  0.00  0.00    +0.000 C 
ATOM      2  C   UNL     1      -2.719  10.322  16.785  0.00  0.00    +0.000 A 
ATOM      3  C   UNL     1      -3.817  10.799  17.482  0.00  0.00    +0.000 A 
ATOM      4  C   UNL     1      -3.600  11.585  18.616  0.00  0.00    +0.000 A 
ATOM      5  C   UNL     1      -2.295  11.853  19.070  0.00  0.00    +0.000 A 
ATOM      6  C   UNL     1      -1.246  11.251  18.360  0.00  0.00    +0.000 A 
ATOM      7  N   UNL     1      -1.458  10.542  17.213  0.00  0.00    +0.000 NA
ENDROOT
BRANCH   5   8
ATOM      8  C   UNL     1      -2.104  12.809  20.239  0.00  0.00    +0.000 C 
ATOM      9  N   UNL     1      -1.478  13.907  19.948  0.00  0.00    +0.000 NA
ATOM     10  N   UNL     1      -2.651  12.418  21.462  0.00  0.00    +0.000 N 
ATOM     11  H   UNL     1      -2.369  11.480  21.742  0.00  0.00    +0.000 HD
BRANCH  10  12
ATOM     12  C   UNL     1      -3.006  13.256  22.602  0.00  0.00    +0.000 C 
ATOM     13  C   UNL     1      -4.344  13.979  22.438  0.00  0.00    +0.000 C 
ATOM     14  C   UNL     1      -4.779  14.299  23.864  0.00  0.00    +0.000 C 
ATOM     15  C   UNL     1      -4.238  13.166  24.726  0.00  0.00    +0.000 C 
ATOM     16  C   UNL     1      -3.288  12.372  23.829  0.00  0.00    +0.000 C 
ENDBRANCH  10  12
BRANCH   9  17
ATOM     17  O   UNL     1      -1.214  14.723  21.041  0.00  0.00    +0.000 OA
ATOM     18  H   UNL     1      -0.453  15.239  20.716  0.00  0.00    +0.000 HD
ENDBRANCH   9  17
ENDBRANCH   5   8
BRANCH   6  19
ATOM     19  O   UNL     1       0.071  11.304  18.823  0.00  0.00    +0.000 OA
BRANCH  19  20
ATOM     20  C   UNL     1       0.469  10.312  19.711  0.00  0.00    +0.000 A 
ATOM     21  C   UNL     1       0.074  10.368  21.055  0.00  0.00    +0.000 A 
ATOM     22  C   UNL     1       0.367   9.322  21.926  0.00  0.00    +0.000 A 
ATOM     23  C   UNL     1       1.066   8.214  21.462  0.00  0.00    +0.000 A 
ATOM     24  C   UNL     1       1.523   8.164  20.136  0.00  0.00    +0.000 A 
ATOM     25  C   UNL     1       1.289   9.255  19.264  0.00  0.00    +0.000 A 
ATOM     26  C   UNL     1       1.885   9.264  17.875  0.00  0.00    +0.000 C 
ATOM     27  C   UNL     1       2.964   8.189  17.666  0.00  0.00    +0.000 C 
ATOM     28  C   UNL     1       2.480   6.846  18.190  0.00  0.00    +0.000 C 
ATOM     29  C   UNL     1       2.274   6.927  19.699  0.00  0.00    +0.000 C 
ENDBRANCH  19  20
ENDBRANCH   6  19
TORSDOF 5
ENDMDL
MODEL 6
REMARK VINA RESULT:      -6.6      2.174      6.609
REMARK  Name = 
REMARK  6 active torsions:
REMARK  status: ('A' for Active; 'I' for Inactive)
REMARK    1  A    between atoms: C_1  and  C_2
REMARK    2  A    between atoms: C_5  and  C_6
REMARK    3  A    between atoms: N_7  and  O_8
REMARK    4  A    between atoms: N_9  and  C_10
REMARK    5  A    between atoms: C_15  and  O_16
REMARK    6  A    between atoms: O_16  and  C_17
REMARK                            x       y       z     vdW  Elec       q    Type
REMARK                         _______ _______ _______ _____ _____    ______ ____
ROOT
ATOM      1  C   UNL     1       2.021   1.885  19.402  0.00  0.00    +0.000 C 
ATOM      2  C   UNL     1       2.015   3.360  19.645  0.00  0.00    +0.000 A 
ATOM      3  C   UNL     1       1.360   3.929  20.726  0.00  0.00    +0.000 A 
ATOM      4  C   UNL     1       1.346   5.321  20.842  0.00  0.00    +0.000 A 
ATOM      5  C   UNL     1       2.017   6.131  19.908  0.00  0.00    +0.000 A 
ATOM      6  C   UNL     1       2.734   5.468  18.901  0.00  0.00    +0.000 A 
ATOM      7  N   UNL     1       2.690   4.113  18.749  0.00  0.00    +0.000 NA
ENDROOT
BRANCH   5   8
ATOM      8  C   UNL     1       1.875   7.643  20.008  0.00  0.00    +0.000 C 
ATOM      9  N   UNL     1       2.014   8.280  18.885  0.00  0.00    +0.000 NA
ATOM     10  N   UNL     1       1.576   8.161  21.269  0.00  0.00    +0.000 N 
ATOM     11  H   UNL     1       2.211   7.832  21.994  0.00  0.00    +0.000 HD
BRANCH  10  12
ATOM     12  C   UNL     1       0.975   9.449  21.598  0.00  0.00    +0.000 C 
ATOM     13  C   UNL     1      -0.308   9.743  20.820  0.00  0.00    +0.000 C 
ATOM     14  C   UNL     1      -1.039  10.774  21.671  0.00  0.00    +0.000 C 
ATOM     15  C   UNL     1      -0.676  10.452  23.115  0.00  0.00    +0.000 C 
ATOM     16  C   UNL     1       0.454   9.424  23.045  0.00  0.00    +0.000 C 
ENDBRANCH  10  12
BRANCH   9  17
ATOM     17  O   UNL     1       1.990   9.663  19.005  0.00  0.00    +0.000 OA
ATOM     18  H   UNL     1       1.318   9.901  18.338  0.00  0.00    +0.000 HD
ENDBRANCH   9  17
ENDBRANCH   5   8
BRANCH   6  19
ATOM     19  O   UNL     1       3.576   6.163  18.029  0.00  0.00    +0.000 OA
BRANCH  19  20
ATOM     20  C   UNL     1       4.919   5.805  18.029  0.00  0.00    +0.000 A 
ATOM     21  C   UNL     1       5.668   5.870  19.213  0.00  0.00    +0.000 A 
ATOM     22  C   UNL     1       6.978   5.404  19.251  0.00  0.00    +0.000 A 
ATOM     23  C   UNL     1       7.556   4.877  18.102  0.00  0.00    +0.000 A 
ATOM     24  C   UNL     1       6.846   4.857  16.891  0.00  0.00    +0.000 A 
ATOM     25  C   UNL     1       5.537   5.393  16.830  0.00  0.00    +0.000 A 
ATOM     26  C   UNL     1       4.814   5.492  15.506  0.00  0.00    +0.000 C 
ATOM     27  C   UNL     1       5.729   5.268  14.291  0.00  0.00    +0.000 C 
ATOM     28  C   UNL     1       6.596   4.036  14.503  0.00  0.00    +0.000 C 
ATOM     29  C   UNL     1       7.536   4.267  15.683  0.00  0.00    +0.000 C 
ENDBRANCH  19  20
ENDBRANCH   6  19
TORSDOF 5
ENDMDL
MODEL 7
REMARK VINA RESULT:      -6.6      1.748      2.348
REMARK  Name = 
REMARK  6 active torsions:
REMARK  status: ('A' for Active; 'I' for Inactive)
REMARK    1  A    between atoms: C_1  and  C_2
REMARK    2  A    between atoms: C_5  and  C_6
REMARK    3  A    between atoms: N_7  and  O_8
REMARK    4  A    between atoms: N_9  and  C_10
REMARK    5  A    between atoms: C_15  and  O_16
REMARK    6  A    between atoms: O_16  and  C_17
REMARK                            x       y       z     vdW  Elec       q    Type
REMARK                         _______ _______ _______ _____ _____    ______ ____
ROOT
ATOM      1  C   UNL     1       0.010   2.828  20.246  0.00  0.00    +0.000 C 
ATOM      2  C   UNL     1       1.270   3.143  19.504  0.00  0.00    +0.000 A 
ATOM      3  C   UNL     1       1.738   2.348  18.470  0.00  0.00    +0.000 A 
ATOM      4  C   UNL     1       2.958   2.675  17.875  0.00  0.00    +0.000 A 
ATOM      5  C   UNL     1       3.680   3.812  18.284  0.00  0.00    +0.000 A 
ATOM      6  C   UNL     1       3.086   4.612  19.270  0.00  0.00    +0.000 A 
ATOM      7  N   UNL     1       1.928   4.254  19.898  0.00  0.00    +0.000 NA
ENDROOT
BRANCH   5   8
ATOM      8  C   UNL     1       5.059   4.062  17.689  0.00  0.00    +0.000 C 
ATOM      9  N   UNL     1       6.040   3.981  18.536  0.00  0.00    +0.000 NA
ATOM     10  N   UNL     1       5.113   4.306  16.317  0.00  0.00    +0.000 N 
ATOM     11  H   UNL     1       4.477   5.043  16.019  0.00  0.00    +0.000 HD
BRANCH  10  12
ATOM     12  C   UNL     1       6.250   4.154  15.416  0.00  0.00    +0.000 C 
ATOM     13  C   UNL     1       5.864   3.677  14.015  0.00  0.00    +0.000 C 
ATOM     14  C   UNL     1       7.023   4.122  13.130  0.00  0.00    +0.000 C 
ATOM     15  C   UNL     1       7.545   5.412  13.749  0.00  0.00    +0.000 C 
ATOM     16  C   UNL     1       6.857   5.534  15.110  0.00  0.00    +0.000 C 
ENDBRANCH  10  12
BRANCH   9  17
ATOM     17  O   UNL     1       7.281   4.315  18.007  0.00  0.00    +0.000 OA
ATOM     18  H   UNL     1       7.848   3.627  18.401  0.00  0.00    +0.000 HD
ENDBRANCH   9  17
ENDBRANCH   5   8
BRANCH   6  19
ATOM     19  O   UNL     1       3.626   5.851  19.625  0.00  0.00    +0.000 OA
BRANCH  19  20
ATOM     20  C   UNL     1       3.055   6.978  19.047  0.00  0.00    +0.000 A 
ATOM     21  C   UNL     1       3.393   7.350  17.738  0.00  0.00    +0.000 A 
ATOM     22  C   UNL     1       2.742   8.406  17.108  0.00  0.00    +0.000 A 
ATOM     23  C   UNL     1       1.750   9.107  17.785  0.00  0.00    +0.000 A 
ATOM     24  C   UNL     1       1.437   8.791  19.117  0.00  0.00    +0.000 A 
ATOM     25  C   UNL     1       2.145   7.763  19.786  0.00  0.00    +0.000 A 
ATOM     26  C   UNL     1       1.903   7.501  21.255  0.00  0.00    +0.000 C 
ATOM     27  C   UNL     1       1.106   8.617  21.952  0.00  0.00    +0.000 C 
ATOM     28  C   UNL     1      -0.108   8.998  21.119  0.00  0.00    +0.000 C 
ATOM     29  C   UNL     1       0.347   9.593  19.790  0.00  0.00    +0.000 C 
ENDBRANCH  19  20
ENDBRANCH   6  19
TORSDOF 5
ENDMDL
MODEL 8
REMARK VINA RESULT:      -6.5      6.281     10.290
REMARK  Name = 
REMARK  6 active torsions:
REMARK  status: ('A' for Active; 'I' for Inactive)
REMARK    1  A    between atoms: C_1  and  C_2
REMARK    2  A    between atoms: C_5  and  C_6
REMARK    3  A    between atoms: N_7  and  O_8
REMARK    4  A    between atoms: N_9  and  C_10
REMARK    5  A    between atoms: C_15  and  O_16
REMARK    6  A    between atoms: O_16  and  C_17
REMARK                            x       y       z     vdW  Elec       q    Type
REMARK                         _______ _______ _______ _____ _____    ______ ____
ROOT
ATOM      1  C   UNL     1       1.029   8.417  20.676  0.00  0.00    +0.000 C 
ATOM      2  C   UNL     1       0.231   9.463  21.386  0.00  0.00    +0.000 A 
ATOM      3  C   UNL     1       0.088   9.475  22.765  0.00  0.00    +0.000 A 
ATOM      4  C   UNL     1      -0.731  10.447  23.343  0.00  0.00    +0.000 A 
ATOM      5  C   UNL     1      -1.365  11.422  22.552  0.00  0.00    +0.000 A 
ATOM      6  C   UNL     1      -1.088  11.393  21.177  0.00  0.00    +0.000 A 
ATOM      7  N   UNL     1      -0.344  10.402  20.606  0.00  0.00    +0.000 NA
ENDROOT
BRANCH   5   8
ATOM      8  C   UNL     1      -2.340  12.387  23.213  0.00  0.00    +0.000 C 
ATOM      9  N   UNL     1      -3.401  11.831  23.714  0.00  0.00    +0.000 NA
ATOM     10  N   UNL     1      -1.968  13.731  23.239  0.00  0.00    +0.000 N 
ATOM     11  H   UNL     1      -1.707  14.089  22.322  0.00  0.00    +0.000 HD
BRANCH  10  12
ATOM     12  C   UNL     1      -2.441  14.783  24.132  0.00  0.00    +0.000 C 
ATOM     13  C   UNL     1      -1.384  15.265  25.127  0.00  0.00    +0.000 C 
ATOM     14  C   UNL     1      -1.851  16.658  25.531  0.00  0.00    +0.000 C 
ATOM     15  C   UNL     1      -2.554  17.231  24.307  0.00  0.00    +0.000 C 
ATOM     16  C   UNL     1      -2.709  16.066  23.328  0.00  0.00    +0.000 C 
ENDBRANCH  10  12
BRANCH   9  17
ATOM     17  O   UNL     1      -4.333  12.729  24.219  0.00  0.00    +0.000 OA
ATOM     18  H   UNL     1      -4.304  12.520  25.171  0.00  0.00    +0.000 HD
ENDBRANCH   9  17
ENDBRANCH   5   8
BRANCH   6  19
ATOM     19  O   UNL     1      -1.520  12.414  20.327  0.00  0.00    +0.000 OA
BRANCH  19  20
ATOM     20  C   UNL     1      -2.760  12.250  19.722  0.00  0.00    +0.000 A 
ATOM     21  C   UNL     1      -3.921  12.730  20.346  0.00  0.00    +0.000 A 
ATOM     22  C   UNL     1      -5.151  12.677  19.698  0.00  0.00    +0.000 A 
ATOM     23  C   UNL     1      -5.234  12.134  18.421  0.00  0.00    +0.000 A 
ATOM     24  C   UNL     1      -4.097  11.592  17.801  0.00  0.00    +0.000 A 
ATOM     25  C   UNL     1      -2.857  11.581  18.483  0.00  0.00    +0.000 A 
ATOM     26  C   UNL     1      -1.658  10.888  17.877  0.00  0.00    +0.000 C 
ATOM     27  C   UNL     1      -2.012   9.986  16.684  0.00  0.00    +0.000 C 
ATOM     28  C   UNL     1      -2.934  10.719  15.722  0.00  0.00    +0.000 C 
ATOM     29  C   UNL     1      -4.261  11.021  16.412  0.00  0.00    +0.000 C 
ENDBRANCH  19  20
ENDBRANCH   6  19
TORSDOF 5
ENDMDL
MODEL 9
REMARK VINA RESULT:      -6.5      2.439      6.743
REMARK  Name = 
REMARK  6 active torsions:
REMARK  status: ('A' for Active; 'I' for Inactive)
REMARK    1  A    between atoms: C_1  and  C_2
REMARK    2  A    between atoms: C_5  and  C_6
REMARK    3  A    between atoms: N_7  and  O_8
REMARK    4  A    between atoms: N_9  and  C_10
REMARK    5  A    between atoms: C_15  and  O_16
REMARK    6  A    between atoms: O_16  and  C_17
REMARK                            x       y       z     vdW  Elec       q    Type
REMARK                         _______ _______ _______ _____ _____    ______ ____
ROOT
ATOM      1  C   UNL     1       2.884   2.846  20.307  0.00  0.00    +0.000 C 
ATOM      2  C   UNL     1       2.648   4.303  20.068  0.00  0.00    +0.000 A 
ATOM      3  C   UNL     1       1.673   5.016  20.747  0.00  0.00    +0.000 A 
ATOM      4  C   UNL     1       1.473   6.358  20.414  0.00  0.00    +0.000 A 
ATOM      5  C   UNL     1       2.269   6.988  19.441  0.00  0.00    +0.000 A 
ATOM      6  C   UNL     1       3.295   6.218  18.873  0.00  0.00    +0.000 A 
ATOM      7  N   UNL     1       3.444   4.890  19.149  0.00  0.00    +0.000 NA
ENDROOT
BRANCH   5   8
ATOM      8  C   UNL     1       1.937   8.415  19.029  0.00  0.00    +0.000 C 
ATOM      9  N   UNL     1       2.167   8.689  17.781  0.00  0.00    +0.000 NA
ATOM     10  N   UNL     1       1.395   9.240  20.014  0.00  0.00    +0.000 N 
ATOM     11  H   UNL     1       1.948   9.256  20.869  0.00  0.00    +0.000 HD
BRANCH  10  12
ATOM     12  C   UNL     1       0.604  10.454  19.842  0.00  0.00    +0.000 C 
ATOM     13  C   UNL     1      -0.813  10.195  19.329  0.00  0.00    +0.000 C 
ATOM     14  C   UNL     1      -1.601  11.429  19.754  0.00  0.00    +0.000 C 
ATOM     15  C   UNL     1      -0.970  11.895  21.059  0.00  0.00    +0.000 C 
ATOM     16  C   UNL     1       0.319  11.088  21.214  0.00  0.00    +0.000 C 
ENDBRANCH  10  12
BRANCH   9  17
ATOM     17  O   UNL     1       1.962  10.020  17.440  0.00  0.00    +0.000 OA
ATOM     18  H   UNL     1       1.794   9.949  16.482  0.00  0.00    +0.000 HD
ENDBRANCH   9  17
ENDBRANCH   5   8
BRANCH   6  19
ATOM     19  O   UNL     1       4.252   6.788  18.031  0.00  0.00    +0.000 OA
BRANCH  19  20
ATOM     20  C   UNL     1       5.448   6.098  17.874  0.00  0.00    +0.000 A 
ATOM     21  C   UNL     1       6.341   5.978  18.949  0.00  0.00    +0.000 A 
ATOM     22  C   UNL     1       7.483   5.191  18.839  0.00  0.00    +0.000 A 
ATOM     23  C   UNL     1       7.749   4.524  17.649  0.00  0.00    +0.000 A 
ATOM     24  C   UNL     1       6.901   4.678  16.541  0.00  0.00    +0.000 A 
ATOM     25  C   UNL     1       5.775   5.531  16.625  0.00  0.00    +0.000 A 
ATOM     26  C   UNL     1       4.930   5.802  15.401  0.00  0.00    +0.000 C 
ATOM     27  C   UNL     1       5.586   5.340  14.090  0.00  0.00    +0.000 C 
ATOM     28  C   UNL     1       6.133   3.929  14.241  0.00  0.00    +0.000 C 
ATOM     29  C   UNL     1       7.250   3.920  15.280  0.00  0.00    +0.000 C 
ENDBRANCH  19  20
ENDBRANCH   6  19
TORSDOF 5
ENDMDL
