MODEL 1
REMARK VINA RESULT:      -8.5      0.000      0.000
REMARK  Name = 
REMARK  5 active torsions:
REMARK  status: ('A' for Active; 'I' for Inactive)
REMARK    1  A    between atoms: C_1  and  O_2
REMARK    2  A    between atoms: O_2  and  C_3
REMARK    3  A    between atoms: C_6  and  N_7
REMARK    4  A    between atoms: C_13  and  C_14
REMARK    5  A    between atoms: C_20  and  C_21
REMARK                            x       y       z     vdW  Elec       q    Type
REMARK                         _______ _______ _______ _____ _____    ______ ____
ROOT
ATOM      1  N   UNL     1       4.982   4.712  18.284  0.00  0.00    +0.000 N 
ATOM      2  C   UNL     1       5.273   3.759  19.251  0.00  0.00    +0.000 A 
ATOM      3  N   UNL     1       4.228   3.401  19.938  0.00  0.00    +0.000 NA
ATOM      4  C   UNL     1       3.360   4.423  19.729  0.00  0.00    +0.000 A 
ATOM      5  C   UNL     1       2.150   4.613  20.376  0.00  0.00    +0.000 A 
ATOM      6  N   UNL     1       1.563   5.817  20.352  0.00  0.00    +0.000 NA
ATOM      7  C   UNL     1       2.116   6.853  19.668  0.00  0.00    +0.000 A 
ATOM      8  C   UNL     1       3.205   6.655  18.766  0.00  0.00    +0.000 A 
ATOM      9  C   UNL     1       3.861   5.389  18.830  0.00  0.00    +0.000 A 
ENDROOT
BRANCH   7  10
ATOM     10  C   UNL     1       1.473   8.147  20.122  0.00  0.00    +0.000 A 
ATOM     11  C   UNL     1       1.365   8.373  21.532  0.00  0.00    +0.000 A 
ATOM     12  C   UNL     1       1.001   9.603  22.095  0.00  0.00    +0.000 A 
ATOM     13  C   UNL     1       0.697  10.654  21.258  0.00  0.00    +0.000 A 
ATOM     14  F   UNL     1       0.366  11.841  21.771  0.00  0.00    +0.000 F 
ATOM     15  C   UNL     1       0.774  10.495  19.879  0.00  0.00    +0.000 A 
ATOM     16  C   UNL     1       1.186   9.265  19.301  0.00  0.00    +0.000 A 
ATOM     17  C   UNL     1       1.437   9.289  17.820  0.00  0.00    +0.000 C 
ENDBRANCH   7  10
BRANCH   1  21
ATOM     18  C   UNL     1       6.892   4.811  14.525  0.00  0.00    +0.000 A 
ATOM     19  C   UNL     1       5.844   3.947  14.729  0.00  0.00    +0.000 A 
ATOM     20  C   UNL     1       5.260   3.920  15.985  0.00  0.00    +0.000 A 
ATOM     21  C   UNL     1       5.726   4.734  17.050  0.00  0.00    +0.000 A 
ATOM     22  C   UNL     1       6.794   5.558  16.746  0.00  0.00    +0.000 A 
ATOM     23  N   UNL     1       7.389   5.614  15.496  0.00  0.00    +0.000 NA
BRANCH  18  25
ATOM     24  C   UNL     1       6.730   3.914  12.340  0.00  0.00    +0.000 C 
ATOM     25  O   UNL     1       7.348   4.834  13.222  0.00  0.00    +0.000 OA
ENDBRANCH  18  25
ENDBRANCH   1  21
TORSDOF 3
ENDMDL
MODEL 2
REMARK VINA RESULT:      -8.1      3.908      8.067
REMARK  Name = 
REMARK  5 active torsions:
REMARK  status: ('A' for Active; 'I' for Inactive)
REMARK    1  A    between atoms: C_1  and  O_2
REMARK    2  A    between atoms: O_2  and  C_3
REMARK    3  A    between atoms: C_6  and  N_7
REMARK    4  A    between atoms: C_13  and  C_14
REMARK    5  A    between atoms: C_20  and  C_21
REMARK                            x       y       z     vdW  Elec       q    Type
REMARK                         _______ _______ _______ _____ _____    ______ ____
ROOT
ATOM      1  N   UNL     1       1.972   6.490  20.056  0.00  0.00    +0.000 N 
ATOM      2  C   UNL     1       1.304   5.394  20.585  0.00  0.00    +0.000 A 
ATOM      3  N   UNL     1       2.096   4.393  20.834  0.00  0.00    +0.000 NA
ATOM      4  C   UNL     1       3.184   4.665  20.069  0.00  0.00    +0.000 A 
ATOM      5  C   UNL     1       4.257   3.818  19.843  0.00  0.00    +0.000 A 
ATOM      6  N   UNL     1       5.077   4.043  18.808  0.00  0.00    +0.000 NA
ATOM      7  C   UNL     1       4.898   5.115  17.992  0.00  0.00    +0.000 A 
ATOM      8  C   UNL     1       3.989   6.164  18.326  0.00  0.00    +0.000 A 
ATOM      9  C   UNL     1       3.081   5.901  19.397  0.00  0.00    +0.000 A 
ENDROOT
BRANCH   7  10
ATOM     10  C   UNL     1       5.697   4.910  16.722  0.00  0.00    +0.000 A 
ATOM     11  C   UNL     1       5.109   4.109  15.691  0.00  0.00    +0.000 A 
ATOM     12  C   UNL     1       5.624   4.014  14.392  0.00  0.00    +0.000 A 
ATOM     13  C   UNL     1       6.778   4.701  14.082  0.00  0.00    +0.000 A 
ATOM     14  F   UNL     1       7.278   4.642  12.846  0.00  0.00    +0.000 F 
ATOM     15  C   UNL     1       7.402   5.488  15.043  0.00  0.00    +0.000 A 
ATOM     16  C   UNL     1       6.861   5.627  16.348  0.00  0.00    +0.000 A 
ATOM     17  C   UNL     1       7.504   6.670  17.217  0.00  0.00    +0.000 C 
ENDBRANCH   7  10
BRANCH   1  21
ATOM     18  C   UNL     1       0.800  10.396  21.132  0.00  0.00    +0.000 A 
ATOM     19  C   UNL     1       0.809   9.406  22.084  0.00  0.00    +0.000 A 
ATOM     20  C   UNL     1       1.171   8.129  21.688  0.00  0.00    +0.000 A 
ATOM     21  C   UNL     1       1.504   7.823  20.342  0.00  0.00    +0.000 A 
ATOM     22  C   UNL     1       1.451   8.886  19.460  0.00  0.00    +0.000 A 
ATOM     23  N   UNL     1       1.104  10.174  19.830  0.00  0.00    +0.000 NA
BRANCH  18  25
ATOM     24  C   UNL     1      -0.654  11.743  22.427  0.00  0.00    +0.000 C 
ATOM     25  O   UNL     1       0.517  11.649  21.636  0.00  0.00    +0.000 OA
ENDBRANCH  18  25
ENDBRANCH   1  21
TORSDOF 3
ENDMDL
MODEL 3
REMARK VINA RESULT:      -7.8      1.014      1.721
REMARK  Name = 
REMARK  5 active torsions:
REMARK  status: ('A' for Active; 'I' for Inactive)
REMARK    1  A    between atoms: C_1  and  O_2
REMARK    2  A    between atoms: O_2  and  C_3
REMARK    3  A    between atoms: C_6  and  N_7
REMARK    4  A    between atoms: C_13  and  C_14
REMARK    5  A    between atoms: C_20  and  C_21
REMARK                            x       y       z     vdW  Elec       q    Type
REMARK                         _______ _______ _______ _____ _____    ______ ____
ROOT
ATOM      1  N   UNL     1       5.327   5.188  17.780  0.00  0.00    +0.000 N 
ATOM      2  C   UNL     1       5.822   4.541  18.904  0.00  0.00    +0.000 A 
ATOM      3  N   UNL     1       4.896   4.255  19.771  0.00  0.00    +0.000 NA
ATOM      4  C   UNL     1       3.886   5.094  19.428  0.00  0.00    +0.000 A 
ATOM      5  C   UNL     1       2.721   5.307  20.147  0.00  0.00    +0.000 A 
ATOM      6  N   UNL     1       1.980   6.397  19.908  0.00  0.00    +0.000 NA
ATOM      7  C   UNL     1       2.331   7.285  18.941  0.00  0.00    +0.000 A 
ATOM      8  C   UNL     1       3.356   6.988  17.991  0.00  0.00    +0.000 A 
ATOM      9  C   UNL     1       4.177   5.855  18.277  0.00  0.00    +0.000 A 
ENDROOT
BRANCH   7  10
ATOM     10  C   UNL     1       1.564   8.574  19.149  0.00  0.00    +0.000 A 
ATOM     11  C   UNL     1       1.031   9.221  17.988  0.00  0.00    +0.000 A 
ATOM     12  C   UNL     1       0.122  10.286  18.042  0.00  0.00    +0.000 A 
ATOM     13  C   UNL     1      -0.265  10.769  19.273  0.00  0.00    +0.000 A 
ATOM     14  F   UNL     1      -1.144  11.771  19.351  0.00  0.00    +0.000 F 
ATOM     15  C   UNL     1       0.226  10.189  20.437  0.00  0.00    +0.000 A 
ATOM     16  C   UNL     1       1.111   9.080  20.392  0.00  0.00    +0.000 A 
ATOM     17  C   UNL     1       1.393   8.412  21.708  0.00  0.00    +0.000 C 
ENDBRANCH   7  10
BRANCH   1  21
ATOM     18  C   UNL     1       6.897   4.679  13.900  0.00  0.00    +0.000 A 
ATOM     19  C   UNL     1       5.701   4.089  14.228  0.00  0.00    +0.000 A 
ATOM     20  C   UNL     1       5.230   4.254  15.520  0.00  0.00    +0.000 A 
ATOM     21  C   UNL     1       5.954   4.984  16.499  0.00  0.00    +0.000 A 
ATOM     22  C   UNL     1       7.152   5.526  16.072  0.00  0.00    +0.000 A 
ATOM     23  N   UNL     1       7.641   5.388  14.783  0.00  0.00    +0.000 NA
BRANCH  18  25
ATOM     24  C   UNL     1       6.747   3.376  11.928  0.00  0.00    +0.000 C 
ATOM     25  O   UNL     1       7.239   4.540  12.569  0.00  0.00    +0.000 OA
ENDBRANCH  18  25
ENDBRANCH   1  21
TORSDOF 3
ENDMDL
MODEL 4
REMARK VINA RESULT:      -7.4      0.795      1.065
REMARK  Name = 
REMARK  5 active torsions:
REMARK  status: ('A' for Active; 'I' for Inactive)
REMARK    1  A    between atoms: C_1  and  O_2
REMARK    2  A    between atoms: O_2  and  C_3
REMARK    3  A    between atoms: C_6  and  N_7
REMARK    4  A    between atoms: C_13  and  C_14
REMARK    5  A    between atoms: C_20  and  C_21
REMARK                            x       y       z     vdW  Elec       q    Type
REMARK                         _______ _______ _______ _____ _____    ______ ____
ROOT
ATOM      1  N   UNL     1       5.068   4.887  17.776  0.00  0.00    +0.000 N 
ATOM      2  C   UNL     1       5.685   4.097  18.737  0.00  0.00    +0.000 A 
ATOM      3  N   UNL     1       4.867   3.706  19.669  0.00  0.00    +0.000 NA
ATOM      4  C   UNL     1       3.840   4.588  19.566  0.00  0.00    +0.000 A 
ATOM      5  C   UNL     1       2.778   4.713  20.446  0.00  0.00    +0.000 A 
ATOM      6  N   UNL     1       2.038   5.829  20.443  0.00  0.00    +0.000 NA
ATOM      7  C   UNL     1       2.286   6.833  19.561  0.00  0.00    +0.000 A 
ATOM      8  C   UNL     1       3.179   6.656  18.460  0.00  0.00    +0.000 A 
ATOM      9  C   UNL     1       4.004   5.490  18.494  0.00  0.00    +0.000 A 
ENDROOT
BRANCH   7  10
ATOM     10  C   UNL     1       1.579   8.089  20.026  0.00  0.00    +0.000 A 
ATOM     11  C   UNL     1       1.364   8.245  21.433  0.00  0.00    +0.000 A 
ATOM     12  C   UNL     1       0.929   9.438  22.024  0.00  0.00    +0.000 A 
ATOM     13  C   UNL     1       0.659  10.521  21.216  0.00  0.00    +0.000 A 
ATOM     14  F   UNL     1       0.261  11.675  21.758  0.00  0.00    +0.000 F 
ATOM     15  C   UNL     1       0.838  10.429  19.841  0.00  0.00    +0.000 A 
ATOM     16  C   UNL     1       1.323   9.238  19.238  0.00  0.00    +0.000 A 
ATOM     17  C   UNL     1       1.678   9.338  17.782  0.00  0.00    +0.000 C 
ENDBRANCH   7  10
BRANCH   1  21
ATOM     18  C   UNL     1       6.660   4.612  13.880  0.00  0.00    +0.000 A 
ATOM     19  C   UNL     1       7.448   5.085  14.901  0.00  0.00    +0.000 A 
ATOM     20  C   UNL     1       6.883   5.189  16.162  0.00  0.00    +0.000 A 
ATOM     21  C   UNL     1       5.528   4.847  16.411  0.00  0.00    +0.000 A 
ATOM     22  C   UNL     1       4.817   4.394  15.314  0.00  0.00    +0.000 A 
ATOM     23  N   UNL     1       5.360   4.268  14.046  0.00  0.00    +0.000 NA
BRANCH  18  25
ATOM     24  C   UNL     1       6.943   3.342  11.902  0.00  0.00    +0.000 C 
ATOM     25  O   UNL     1       7.334   4.456  12.685  0.00  0.00    +0.000 OA
ENDBRANCH  18  25
ENDBRANCH   1  21
TORSDOF 3
ENDMDL
MODEL 5
REMARK VINA RESULT:      -7.3      6.531     11.410
REMARK  Name = 
REMARK  5 active torsions:
REMARK  status: ('A' for Active; 'I' for Inactive)
REMARK    1  A    between atoms: C_1  and  O_2
REMARK    2  A    between atoms: O_2  and  C_3
REMARK    3  A    between atoms: C_6  and  N_7
REMARK    4  A    between atoms: C_13  and  C_14
REMARK    5  A    between atoms: C_20  and  C_21
REMARK                            x       y       z     vdW  Elec       q    Type
REMARK                         _______ _______ _______ _____ _____    ______ ____
ROOT
ATOM      1  N   UNL     1      -2.044  12.683  22.562  0.00  0.00    +0.000 N 
ATOM      2  C   UNL     1      -1.249  13.607  23.226  0.00  0.00    +0.000 A 
ATOM      3  N   UNL     1      -0.282  14.065  22.486  0.00  0.00    +0.000 NA
ATOM      4  C   UNL     1      -0.175  13.129  21.509  0.00  0.00    +0.000 A 
ATOM      5  C   UNL     1       0.824  13.056  20.552  0.00  0.00    +0.000 A 
ATOM      6  N   UNL     1       1.025  11.913  19.883  0.00  0.00    +0.000 NA
ATOM      7  C   UNL     1       0.237  10.827  20.099  0.00  0.00    +0.000 A 
ATOM      8  C   UNL     1      -0.966  10.917  20.863  0.00  0.00    +0.000 A 
ATOM      9  C   UNL     1      -1.152  12.117  21.615  0.00  0.00    +0.000 A 
ENDROOT
BRANCH   7  10
ATOM     10  C   UNL     1       0.913   9.601  19.520  0.00  0.00    +0.000 A 
ATOM     11  C   UNL     1       1.373   9.676  18.167  0.00  0.00    +0.000 A 
ATOM     12  C   UNL     1       2.203   8.716  17.574  0.00  0.00    +0.000 A 
ATOM     13  C   UNL     1       2.580   7.615  18.313  0.00  0.00    +0.000 A 
ATOM     14  F   UNL     1       3.385   6.695  17.776  0.00  0.00    +0.000 F 
ATOM     15  C   UNL     1       2.157   7.480  19.630  0.00  0.00    +0.000 A 
ATOM     16  C   UNL     1       1.354   8.472  20.253  0.00  0.00    +0.000 A 
ATOM     17  C   UNL     1       1.149   8.315  21.733  0.00  0.00    +0.000 C 
ENDBRANCH   7  10
BRANCH   1  21
ATOM     18  C   UNL     1      -6.103  12.606  23.705  0.00  0.00    +0.000 A 
ATOM     19  C   UNL     1      -5.129  12.423  24.656  0.00  0.00    +0.000 A 
ATOM     20  C   UNL     1      -3.807  12.425  24.240  0.00  0.00    +0.000 A 
ATOM     21  C   UNL     1      -3.447  12.586  22.876  0.00  0.00    +0.000 A 
ATOM     22  C   UNL     1      -4.502  12.749  21.997  0.00  0.00    +0.000 A 
ATOM     23  N   UNL     1      -5.831  12.764  22.387  0.00  0.00    +0.000 NA
BRANCH  18  25
ATOM     24  C   UNL     1      -7.912  13.987  24.357  0.00  0.00    +0.000 C 
ATOM     25  O   UNL     1      -7.379  12.681  24.225  0.00  0.00    +0.000 OA
ENDBRANCH  18  25
ENDBRANCH   1  21
TORSDOF 3
ENDMDL
MODEL 6
REMARK VINA RESULT:      -7.2      4.792      9.142
REMARK  Name = 
REMARK  5 active torsions:
REMARK  status: ('A' for Active; 'I' for Inactive)
REMARK    1  A    between atoms: C_1  and  O_2
REMARK    2  A    between atoms: O_2  and  C_3
REMARK    3  A    between atoms: C_6  and  N_7
REMARK    4  A    between atoms: C_13  and  C_14
REMARK    5  A    between atoms: C_20  and  C_21
REMARK                            x       y       z     vdW  Elec       q    Type
REMARK                         _______ _______ _______ _____ _____    ______ ____
ROOT
ATOM      1  N   UNL     1       0.922  10.248  20.263  0.00  0.00    +0.000 N 
ATOM      2  C   UNL     1       1.460  11.146  19.350  0.00  0.00    +0.000 A 
ATOM      3  N   UNL     1       1.677  10.611  18.185  0.00  0.00    +0.000 NA
ATOM      4  C   UNL     1       1.701   9.282  18.457  0.00  0.00    +0.000 A 
ATOM      5  C   UNL     1       2.066   8.274  17.579  0.00  0.00    +0.000 A 
ATOM      6  N   UNL     1       2.393   7.065  18.052  0.00  0.00    +0.000 NA
ATOM      7  C   UNL     1       2.337   6.793  19.383  0.00  0.00    +0.000 A 
ATOM      8  C   UNL     1       1.716   7.692  20.302  0.00  0.00    +0.000 A 
ATOM      9  C   UNL     1       1.415   8.998  19.809  0.00  0.00    +0.000 A 
ENDROOT
BRANCH   7  10
ATOM     10  C   UNL     1       3.110   5.521  19.663  0.00  0.00    +0.000 A 
ATOM     11  C   UNL     1       2.429   4.472  20.358  0.00  0.00    +0.000 A 
ATOM     12  C   UNL     1       2.935   3.172  20.490  0.00  0.00    +0.000 A 
ATOM     13  C   UNL     1       4.170   2.881  19.954  0.00  0.00    +0.000 A 
ATOM     14  F   UNL     1       4.665   1.645  20.051  0.00  0.00    +0.000 F 
ATOM     15  C   UNL     1       4.886   3.861  19.276  0.00  0.00    +0.000 A 
ATOM     16  C   UNL     1       4.360   5.168  19.096  0.00  0.00    +0.000 A 
ATOM     17  C   UNL     1       5.128   6.061  18.165  0.00  0.00    +0.000 C 
ENDBRANCH   7  10
BRANCH   1  21
ATOM     18  C   UNL     1      -1.957  11.602  23.031  0.00  0.00    +0.000 A 
ATOM     19  C   UNL     1      -1.843  12.227  21.814  0.00  0.00    +0.000 A 
ATOM     20  C   UNL     1      -0.867  11.775  20.941  0.00  0.00    +0.000 A 
ATOM     21  C   UNL     1       0.015  10.716  21.280  0.00  0.00    +0.000 A 
ATOM     22  C   UNL     1      -0.173  10.163  22.534  0.00  0.00    +0.000 A 
ATOM     23  N   UNL     1      -1.149  10.587  23.421  0.00  0.00    +0.000 NA
BRANCH  18  25
ATOM     24  C   UNL     1      -3.436  13.384  23.526  0.00  0.00    +0.000 C 
ATOM     25  O   UNL     1      -3.014  12.058  23.793  0.00  0.00    +0.000 OA
ENDBRANCH  18  25
ENDBRANCH   1  21
TORSDOF 3
ENDMDL
MODEL 7
REMARK VINA RESULT:      -7.2      3.644      6.057
REMARK  Name = 
REMARK  5 active torsions:
REMARK  status: ('A' for Active; 'I' for Inactive)
REMARK    1  A    between atoms: C_1  and  O_2
REMARK    2  A    between atoms: O_2  and  C_3
REMARK    3  A    between atoms: C_6  and  N_7
REMARK    4  A    between atoms: C_13  and  C_14
REMARK    5  A    between atoms: C_20  and  C_21
REMARK                            x       y       z     vdW  Elec       q    Type
REMARK                         _______ _______ _______ _____ _____    ______ ____
ROOT
ATOM      1  N   UNL     1       1.935   8.122  18.864  0.00  0.00    +0.000 N 
ATOM      2  C   UNL     1       2.178   8.462  17.540  0.00  0.00    +0.000 A 
ATOM      3  N   UNL     1       2.369   9.738  17.374  0.00  0.00    +0.000 NA
ATOM      4  C   UNL     1       1.819  10.278  18.491  0.00  0.00    +0.000 A 
ATOM      5  C   UNL     1       1.611  11.626  18.730  0.00  0.00    +0.000 A 
ATOM      6  N   UNL     1       0.752  12.009  19.684  0.00  0.00    +0.000 NA
ATOM      7  C   UNL     1       0.106  11.094  20.454  0.00  0.00    +0.000 A 
ATOM      8  C   UNL     1       0.476   9.715  20.445  0.00  0.00    +0.000 A 
ATOM      9  C   UNL     1       1.351   9.300  19.395  0.00  0.00    +0.000 A 
ENDROOT
BRANCH   7  10
ATOM     10  C   UNL     1      -1.055  11.768  21.156  0.00  0.00    +0.000 A 
ATOM     11  C   UNL     1      -1.900  12.616  20.371  0.00  0.00    +0.000 A 
ATOM     12  C   UNL     1      -3.125  13.124  20.823  0.00  0.00    +0.000 A 
ATOM     13  C   UNL     1      -3.539  12.825  22.103  0.00  0.00    +0.000 A 
ATOM     14  F   UNL     1      -4.711  13.281  22.549  0.00  0.00    +0.000 F 
ATOM     15  C   UNL     1      -2.757  12.014  22.918  0.00  0.00    +0.000 A 
ATOM     16  C   UNL     1      -1.536  11.457  22.452  0.00  0.00    +0.000 A 
ATOM     17  C   UNL     1      -0.901  10.430  23.345  0.00  0.00    +0.000 C 
ENDBRANCH   7  10
BRANCH   1  21
ATOM     18  C   UNL     1       2.906   4.284  20.317  0.00  0.00    +0.000 A 
ATOM     19  C   UNL     1       1.887   4.991  20.906  0.00  0.00    +0.000 A 
ATOM     20  C   UNL     1       1.615   6.261  20.421  0.00  0.00    +0.000 A 
ATOM     21  C   UNL     1       2.367   6.842  19.367  0.00  0.00    +0.000 A 
ATOM     22  C   UNL     1       3.379   6.053  18.852  0.00  0.00    +0.000 A 
ATOM     23  N   UNL     1       3.665   4.777  19.308  0.00  0.00    +0.000 NA
BRANCH  18  25
ATOM     24  C   UNL     1       2.024   2.565  21.687  0.00  0.00    +0.000 C 
ATOM     25  O   UNL     1       3.042   2.998  20.803  0.00  0.00    +0.000 OA
ENDBRANCH  18  25
ENDBRANCH   1  21
TORSDOF 3
ENDMDL
MODEL 8
REMARK VINA RESULT:      -7.1      4.639      8.473
REMARK  Name = 
REMARK  5 active torsions:
REMARK  status: ('A' for Active; 'I' for Inactive)
REMARK    1  A    between atoms: C_1  and  O_2
REMARK    2  A    between atoms: O_2  and  C_3
REMARK    3  A    between atoms: C_6  and  N_7
REMARK    4  A    between atoms: C_13  and  C_14
REMARK    5  A    between atoms: C_20  and  C_21
REMARK                            x       y       z     vdW  Elec       q    Type
REMARK                         _______ _______ _______ _____ _____    ______ ____
ROOT
ATOM      1  N   UNL     1       0.585  10.349  19.582  0.00  0.00    +0.000 N 
ATOM      2  C   UNL     1      -0.450   9.949  20.416  0.00  0.00    +0.000 A 
ATOM      3  N   UNL     1      -0.119   8.958  21.191  0.00  0.00    +0.000 NA
ATOM      4  C   UNL     1       0.962   8.427  20.565  0.00  0.00    +0.000 A 
ATOM      5  C   UNL     1       1.598   7.241  20.895  0.00  0.00    +0.000 A 
ATOM      6  N   UNL     1       2.407   6.650  20.006  0.00  0.00    +0.000 NA
ATOM      7  C   UNL     1       2.648   7.213  18.793  0.00  0.00    +0.000 A 
ATOM      8  C   UNL     1       2.247   8.552  18.499  0.00  0.00    +0.000 A 
ATOM      9  C   UNL     1       1.343   9.161  19.422  0.00  0.00    +0.000 A 
ENDROOT
BRANCH   7  10
ATOM     10  C   UNL     1       3.259   6.174  17.876  0.00  0.00    +0.000 A 
ATOM     11  C   UNL     1       4.537   6.467  17.302  0.00  0.00    +0.000 A 
ATOM     12  C   UNL     1       5.317   5.524  16.621  0.00  0.00    +0.000 A 
ATOM     13  C   UNL     1       4.827   4.246  16.461  0.00  0.00    +0.000 A 
ATOM     14  F   UNL     1       5.560   3.324  15.832  0.00  0.00    +0.000 F 
ATOM     15  C   UNL     1       3.587   3.902  16.987  0.00  0.00    +0.000 A 
ATOM     16  C   UNL     1       2.810   4.839  17.718  0.00  0.00    +0.000 A 
ATOM     17  C   UNL     1       1.601   4.286  18.416  0.00  0.00    +0.000 C 
ENDBRANCH   7  10
BRANCH   1  21
ATOM     18  C   UNL     1       0.821  14.472  18.728  0.00  0.00    +0.000 A 
ATOM     19  C   UNL     1      -0.342  13.954  19.243  0.00  0.00    +0.000 A 
ATOM     20  C   UNL     1      -0.394  12.590  19.483  0.00  0.00    +0.000 A 
ATOM     21  C   UNL     1       0.699  11.732  19.194  0.00  0.00    +0.000 A 
ATOM     22  C   UNL     1       1.818  12.351  18.666  0.00  0.00    +0.000 A 
ATOM     23  N   UNL     1       1.902  13.712  18.427  0.00  0.00    +0.000 NA
BRANCH  18  25
ATOM     24  C   UNL     1      -0.468  16.456  18.624  0.00  0.00    +0.000 C 
ATOM     25  O   UNL     1       0.812  15.848  18.609  0.00  0.00    +0.000 OA
ENDBRANCH  18  25
ENDBRANCH   1  21
TORSDOF 3
ENDMDL
MODEL 9
REMARK VINA RESULT:      -7.1      4.728      7.057
REMARK  Name = 
REMARK  5 active torsions:
REMARK  status: ('A' for Active; 'I' for Inactive)
REMARK    1  A    between atoms: C_1  and  O_2
REMARK    2  A    between atoms: O_2  and  C_3
REMARK    3  A    between atoms: C_6  and  N_7
REMARK    4  A    between atoms: C_13  and  C_14
REMARK    5  A    between atoms: C_20  and  C_21
REMARK                            x       y       z     vdW  Elec       q    Type
REMARK                         _______ _______ _______ _____ _____    ______ ____
ROOT
ATOM      1  N   UNL     1       1.367   9.911  18.550  0.00  0.00    +0.000 N 
ATOM      2  C   UNL     1       2.227  10.903  18.100  0.00  0.00    +0.000 A 
ATOM      3  N   UNL     1       1.893  12.088  18.518  0.00  0.00    +0.000 NA
ATOM      4  C   UNL     1       0.589  11.935  18.861  0.00  0.00    +0.000 A 
ATOM      5  C   UNL     1      -0.289  12.948  19.212  0.00  0.00    +0.000 A 
ATOM      6  N   UNL     1      -1.609  12.728  19.178  0.00  0.00    +0.000 NA
ATOM      7  C   UNL     1      -2.108  11.509  18.842  0.00  0.00    +0.000 A 
ATOM      8  C   UNL     1      -1.266  10.360  18.737  0.00  0.00    +0.000 A 
ATOM      9  C   UNL     1       0.141  10.605  18.721  0.00  0.00    +0.000 A 
ENDROOT
BRANCH   7  10
ATOM     10  C   UNL     1      -3.580  11.649  18.514  0.00  0.00    +0.000 A 
ATOM     11  C   UNL     1      -4.425  12.249  19.502  0.00  0.00    +0.000 A 
ATOM     12  C   UNL     1      -5.747  12.642  19.258  0.00  0.00    +0.000 A 
ATOM     13  C   UNL     1      -6.289  12.418  18.012  0.00  0.00    +0.000 A 
ATOM     14  F   UNL     1      -7.540  12.801  17.749  0.00  0.00    +0.000 F 
ATOM     15  C   UNL     1      -5.522  11.830  17.012  0.00  0.00    +0.000 A 
ATOM     16  C   UNL     1      -4.167  11.470  17.237  0.00  0.00    +0.000 A 
ATOM     17  C   UNL     1      -3.390  11.049  16.022  0.00  0.00    +0.000 C 
ENDBRANCH   7  10
BRANCH   1  21
ATOM     18  C   UNL     1       3.119   6.132  19.211  0.00  0.00    +0.000 A 
ATOM     19  C   UNL     1       3.305   6.762  18.005  0.00  0.00    +0.000 A 
ATOM     20  C   UNL     1       2.690   7.989  17.812  0.00  0.00    +0.000 A 
ATOM     21  C   UNL     1       1.870   8.585  18.806  0.00  0.00    +0.000 A 
ATOM     22  C   UNL     1       1.736   7.864  19.978  0.00  0.00    +0.000 A 
ATOM     23  N   UNL     1       2.349   6.642  20.202  0.00  0.00    +0.000 NA
BRANCH  18  25
ATOM     24  C   UNL     1       3.095   3.818  19.712  0.00  0.00    +0.000 C 
ATOM     25  O   UNL     1       3.842   4.964  19.345  0.00  0.00    +0.000 OA
ENDBRANCH  18  25
ENDBRANCH   1  21
TORSDOF 3
ENDMDL
