MODEL 1
REMARK VINA RESULT:      -7.3      0.000      0.000
REMARK  Name = 
REMARK  5 active torsions:
REMARK  status: ('A' for Active; 'I' for Inactive)
REMARK    1  A    between atoms: C_1  and  N_2
REMARK    2  A    between atoms: C_4  and  N_5
REMARK    3  A    between atoms: C_6  and  C_8
REMARK    4  A    between atoms: N_11  and  C_12
REMARK    5  A    between atoms: C_19  and  C_20
REMARK                            x       y       z     vdW  Elec       q    Type
REMARK                         _______ _______ _______ _____ _____    ______ ____
ROOT
ATOM      1  C   UNL     1       7.453   6.933  18.270  0.00  0.00    +0.000 A 
ATOM      2  C   UNL     1       8.035   5.854  18.956  0.00  0.00    +0.000 A 
ATOM      3  N   UNL     1       7.214   4.818  19.071  0.00  0.00    +0.000 NA
ATOM      4  N   UNL     1       6.068   5.197  18.445  0.00  0.00    +0.000 N 
ATOM      5  C   UNL     1       6.197   6.466  17.898  0.00  0.00    +0.000 A 
ENDROOT
BRANCH   4   6
ATOM      6  C   UNL     1       4.956   4.296  18.337  0.00  0.00    +0.000 A 
ATOM      7  N   UNL     1       4.173   4.158  19.451  0.00  0.00    +0.000 NA
ATOM      8  C   UNL     1       3.078   3.373  19.355  0.00  0.00    +0.000 A 
ATOM      9  C   UNL     1       2.717   2.696  18.205  0.00  0.00    +0.000 A 
ATOM     10  C   UNL     1       3.540   2.819  17.089  0.00  0.00    +0.000 A 
ATOM     11  C   UNL     1       4.682   3.624  17.140  0.00  0.00    +0.000 A 
ATOM     12 CL   UNL     1       5.707   3.567  15.750  0.00  0.00    +0.000 Cl
ENDBRANCH   4   6
BRANCH   1  14
ATOM     13  N   UNL     1       8.714   8.768  19.080  0.00  0.00    +0.000 N 
ATOM     14  C   UNL     1       8.035   8.238  17.996  0.00  0.00    +0.000 C 
ATOM     15  O   UNL     1       7.916   8.757  16.893  0.00  0.00    +0.000 OA
ATOM     16  H   UNL     1       8.776   8.236  19.936  0.00  0.00    +0.000 HD
BRANCH  13  20
ATOM     17  C   UNL     1      10.901  12.979  17.840  0.00  0.00    +0.000 C 
ATOM     18  N   UNL     1      10.242  11.925  18.569  0.00  0.00    +0.000 N 
ATOM     19  C   UNL     1       9.817  10.737  18.060  0.00  0.00    +0.000 A 
ATOM     20  C   UNL     1       9.278  10.031  19.105  0.00  0.00    +0.000 A 
ATOM     21  C   UNL     1       9.409  10.904  20.210  0.00  0.00    +0.000 A 
ATOM     22  N   UNL     1      10.004  12.057  19.889  0.00  0.00    +0.000 NA
ENDBRANCH  13  20
ENDBRANCH   1  14
BRANCH   5  23
ATOM     23  C   UNL     1       5.066   7.123  17.200  0.00  0.00    +0.000 C 
ATOM     24  F   UNL     1       4.951   6.625  15.936  0.00  0.00    +0.000 F 
ATOM     25  F   UNL     1       3.869   6.851  17.784  0.00  0.00    +0.000 F 
ENDBRANCH   5  23
TORSDOF 4
ENDMDL
MODEL 2
REMARK VINA RESULT:      -7.3      5.121      6.897
REMARK  Name = 
REMARK  5 active torsions:
REMARK  status: ('A' for Active; 'I' for Inactive)
REMARK    1  A    between atoms: C_1  and  N_2
REMARK    2  A    between atoms: C_4  and  N_5
REMARK    3  A    between atoms: C_6  and  C_8
REMARK    4  A    between atoms: N_11  and  C_12
REMARK    5  A    between atoms: C_19  and  C_20
REMARK                            x       y       z     vdW  Elec       q    Type
REMARK                         _______ _______ _______ _____ _____    ______ ____
ROOT
ATOM      1  C   UNL     1       2.518   7.462  18.979  0.00  0.00    +0.000 A 
ATOM      2  C   UNL     1       2.581   8.205  17.788  0.00  0.00    +0.000 A 
ATOM      3  N   UNL     1       3.459   7.714  16.924  0.00  0.00    +0.000 NA
ATOM      4  N   UNL     1       3.987   6.619  17.532  0.00  0.00    +0.000 N 
ATOM      5  C   UNL     1       3.397   6.405  18.770  0.00  0.00    +0.000 A 
ENDROOT
BRANCH   4   6
ATOM      6  C   UNL     1       4.958   5.801  16.863  0.00  0.00    +0.000 A 
ATOM      7  N   UNL     1       4.507   4.614  16.351  0.00  0.00    +0.000 NA
ATOM      8  C   UNL     1       5.383   3.858  15.654  0.00  0.00    +0.000 A 
ATOM      9  C   UNL     1       6.702   4.210  15.442  0.00  0.00    +0.000 A 
ATOM     10  C   UNL     1       7.157   5.404  15.995  0.00  0.00    +0.000 A 
ATOM     11  C   UNL     1       6.286   6.222  16.721  0.00  0.00    +0.000 A 
ATOM     12 CL   UNL     1       7.005   7.591  17.493  0.00  0.00    +0.000 Cl
ENDBRANCH   4   6
BRANCH   1  14
ATOM     13  N   UNL     1       1.336   9.056  20.272  0.00  0.00    +0.000 N 
ATOM     14  C   UNL     1       1.707   7.728  20.157  0.00  0.00    +0.000 C 
ATOM     15  O   UNL     1       1.403   6.823  20.924  0.00  0.00    +0.000 OA
ATOM     16  H   UNL     1       1.618   9.715  19.561  0.00  0.00    +0.000 HD
BRANCH  13  20
ATOM     17  C   UNL     1      -1.797  11.571  23.087  0.00  0.00    +0.000 C 
ATOM     18  N   UNL     1      -0.757  10.687  22.623  0.00  0.00    +0.000 N 
ATOM     19  C   UNL     1      -0.407  10.465  21.326  0.00  0.00    +0.000 A 
ATOM     20  C   UNL     1       0.642   9.581  21.348  0.00  0.00    +0.000 A 
ATOM     21  C   UNL     1       0.833   9.313  22.723  0.00  0.00    +0.000 A 
ATOM     22  N   UNL     1      -0.013   9.991  23.504  0.00  0.00    +0.000 NA
ENDBRANCH  13  20
ENDBRANCH   1  14
BRANCH   5  23
ATOM     23  C   UNL     1       3.833   5.295  19.651  0.00  0.00    +0.000 C 
ATOM     24  F   UNL     1       3.391   4.107  19.151  0.00  0.00    +0.000 F 
ATOM     25  F   UNL     1       5.186   5.166  19.690  0.00  0.00    +0.000 F 
ENDBRANCH   5  23
TORSDOF 4
ENDMDL
MODEL 3
REMARK VINA RESULT:      -7.1      4.467      6.318
REMARK  Name = 
REMARK  5 active torsions:
REMARK  status: ('A' for Active; 'I' for Inactive)
REMARK    1  A    between atoms: C_1  and  N_2
REMARK    2  A    between atoms: C_4  and  N_5
REMARK    3  A    between atoms: C_6  and  C_8
REMARK    4  A    between atoms: N_11  and  C_12
REMARK    5  A    between atoms: C_19  and  C_20
REMARK                            x       y       z     vdW  Elec       q    Type
REMARK                         _______ _______ _______ _____ _____    ______ ____
ROOT
ATOM      1  C   UNL     1       5.946   4.575  17.541  0.00  0.00    +0.000 A 
ATOM      2  C   UNL     1       6.211   5.390  18.653  0.00  0.00    +0.000 A 
ATOM      3  N   UNL     1       5.285   5.286  19.598  0.00  0.00    +0.000 NA
ATOM      4  N   UNL     1       4.389   4.381  19.123  0.00  0.00    +0.000 N 
ATOM      5  C   UNL     1       4.788   3.887  17.889  0.00  0.00    +0.000 A 
ENDROOT
BRANCH   4   6
ATOM      6  C   UNL     1       3.256   3.985  19.909  0.00  0.00    +0.000 A 
ATOM      7  N   UNL     1       2.164   4.809  19.864  0.00  0.00    +0.000 NA
ATOM      8  C   UNL     1       1.058   4.423  20.537  0.00  0.00    +0.000 A 
ATOM      9  C   UNL     1       0.976   3.257  21.274  0.00  0.00    +0.000 A 
ATOM     10  C   UNL     1       2.104   2.444  21.339  0.00  0.00    +0.000 A 
ATOM     11  C   UNL     1       3.270   2.800  20.655  0.00  0.00    +0.000 A 
ATOM     12 CL   UNL     1       4.649   1.799  20.945  0.00  0.00    +0.000 Cl
ENDBRANCH   4   6
BRANCH   1  14
ATOM     13  N   UNL     1       5.916   4.338  15.184  0.00  0.00    +0.000 N 
ATOM     14  C   UNL     1       6.712   4.463  16.310  0.00  0.00    +0.000 C 
ATOM     15  O   UNL     1       7.936   4.498  16.329  0.00  0.00    +0.000 OA
ATOM     16  H   UNL     1       4.911   4.353  15.281  0.00  0.00    +0.000 HD
BRANCH  13  20
ATOM     17  C   UNL     1       7.013   2.380  10.823  0.00  0.00    +0.000 C 
ATOM     18  N   UNL     1       6.891   3.274  11.947  0.00  0.00    +0.000 N 
ATOM     19  C   UNL     1       6.238   3.019  13.113  0.00  0.00    +0.000 A 
ATOM     20  C   UNL     1       6.401   4.127  13.905  0.00  0.00    +0.000 A 
ATOM     21  C   UNL     1       7.158   5.012  13.104  0.00  0.00    +0.000 A 
ATOM     22  N   UNL     1       7.465   4.493  11.911  0.00  0.00    +0.000 NA
ENDBRANCH  13  20
ENDBRANCH   1  14
BRANCH   5  23
ATOM     23  C   UNL     1       3.954   2.916  17.141  0.00  0.00    +0.000 C 
ATOM     24  F   UNL     1       3.903   1.732  17.817  0.00  0.00    +0.000 F 
ATOM     25  F   UNL     1       2.657   3.311  17.048  0.00  0.00    +0.000 F 
ENDBRANCH   5  23
TORSDOF 4
ENDMDL
MODEL 4
REMARK VINA RESULT:      -7.1      5.852      8.745
REMARK  Name = 
REMARK  5 active torsions:
REMARK  status: ('A' for Active; 'I' for Inactive)
REMARK    1  A    between atoms: C_1  and  N_2
REMARK    2  A    between atoms: C_4  and  N_5
REMARK    3  A    between atoms: C_6  and  C_8
REMARK    4  A    between atoms: N_11  and  C_12
REMARK    5  A    between atoms: C_19  and  C_20
REMARK                            x       y       z     vdW  Elec       q    Type
REMARK                         _______ _______ _______ _____ _____    ______ ____
ROOT
ATOM      1  C   UNL     1       2.018   8.125  19.008  0.00  0.00    +0.000 A 
ATOM      2  C   UNL     1       2.256   8.704  17.751  0.00  0.00    +0.000 A 
ATOM      3  N   UNL     1       1.777   9.937  17.655  0.00  0.00    +0.000 NA
ATOM      4  N   UNL     1       1.218  10.200  18.866  0.00  0.00    +0.000 N 
ATOM      5  C   UNL     1       1.391   9.132  19.736  0.00  0.00    +0.000 A 
ENDROOT
BRANCH   4   6
ATOM      6  C   UNL     1       0.627  11.478  19.143  0.00  0.00    +0.000 A 
ATOM      7  N   UNL     1       1.466  12.445  19.628  0.00  0.00    +0.000 NA
ATOM      8  C   UNL     1       0.953  13.678  19.829  0.00  0.00    +0.000 A 
ATOM      9  C   UNL     1      -0.367  14.008  19.586  0.00  0.00    +0.000 A 
ATOM     10  C   UNL     1      -1.217  13.008  19.124  0.00  0.00    +0.000 A 
ATOM     11  C   UNL     1      -0.730  11.718  18.897  0.00  0.00    +0.000 A 
ATOM     12 CL   UNL     1      -1.913  10.528  18.482  0.00  0.00    +0.000 Cl
ENDBRANCH   4   6
BRANCH   1  14
ATOM     13  N   UNL     1       3.327   6.180  18.671  0.00  0.00    +0.000 N 
ATOM     14  C   UNL     1       2.359   6.783  19.455  0.00  0.00    +0.000 C 
ATOM     15  O   UNL     1       1.822   6.297  20.442  0.00  0.00    +0.000 OA
ATOM     16  H   UNL     1       3.727   6.688  17.895  0.00  0.00    +0.000 HD
BRANCH  13  20
ATOM     17  C   UNL     1       3.692   1.289  18.571  0.00  0.00    +0.000 C 
ATOM     18  N   UNL     1       3.946   2.692  18.786  0.00  0.00    +0.000 N 
ATOM     19  C   UNL     1       3.150   3.724  18.397  0.00  0.00    +0.000 A 
ATOM     20  C   UNL     1       3.759   4.875  18.831  0.00  0.00    +0.000 A 
ATOM     21  C   UNL     1       4.941   4.420  19.459  0.00  0.00    +0.000 A 
ATOM     22  N   UNL     1       5.056   3.088  19.441  0.00  0.00    +0.000 NA
ENDBRANCH  13  20
ENDBRANCH   1  14
BRANCH   5  23
ATOM     23  C   UNL     1       0.831   9.155  21.108  0.00  0.00    +0.000 C 
ATOM     24  F   UNL     1      -0.168   8.233  21.215  0.00  0.00    +0.000 F 
ATOM     25  F   UNL     1       1.741   8.782  22.045  0.00  0.00    +0.000 F 
ENDBRANCH   5  23
TORSDOF 4
ENDMDL
MODEL 5
REMARK VINA RESULT:      -7.1      4.491      6.296
REMARK  Name = 
REMARK  5 active torsions:
REMARK  status: ('A' for Active; 'I' for Inactive)
REMARK    1  A    between atoms: C_1  and  N_2
REMARK    2  A    between atoms: C_4  and  N_5
REMARK    3  A    between atoms: C_6  and  C_8
REMARK    4  A    between atoms: N_11  and  C_12
REMARK    5  A    between atoms: C_19  and  C_20
REMARK                            x       y       z     vdW  Elec       q    Type
REMARK                         _______ _______ _______ _____ _____    ______ ____
ROOT
ATOM      1  C   UNL     1       5.903   4.557  17.545  0.00  0.00    +0.000 A 
ATOM      2  C   UNL     1       6.075   5.439  18.624  0.00  0.00    +0.000 A 
ATOM      3  N   UNL     1       5.145   5.293  19.559  0.00  0.00    +0.000 NA
ATOM      4  N   UNL     1       4.341   4.292  19.112  0.00  0.00    +0.000 N 
ATOM      5  C   UNL     1       4.805   3.783  17.907  0.00  0.00    +0.000 A 
ENDROOT
BRANCH   4   6
ATOM      6  C   UNL     1       3.234   3.830  19.899  0.00  0.00    +0.000 A 
ATOM      7  N   UNL     1       3.515   2.892  20.855  0.00  0.00    +0.000 NA
ATOM      8  C   UNL     1       2.505   2.492  21.658  0.00  0.00    +0.000 A 
ATOM      9  C   UNL     1       1.211   2.967  21.557  0.00  0.00    +0.000 A 
ATOM     10  C   UNL     1       0.931   3.896  20.560  0.00  0.00    +0.000 A 
ATOM     11  C   UNL     1       1.945   4.342  19.708  0.00  0.00    +0.000 A 
ATOM     12 CL   UNL     1       1.443   5.368  18.410  0.00  0.00    +0.000 Cl
ENDBRANCH   4   6
BRANCH   1  14
ATOM     13  N   UNL     1       5.929   4.356  15.185  0.00  0.00    +0.000 N 
ATOM     14  C   UNL     1       6.699   4.462  16.331  0.00  0.00    +0.000 C 
ATOM     15  O   UNL     1       7.921   4.494  16.380  0.00  0.00    +0.000 OA
ATOM     16  H   UNL     1       4.922   4.371  15.258  0.00  0.00    +0.000 HD
BRANCH  13  20
ATOM     17  C   UNL     1       7.200   2.430  10.857  0.00  0.00    +0.000 C 
ATOM     18  N   UNL     1       7.011   3.324  11.971  0.00  0.00    +0.000 N 
ATOM     19  C   UNL     1       6.356   3.041  13.130  0.00  0.00    +0.000 A 
ATOM     20  C   UNL     1       6.444   4.162  13.915  0.00  0.00    +0.000 A 
ATOM     21  C   UNL     1       7.162   5.083  13.117  0.00  0.00    +0.000 A 
ATOM     22  N   UNL     1       7.516   4.573  11.933  0.00  0.00    +0.000 NA
ENDBRANCH  13  20
ENDBRANCH   1  14
BRANCH   5  23
ATOM     23  C   UNL     1       4.075   2.710  17.190  0.00  0.00    +0.000 C 
ATOM     24  F   UNL     1       3.857   1.658  18.031  0.00  0.00    +0.000 F 
ATOM     25  F   UNL     1       2.831   3.100  16.804  0.00  0.00    +0.000 F 
ENDBRANCH   5  23
TORSDOF 4
ENDMDL
MODEL 6
REMARK VINA RESULT:      -7.0      1.424      1.622
REMARK  Name = 
REMARK  5 active torsions:
REMARK  status: ('A' for Active; 'I' for Inactive)
REMARK    1  A    between atoms: C_1  and  N_2
REMARK    2  A    between atoms: C_4  and  N_5
REMARK    3  A    between atoms: C_6  and  C_8
REMARK    4  A    between atoms: N_11  and  C_12
REMARK    5  A    between atoms: C_19  and  C_20
REMARK                            x       y       z     vdW  Elec       q    Type
REMARK                         _______ _______ _______ _____ _____    ______ ____
ROOT
ATOM      1  C   UNL     1       7.139   6.678  18.295  0.00  0.00    +0.000 A 
ATOM      2  C   UNL     1       7.430   5.730  19.290  0.00  0.00    +0.000 A 
ATOM      3  N   UNL     1       6.475   4.820  19.426  0.00  0.00    +0.000 NA
ATOM      4  N   UNL     1       5.531   5.149  18.505  0.00  0.00    +0.000 N 
ATOM      5  C   UNL     1       5.928   6.251  17.760  0.00  0.00    +0.000 A 
ENDROOT
BRANCH   4   6
ATOM      6  C   UNL     1       4.353   4.347  18.338  0.00  0.00    +0.000 A 
ATOM      7  N   UNL     1       4.465   3.266  17.506  0.00  0.00    +0.000 NA
ATOM      8  C   UNL     1       3.393   2.452  17.386  0.00  0.00    +0.000 A 
ATOM      9  C   UNL     1       2.195   2.660  18.044  0.00  0.00    +0.000 A 
ATOM     10  C   UNL     1       2.084   3.781  18.862  0.00  0.00    +0.000 A 
ATOM     11  C   UNL     1       3.168   4.649  19.020  0.00  0.00    +0.000 A 
ATOM     12 CL   UNL     1       2.856   6.087  19.926  0.00  0.00    +0.000 Cl
ENDBRANCH   4   6
BRANCH   1  14
ATOM     13  N   UNL     1       8.322   8.613  18.978  0.00  0.00    +0.000 N 
ATOM     14  C   UNL     1       7.928   7.835  17.903  0.00  0.00    +0.000 C 
ATOM     15  O   UNL     1       8.198   8.038  16.726  0.00  0.00    +0.000 OA
ATOM     16  H   UNL     1       8.068   8.333  19.915  0.00  0.00    +0.000 HD
BRANCH  13  20
ATOM     17  C   UNL     1      10.010  12.945  17.415  0.00  0.00    +0.000 C 
ATOM     18  N   UNL     1       9.760  11.755  18.190  0.00  0.00    +0.000 N 
ATOM     19  C   UNL     1       8.902  10.749  17.867  0.00  0.00    +0.000 A 
ATOM     20  C   UNL     1       9.002   9.813  18.865  0.00  0.00    +0.000 A 
ATOM     21  C   UNL     1       9.942  10.369  19.763  0.00  0.00    +0.000 A 
ATOM     22  N   UNL     1      10.413  11.551  19.351  0.00  0.00    +0.000 NA
ENDBRANCH  13  20
ENDBRANCH   1  14
BRANCH   5  23
ATOM     23  C   UNL     1       5.049   6.834  16.718  0.00  0.00    +0.000 C 
ATOM     24  F   UNL     1       4.795   5.904  15.754  0.00  0.00    +0.000 F 
ATOM     25  F   UNL     1       3.824   7.168  17.201  0.00  0.00    +0.000 F 
ENDBRANCH   5  23
TORSDOF 4
ENDMDL
MODEL 7
REMARK VINA RESULT:      -6.9      7.314      9.568
REMARK  Name = 
REMARK  5 active torsions:
REMARK  status: ('A' for Active; 'I' for Inactive)
REMARK    1  A    between atoms: C_1  and  N_2
REMARK    2  A    between atoms: C_4  and  N_5
REMARK    3  A    between atoms: C_6  and  C_8
REMARK    4  A    between atoms: N_11  and  C_12
REMARK    5  A    between atoms: C_19  and  C_20
REMARK                            x       y       z     vdW  Elec       q    Type
REMARK                         _______ _______ _______ _____ _____    ______ ____
ROOT
ATOM      1  C   UNL     1       1.086   9.023  21.033  0.00  0.00    +0.000 A 
ATOM      2  C   UNL     1       1.355   9.006  22.412  0.00  0.00    +0.000 A 
ATOM      3  N   UNL     1       0.707   9.956  23.072  0.00  0.00    +0.000 NA
ATOM      4  N   UNL     1      -0.019  10.616  22.132  0.00  0.00    +0.000 N 
ATOM      5  C   UNL     1       0.149  10.040  20.880  0.00  0.00    +0.000 A 
ENDROOT
BRANCH   4   6
ATOM      6  C   UNL     1      -0.887  11.699  22.497  0.00  0.00    +0.000 A 
ATOM      7  N   UNL     1      -2.072  11.357  23.090  0.00  0.00    +0.000 NA
ATOM      8  C   UNL     1      -2.876  12.358  23.509  0.00  0.00    +0.000 A 
ATOM      9  C   UNL     1      -2.574  13.698  23.360  0.00  0.00    +0.000 A 
ATOM     10  C   UNL     1      -1.380  14.033  22.726  0.00  0.00    +0.000 A 
ATOM     11  C   UNL     1      -0.514  13.031  22.279  0.00  0.00    +0.000 A 
ATOM     12 CL   UNL     1       0.851  13.567  21.366  0.00  0.00    +0.000 Cl
ENDBRANCH   4   6
BRANCH   1  14
ATOM     13  N   UNL     1       1.894   6.876  20.442  0.00  0.00    +0.000 N 
ATOM     14  C   UNL     1       1.646   8.165  20.001  0.00  0.00    +0.000 C 
ATOM     15  O   UNL     1       1.841   8.592  18.871  0.00  0.00    +0.000 OA
ATOM     16  H   UNL     1       1.664   6.622  21.392  0.00  0.00    +0.000 HD
BRANCH  13  20
ATOM     17  C   UNL     1       2.768   3.089  17.451  0.00  0.00    +0.000 C 
ATOM     18  N   UNL     1       2.920   4.214  18.338  0.00  0.00    +0.000 N 
ATOM     19  C   UNL     1       1.914   4.953  18.882  0.00  0.00    +0.000 A 
ATOM     20  C   UNL     1       2.507   5.896  19.682  0.00  0.00    +0.000 A 
ATOM     21  C   UNL     1       3.891   5.651  19.530  0.00  0.00    +0.000 A 
ATOM     22  N   UNL     1       4.147   4.621  18.717  0.00  0.00    +0.000 NA
ENDBRANCH  13  20
ENDBRANCH   1  14
BRANCH   5  23
ATOM     23  C   UNL     1      -0.505  10.607  19.676  0.00  0.00    +0.000 C 
ATOM     24  F   UNL     1       0.428  11.209  18.884  0.00  0.00    +0.000 F 
ATOM     25  F   UNL     1      -1.054   9.647  18.886  0.00  0.00    +0.000 F 
ENDBRANCH   5  23
TORSDOF 4
ENDMDL
MODEL 8
REMARK VINA RESULT:      -6.9      5.920      8.711
REMARK  Name = 
REMARK  5 active torsions:
REMARK  status: ('A' for Active; 'I' for Inactive)
REMARK    1  A    between atoms: C_1  and  N_2
REMARK    2  A    between atoms: C_4  and  N_5
REMARK    3  A    between atoms: C_6  and  C_8
REMARK    4  A    between atoms: N_11  and  C_12
REMARK    5  A    between atoms: C_19  and  C_20
REMARK                            x       y       z     vdW  Elec       q    Type
REMARK                         _______ _______ _______ _____ _____    ______ ____
ROOT
ATOM      1  C   UNL     1       1.470   8.231  20.659  0.00  0.00    +0.000 A 
ATOM      2  C   UNL     1       1.146   8.881  21.862  0.00  0.00    +0.000 A 
ATOM      3  N   UNL     1       0.886  10.171  21.693  0.00  0.00    +0.000 NA
ATOM      4  N   UNL     1       1.024  10.393  20.359  0.00  0.00    +0.000 N 
ATOM      5  C   UNL     1       1.331   9.217  19.688  0.00  0.00    +0.000 A 
ENDROOT
BRANCH   4   6
ATOM      6  C   UNL     1       0.774  11.690  19.799  0.00  0.00    +0.000 A 
ATOM      7  N   UNL     1       1.776  12.614  19.929  0.00  0.00    +0.000 NA
ATOM      8  C   UNL     1       1.597  13.820  19.349  0.00  0.00    +0.000 A 
ATOM      9  C   UNL     1       0.460  14.173  18.647  0.00  0.00    +0.000 A 
ATOM     10  C   UNL     1      -0.565  13.236  18.548  0.00  0.00    +0.000 A 
ATOM     11  C   UNL     1      -0.423  11.973  19.130  0.00  0.00    +0.000 A 
ATOM     12 CL   UNL     1      -1.823  10.960  19.081  0.00  0.00    +0.000 Cl
ENDBRANCH   4   6
BRANCH   1  14
ATOM     13  N   UNL     1       2.979   6.690  19.680  0.00  0.00    +0.000 N 
ATOM     14  C   UNL     1       1.851   6.840  20.468  0.00  0.00    +0.000 C 
ATOM     15  O   UNL     1       1.209   5.938  20.991  0.00  0.00    +0.000 OA
ATOM     16  H   UNL     1       3.450   7.509  19.324  0.00  0.00    +0.000 HD
BRANCH  13  20
ATOM     17  C   UNL     1       3.487   2.150  17.893  0.00  0.00    +0.000 C 
ATOM     18  N   UNL     1       3.741   3.446  18.470  0.00  0.00    +0.000 N 
ATOM     19  C   UNL     1       2.822   4.427  18.684  0.00  0.00    +0.000 A 
ATOM     20  C   UNL     1       3.491   5.469  19.276  0.00  0.00    +0.000 A 
ATOM     21  C   UNL     1       4.828   5.017  19.355  0.00  0.00    +0.000 A 
ATOM     22  N   UNL     1       4.984   3.780  18.871  0.00  0.00    +0.000 NA
ENDBRANCH  13  20
ENDBRANCH   1  14
BRANCH   5  23
ATOM     23  C   UNL     1       1.575   9.204  18.226  0.00  0.00    +0.000 C 
ATOM     24  F   UNL     1       0.389   9.282  17.558  0.00  0.00    +0.000 F 
ATOM     25  F   UNL     1       2.273  10.293  17.809  0.00  0.00    +0.000 F 
ENDBRANCH   5  23
TORSDOF 4
ENDMDL
MODEL 9
REMARK VINA RESULT:      -6.9      5.186      7.204
REMARK  Name = 
REMARK  5 active torsions:
REMARK  status: ('A' for Active; 'I' for Inactive)
REMARK    1  A    between atoms: C_1  and  N_2
REMARK    2  A    between atoms: C_4  and  N_5
REMARK    3  A    between atoms: C_6  and  C_8
REMARK    4  A    between atoms: N_11  and  C_12
REMARK    5  A    between atoms: C_19  and  C_20
REMARK                            x       y       z     vdW  Elec       q    Type
REMARK                         _______ _______ _______ _____ _____    ______ ____
ROOT
ATOM      1  C   UNL     1       2.761   7.407  18.258  0.00  0.00    +0.000 A 
ATOM      2  C   UNL     1       2.481   8.683  17.741  0.00  0.00    +0.000 A 
ATOM      3  N   UNL     1       1.745   9.419  18.563  0.00  0.00    +0.000 NA
ATOM      4  N   UNL     1       1.535   8.637  19.655  0.00  0.00    +0.000 N 
ATOM      5  C   UNL     1       2.185   7.417  19.524  0.00  0.00    +0.000 A 
ENDROOT
BRANCH   4   6
ATOM      6  C   UNL     1       0.799   9.130  20.783  0.00  0.00    +0.000 A 
ATOM      7  N   UNL     1       1.294   8.813  22.019  0.00  0.00    +0.000 NA
ATOM      8  C   UNL     1       0.662   9.324  23.098  0.00  0.00    +0.000 A 
ATOM      9  C   UNL     1      -0.456  10.133  23.021  0.00  0.00    +0.000 A 
ATOM     10  C   UNL     1      -0.969  10.421  21.760  0.00  0.00    +0.000 A 
ATOM     11  C   UNL     1      -0.346   9.918  20.614  0.00  0.00    +0.000 A 
ATOM     12 CL   UNL     1      -1.168  10.207  19.121  0.00  0.00    +0.000 Cl
ENDBRANCH   4   6
BRANCH   1  14
ATOM     13  N   UNL     1       4.713   6.731  17.100  0.00  0.00    +0.000 N 
ATOM     14  C   UNL     1       3.497   6.326  17.622  0.00  0.00    +0.000 C 
ATOM     15  O   UNL     1       3.042   5.190  17.598  0.00  0.00    +0.000 OA
ATOM     16  H   UNL     1       5.005   7.692  17.205  0.00  0.00    +0.000 HD
BRANCH  13  20
ATOM     17  C   UNL     1       6.731   3.997  13.563  0.00  0.00    +0.000 C 
ATOM     18  N   UNL     1       6.483   4.699  14.797  0.00  0.00    +0.000 N 
ATOM     19  C   UNL     1       5.397   5.469  15.081  0.00  0.00    +0.000 A 
ATOM     20  C   UNL     1       5.559   5.915  16.368  0.00  0.00    +0.000 A 
ATOM     21  C   UNL     1       6.800   5.368  16.767  0.00  0.00    +0.000 A 
ATOM     22  N   UNL     1       7.364   4.619  15.813  0.00  0.00    +0.000 NA
ENDBRANCH  13  20
ENDBRANCH   1  14
BRANCH   5  23
ATOM     23  C   UNL     1       2.073   6.368  20.565  0.00  0.00    +0.000 C 
ATOM     24  F   UNL     1       1.014   5.554  20.290  0.00  0.00    +0.000 F 
ATOM     25  F   UNL     1       3.147   5.536  20.580  0.00  0.00    +0.000 F 
ENDBRANCH   5  23
TORSDOF 4
ENDMDL
