MODEL 1
REMARK VINA RESULT:      -6.8      0.000      0.000
REMARK  Name = 
REMARK  14 active torsions:
REMARK  status: ('A' for Active; 'I' for Inactive)
REMARK    1  A    between atoms: C_1  and  C_2
REMARK    2  A    between atoms: C_2  and  CA_3
REMARK    3  A    between atoms: CA_3  and  C_4
REMARK    4  A    between atoms: CA_3  and  N_6
REMARK    5  A    between atoms: C_4  and  O_5
REMARK    6  A    between atoms: N_9  and  C_10
REMARK    7  A    between atoms: C_13  and  C_14
REMARK    8  A    between atoms: C_14  and  C_15
REMARK    9  A    between atoms: C_18  and  N_19
REMARK   10  A    between atoms: N_22  and  CA_23
REMARK   11  A    between atoms: CA_23  and  C_24
REMARK   12  A    between atoms: CA_23  and  C_26
REMARK   13  A    between atoms: C_24  and  C_25
REMARK   14  A    between atoms: C_26  and  O_27
REMARK                            x       y       z     vdW  Elec       q    Type
REMARK                         _______ _______ _______ _____ _____    ______ ____
ROOT
ATOM      1  C   UNL     1       1.906   5.853  20.553  0.00  0.00    +0.000 C 
ENDROOT
BRANCH   1   5
ATOM      2  C   UNL     1       4.496   4.229  17.481  0.00  0.00    +0.000 A 
ATOM      3  C   UNL     1       5.008   4.928  18.578  0.00  0.00    +0.000 A 
ATOM      4  C   UNL     1       4.171   5.434  19.569  0.00  0.00    +0.000 A 
ATOM      5  C   UNL     1       2.788   5.268  19.481  0.00  0.00    +0.000 A 
ATOM      6  C   UNL     1       2.267   4.555  18.392  0.00  0.00    +0.000 A 
ATOM      7  C   UNL     1       3.114   4.039  17.398  0.00  0.00    +0.000 A 
BRANCH   2  11
ATOM      8  N   UNL     1       6.262   3.633  14.357  0.00  0.00    +0.000 N 
ATOM      9  C   UNL     1       5.547   4.385  15.254  0.00  0.00    +0.000 C 
ATOM     10  O   UNL     1       5.195   5.528  14.977  0.00  0.00    +0.000 OA
ATOM     11  N   UNL     1       5.328   3.737  16.448  0.00  0.00    +0.000 N 
ATOM     12  H   UNL     1       6.250   2.627  14.443  0.00  0.00    +0.000 HD
ATOM     13  H   UNL     1       5.955   2.984  16.672  0.00  0.00    +0.000 HD
BRANCH   8  14
ATOM     14  CA  UNL     1       6.640   4.192  13.060  0.00  0.00    +0.000 C 
BRANCH  14  16
ATOM     15  C   UNL     1       5.092   2.736  11.559  0.00  0.00    +0.000 C 
ATOM     16  C   UNL     1       6.513   3.169  11.911  0.00  0.00    +0.000 C 
ENDBRANCH  14  16
BRANCH  14  17
ATOM     17  C   UNL     1       8.074   4.751  13.160  0.00  0.00    +0.000 C 
BRANCH  17  18
ATOM     18  O   UNL     1       8.159   6.077  12.632  0.00  0.00    +0.000 OA
ATOM     19  H   UNL     1       7.255   6.369  12.422  0.00  0.00    +0.000 HD
ENDBRANCH  17  18
ENDBRANCH  14  17
ENDBRANCH   8  14
ENDBRANCH   2  11
ENDBRANCH   1   5
BRANCH   1  20
ATOM     20  C   UNL     1       1.639   7.338  20.446  0.00  0.00    +0.000 A 
ATOM     21  C   UNL     1       1.895   8.007  19.252  0.00  0.00    +0.000 A 
ATOM     22  C   UNL     1       1.476   9.331  19.083  0.00  0.00    +0.000 A 
ATOM     23  C   UNL     1       0.797  10.020  20.087  0.00  0.00    +0.000 A 
ATOM     24  C   UNL     1       0.621   9.379  21.323  0.00  0.00    +0.000 A 
ATOM     25  C   UNL     1       1.051   8.048  21.504  0.00  0.00    +0.000 A 
BRANCH  23  26
ATOM     26  N   UNL     1       0.267  11.320  19.882  0.00  0.00    +0.000 N 
ATOM     27  C   UNL     1       0.807  12.517  20.348  0.00  0.00    +0.000 C 
ATOM     28  O   UNL     1       1.795  12.664  21.040  0.00  0.00    +0.000 OA
ATOM     29  N   UNL     1       0.058  13.603  19.924  0.00  0.00    +0.000 N 
ATOM     30  H   UNL     1      -0.579  11.383  19.328  0.00  0.00    +0.000 HD
ATOM     31  H   UNL     1      -0.407  13.468  19.039  0.00  0.00    +0.000 HD
BRANCH  29  32
ATOM     32  CA  UNL     1       0.452  15.001  20.164  0.00  0.00    +0.000 C 
BRANCH  32  33
ATOM     33  C   UNL     1      -0.698  15.917  20.634  0.00  0.00    +0.000 C 
ATOM     34  C   UNL     1      -0.218  16.967  21.627  0.00  0.00    +0.000 C 
ENDBRANCH  32  33
BRANCH  32  35
ATOM     35  C   UNL     1       1.048  15.550  18.849  0.00  0.00    +0.000 C 
BRANCH  35  36
ATOM     36  O   UNL     1       2.462  15.381  18.831  0.00  0.00    +0.000 OA
ATOM     37  H   UNL     1       2.829  16.091  18.274  0.00  0.00    +0.000 HD
ENDBRANCH  35  36
ENDBRANCH  32  35
ENDBRANCH  29  32
ENDBRANCH  23  26
ENDBRANCH   1  20
TORSDOF 12
ENDMDL
MODEL 2
REMARK VINA RESULT:      -6.8      1.260      1.730
REMARK  Name = 
REMARK  14 active torsions:
REMARK  status: ('A' for Active; 'I' for Inactive)
REMARK    1  A    between atoms: C_1  and  C_2
REMARK    2  A    between atoms: C_2  and  CA_3
REMARK    3  A    between atoms: CA_3  and  C_4
REMARK    4  A    between atoms: CA_3  and  N_6
REMARK    5  A    between atoms: C_4  and  O_5
REMARK    6  A    between atoms: N_9  and  C_10
REMARK    7  A    between atoms: C_13  and  C_14
REMARK    8  A    between atoms: C_14  and  C_15
REMARK    9  A    between atoms: C_18  and  N_19
REMARK   10  A    between atoms: N_22  and  CA_23
REMARK   11  A    between atoms: CA_23  and  C_24
REMARK   12  A    between atoms: CA_23  and  C_26
REMARK   13  A    between atoms: C_24  and  C_25
REMARK   14  A    between atoms: C_26  and  O_27
REMARK                            x       y       z     vdW  Elec       q    Type
REMARK                         _______ _______ _______ _____ _____    ______ ____
ROOT
ATOM      1  C   UNL     1       1.812   5.877  20.551  0.00  0.00    +0.000 C 
ENDROOT
BRANCH   1   5
ATOM      2  C   UNL     1       4.347   4.216  17.452  0.00  0.00    +0.000 A 
ATOM      3  C   UNL     1       4.871   4.985  18.495  0.00  0.00    +0.000 A 
ATOM      4  C   UNL     1       4.053   5.503  19.495  0.00  0.00    +0.000 A 
ATOM      5  C   UNL     1       2.676   5.279  19.472  0.00  0.00    +0.000 A 
ATOM      6  C   UNL     1       2.143   4.496  18.437  0.00  0.00    +0.000 A 
ATOM      7  C   UNL     1       2.972   3.968  17.434  0.00  0.00    +0.000 A 
BRANCH   2  11
ATOM      8  N   UNL     1       6.139   3.646  14.339  0.00  0.00    +0.000 N 
ATOM      9  C   UNL     1       5.473   4.407  15.265  0.00  0.00    +0.000 C 
ATOM     10  O   UNL     1       5.242   5.594  15.054  0.00  0.00    +0.000 OA
ATOM     11  N   UNL     1       5.157   3.711  16.409  0.00  0.00    +0.000 N 
ATOM     12  H   UNL     1       6.027   2.642  14.359  0.00  0.00    +0.000 HD
ATOM     13  H   UNL     1       5.703   2.887  16.599  0.00  0.00    +0.000 HD
BRANCH   8  14
ATOM     14  CA  UNL     1       6.608   4.245  13.090  0.00  0.00    +0.000 C 
BRANCH  14  16
ATOM     15  C   UNL     1       5.371   2.418  11.710  0.00  0.00    +0.000 C 
ATOM     16  C   UNL     1       6.642   3.235  11.922  0.00  0.00    +0.000 C 
ENDBRANCH  14  16
BRANCH  14  17
ATOM     17  C   UNL     1       7.994   4.874  13.331  0.00  0.00    +0.000 C 
BRANCH  17  18
ATOM     18  O   UNL     1       8.192   6.037  12.523  0.00  0.00    +0.000 OA
ATOM     19  H   UNL     1       7.318   6.331  12.211  0.00  0.00    +0.000 HD
ENDBRANCH  17  18
ENDBRANCH  14  17
ENDBRANCH   8  14
ENDBRANCH   2  11
ENDBRANCH   1   5
BRANCH   1  20
ATOM     20  C   UNL     1       1.475   7.342  20.385  0.00  0.00    +0.000 A 
ATOM     21  C   UNL     1       1.030   8.083  21.478  0.00  0.00    +0.000 A 
ATOM     22  C   UNL     1       0.899   9.472  21.381  0.00  0.00    +0.000 A 
ATOM     23  C   UNL     1       1.203  10.158  20.206  0.00  0.00    +0.000 A 
ATOM     24  C   UNL     1       1.560   9.404  19.077  0.00  0.00    +0.000 A 
ATOM     25  C   UNL     1       1.684   8.002  19.165  0.00  0.00    +0.000 A 
BRANCH  23  26
ATOM     26  N   UNL     1       1.184  11.575  20.134  0.00  0.00    +0.000 N 
ATOM     27  C   UNL     1       0.189  12.361  19.558  0.00  0.00    +0.000 C 
ATOM     28  O   UNL     1      -0.812  11.985  18.981  0.00  0.00    +0.000 OA
ATOM     29  N   UNL     1       0.469  13.710  19.707  0.00  0.00    +0.000 N 
ATOM     30  H   UNL     1       1.964  12.060  20.560  0.00  0.00    +0.000 HD
ATOM     31  H   UNL     1       0.997  13.937  20.536  0.00  0.00    +0.000 HD
BRANCH  29  32
ATOM     32  CA  UNL     1      -0.459  14.778  19.301  0.00  0.00    +0.000 C 
BRANCH  32  33
ATOM     33  C   UNL     1       0.227  16.045  18.749  0.00  0.00    +0.000 C 
ATOM     34  C   UNL     1      -0.786  17.077  18.269  0.00  0.00    +0.000 C 
ENDBRANCH  32  33
BRANCH  32  35
ATOM     35  C   UNL     1      -1.314  15.147  20.534  0.00  0.00    +0.000 C 
BRANCH  35  36
ATOM     36  O   UNL     1      -2.677  14.792  20.322  0.00  0.00    +0.000 OA
ATOM     37  H   UNL     1      -3.211  15.329  20.936  0.00  0.00    +0.000 HD
ENDBRANCH  35  36
ENDBRANCH  32  35
ENDBRANCH  29  32
ENDBRANCH  23  26
ENDBRANCH   1  20
TORSDOF 12
ENDMDL
MODEL 3
REMARK VINA RESULT:      -6.6      0.867      1.226
REMARK  Name = 
REMARK  14 active torsions:
REMARK  status: ('A' for Active; 'I' for Inactive)
REMARK    1  A    between atoms: C_1  and  C_2
REMARK    2  A    between atoms: C_2  and  CA_3
REMARK    3  A    between atoms: CA_3  and  C_4
REMARK    4  A    between atoms: CA_3  and  N_6
REMARK    5  A    between atoms: C_4  and  O_5
REMARK    6  A    between atoms: N_9  and  C_10
REMARK    7  A    between atoms: C_13  and  C_14
REMARK    8  A    between atoms: C_14  and  C_15
REMARK    9  A    between atoms: C_18  and  N_19
REMARK   10  A    between atoms: N_22  and  CA_23
REMARK   11  A    between atoms: CA_23  and  C_24
REMARK   12  A    between atoms: CA_23  and  C_26
REMARK   13  A    between atoms: C_24  and  C_25
REMARK   14  A    between atoms: C_26  and  O_27
REMARK                            x       y       z     vdW  Elec       q    Type
REMARK                         _______ _______ _______ _____ _____    ______ ____
ROOT
ATOM      1  C   UNL     1       2.177   5.506  20.493  0.00  0.00    +0.000 C 
ENDROOT
BRANCH   1   5
ATOM      2  C   UNL     1       4.754   4.213  17.257  0.00  0.00    +0.000 A 
ATOM      3  C   UNL     1       3.377   3.977  17.237  0.00  0.00    +0.000 A 
ATOM      4  C   UNL     1       2.553   4.409  18.272  0.00  0.00    +0.000 A 
ATOM      5  C   UNL     1       3.089   5.078  19.373  0.00  0.00    +0.000 A 
ATOM      6  C   UNL     1       4.468   5.332  19.396  0.00  0.00    +0.000 A 
ATOM      7  C   UNL     1       5.296   4.903  18.346  0.00  0.00    +0.000 A 
BRANCH   2  11
ATOM      8  N   UNL     1       6.437   3.544  14.102  0.00  0.00    +0.000 N 
ATOM      9  C   UNL     1       5.634   4.260  14.952  0.00  0.00    +0.000 C 
ATOM     10  O   UNL     1       5.046   5.265  14.564  0.00  0.00    +0.000 OA
ATOM     11  N   UNL     1       5.612   3.753  16.231  0.00  0.00    +0.000 N 
ATOM     12  H   UNL     1       6.632   2.576  14.313  0.00  0.00    +0.000 HD
ATOM     13  H   UNL     1       6.389   3.172  16.497  0.00  0.00    +0.000 HD
BRANCH   8  14
ATOM     14  CA  UNL     1       6.626   3.982  12.720  0.00  0.00    +0.000 C 
BRANCH  14  16
ATOM     15  C   UNL     1       5.767   1.864  11.476  0.00  0.00    +0.000 C 
ATOM     16  C   UNL     1       6.931   2.810  11.761  0.00  0.00    +0.000 C 
ENDBRANCH  14  16
BRANCH  14  17
ATOM     17  C   UNL     1       7.744   5.043  12.685  0.00  0.00    +0.000 C 
BRANCH  17  18
ATOM     18  O   UNL     1       8.052   5.526  13.995  0.00  0.00    +0.000 OA
ATOM     19  H   UNL     1       7.371   5.187  14.602  0.00  0.00    +0.000 HD
ENDBRANCH  17  18
ENDBRANCH  14  17
ENDBRANCH   8  14
ENDBRANCH   2  11
ENDBRANCH   1   5
BRANCH   1  20
ATOM     20  C   UNL     1       1.769   6.962  20.487  0.00  0.00    +0.000 A 
ATOM     21  C   UNL     1       2.003   7.747  19.361  0.00  0.00    +0.000 A 
ATOM     22  C   UNL     1       1.463   9.034  19.274  0.00  0.00    +0.000 A 
ATOM     23  C   UNL     1       0.681   9.572  20.295  0.00  0.00    +0.000 A 
ATOM     24  C   UNL     1       0.521   8.820  21.469  0.00  0.00    +0.000 A 
ATOM     25  C   UNL     1       1.073   7.526  21.568  0.00  0.00    +0.000 A 
BRANCH  23  26
ATOM     26  N   UNL     1       0.033  10.828  20.166  0.00  0.00    +0.000 N 
ATOM     27  C   UNL     1       0.468  12.041  20.695  0.00  0.00    +0.000 C 
ATOM     28  O   UNL     1       1.445  12.240  21.390  0.00  0.00    +0.000 OA
ATOM     29  N   UNL     1      -0.381  13.076  20.336  0.00  0.00    +0.000 N 
ATOM     30  H   UNL     1      -0.820  10.844  19.620  0.00  0.00    +0.000 HD
ATOM     31  H   UNL     1      -0.841  12.949  19.447  0.00  0.00    +0.000 HD
BRANCH  29  32
ATOM     32  CA  UNL     1      -0.113  14.489  20.652  0.00  0.00    +0.000 C 
BRANCH  32  33
ATOM     33  C   UNL     1      -1.274  15.217  21.361  0.00  0.00    +0.000 C 
ATOM     34  C   UNL     1      -1.322  16.696  21.002  0.00  0.00    +0.000 C 
ENDBRANCH  32  33
BRANCH  32  35
ATOM     35  C   UNL     1       0.217  15.209  19.326  0.00  0.00    +0.000 C 
BRANCH  35  36
ATOM     36  O   UNL     1      -0.485  14.608  18.242  0.00  0.00    +0.000 OA
ATOM     37  H   UNL     1      -1.429  14.815  18.361  0.00  0.00    +0.000 HD
ENDBRANCH  35  36
ENDBRANCH  32  35
ENDBRANCH  29  32
ENDBRANCH  23  26
ENDBRANCH   1  20
TORSDOF 12
ENDMDL
MODEL 4
REMARK VINA RESULT:      -6.4      0.489     10.895
REMARK  Name = 
REMARK  14 active torsions:
REMARK  status: ('A' for Active; 'I' for Inactive)
REMARK    1  A    between atoms: C_1  and  C_2
REMARK    2  A    between atoms: C_2  and  CA_3
REMARK    3  A    between atoms: CA_3  and  C_4
REMARK    4  A    between atoms: CA_3  and  N_6
REMARK    5  A    between atoms: C_4  and  O_5
REMARK    6  A    between atoms: N_9  and  C_10
REMARK    7  A    between atoms: C_13  and  C_14
REMARK    8  A    between atoms: C_14  and  C_15
REMARK    9  A    between atoms: C_18  and  N_19
REMARK   10  A    between atoms: N_22  and  CA_23
REMARK   11  A    between atoms: CA_23  and  C_24
REMARK   12  A    between atoms: CA_23  and  C_26
REMARK   13  A    between atoms: C_24  and  C_25
REMARK   14  A    between atoms: C_26  and  O_27
REMARK                            x       y       z     vdW  Elec       q    Type
REMARK                         _______ _______ _______ _____ _____    ______ ____
ROOT
ATOM      1  C   UNL     1       2.116   5.811  20.595  0.00  0.00    +0.000 C 
ENDROOT
BRANCH   1   5
ATOM      2  C   UNL     1       1.014   9.902  19.681  0.00  0.00    +0.000 A 
ATOM      3  C   UNL     1       0.694   9.313  20.907  0.00  0.00    +0.000 A 
ATOM      4  C   UNL     1       1.065   8.003  21.200  0.00  0.00    +0.000 A 
ATOM      5  C   UNL     1       1.755   7.235  20.262  0.00  0.00    +0.000 A 
ATOM      6  C   UNL     1       2.093   7.823  19.034  0.00  0.00    +0.000 A 
ATOM      7  C   UNL     1       1.725   9.147  18.745  0.00  0.00    +0.000 A 
BRANCH   2  11
ATOM      8  N   UNL     1       0.146  13.434  19.709  0.00  0.00    +0.000 N 
ATOM      9  C   UNL     1       0.747  12.301  20.194  0.00  0.00    +0.000 C 
ATOM     10  O   UNL     1       1.355  12.318  21.260  0.00  0.00    +0.000 OA
ATOM     11  N   UNL     1       0.617  11.219  19.353  0.00  0.00    +0.000 N 
ATOM     12  H   UNL     1      -0.608  13.342  19.044  0.00  0.00    +0.000 HD
ATOM     13  H   UNL     1       0.424  11.422  18.387  0.00  0.00    +0.000 HD
BRANCH   8  14
ATOM     14  CA  UNL     1       0.243  14.694  20.445  0.00  0.00    +0.000 C 
BRANCH  14  16
ATOM     15  C   UNL     1      -0.968  16.945  20.931  0.00  0.00    +0.000 C 
ATOM     16  C   UNL     1      -1.053  15.531  20.363  0.00  0.00    +0.000 C 
ENDBRANCH  14  16
BRANCH  14  17
ATOM     17  C   UNL     1       1.458  15.484  19.920  0.00  0.00    +0.000 C 
BRANCH  17  18
ATOM     18  O   UNL     1       1.383  15.685  18.506  0.00  0.00    +0.000 OA
ATOM     19  H   UNL     1       1.821  14.930  18.077  0.00  0.00    +0.000 HD
ENDBRANCH  17  18
ENDBRANCH  14  17
ENDBRANCH   8  14
ENDBRANCH   2  11
ENDBRANCH   1   5
BRANCH   1  20
ATOM     20  C   UNL     1       2.967   5.093  19.572  0.00  0.00    +0.000 A 
ATOM     21  C   UNL     1       2.364   4.325  18.579  0.00  0.00    +0.000 A 
ATOM     22  C   UNL     1       3.126   3.816  17.522  0.00  0.00    +0.000 A 
ATOM     23  C   UNL     1       4.496   4.052  17.424  0.00  0.00    +0.000 A 
ATOM     24  C   UNL     1       5.121   4.746  18.472  0.00  0.00    +0.000 A 
ATOM     25  C   UNL     1       4.361   5.253  19.546  0.00  0.00    +0.000 A 
BRANCH  23  26
ATOM     26  N   UNL     1       5.253   3.639  16.298  0.00  0.00    +0.000 N 
ATOM     27  C   UNL     1       5.447   4.360  15.121  0.00  0.00    +0.000 C 
ATOM     28  O   UNL     1       4.977   5.442  14.829  0.00  0.00    +0.000 OA
ATOM     29  N   UNL     1       6.280   3.679  14.249  0.00  0.00    +0.000 N 
ATOM     30  H   UNL     1       5.711   2.738  16.365  0.00  0.00    +0.000 HD
ATOM     31  H   UNL     1       6.962   3.087  14.699  0.00  0.00    +0.000 HD
BRANCH  29  32
ATOM     32  CA  UNL     1       6.757   4.246  12.977  0.00  0.00    +0.000 C 
BRANCH  32  33
ATOM     33  C   UNL     1       6.921   3.216  11.839  0.00  0.00    +0.000 C 
ATOM     34  C   UNL     1       5.651   2.405  11.620  0.00  0.00    +0.000 C 
ENDBRANCH  32  33
BRANCH  32  35
ATOM     35  C   UNL     1       8.112   4.935  13.252  0.00  0.00    +0.000 C 
BRANCH  35  36
ATOM     36  O   UNL     1       8.220   6.144  12.507  0.00  0.00    +0.000 OA
ATOM     37  H   UNL     1       8.605   5.914  11.641  0.00  0.00    +0.000 HD
ENDBRANCH  35  36
ENDBRANCH  32  35
ENDBRANCH  29  32
ENDBRANCH  23  26
ENDBRANCH   1  20
TORSDOF 12
ENDMDL
MODEL 5
REMARK VINA RESULT:      -6.3      0.975      1.357
REMARK  Name = 
REMARK  14 active torsions:
REMARK  status: ('A' for Active; 'I' for Inactive)
REMARK    1  A    between atoms: C_1  and  C_2
REMARK    2  A    between atoms: C_2  and  CA_3
REMARK    3  A    between atoms: CA_3  and  C_4
REMARK    4  A    between atoms: CA_3  and  N_6
REMARK    5  A    between atoms: C_4  and  O_5
REMARK    6  A    between atoms: N_9  and  C_10
REMARK    7  A    between atoms: C_13  and  C_14
REMARK    8  A    between atoms: C_14  and  C_15
REMARK    9  A    between atoms: C_18  and  N_19
REMARK   10  A    between atoms: N_22  and  CA_23
REMARK   11  A    between atoms: CA_23  and  C_24
REMARK   12  A    between atoms: CA_23  and  C_26
REMARK   13  A    between atoms: C_24  and  C_25
REMARK   14  A    between atoms: C_26  and  O_27
REMARK                            x       y       z     vdW  Elec       q    Type
REMARK                         _______ _______ _______ _____ _____    ______ ____
ROOT
ATOM      1  C   UNL     1       2.098   5.811  20.540  0.00  0.00    +0.000 C 
ENDROOT
BRANCH   1   5
ATOM      2  C   UNL     1       4.664   4.213  17.433  0.00  0.00    +0.000 A 
ATOM      3  C   UNL     1       5.176   4.972  18.489  0.00  0.00    +0.000 A 
ATOM      4  C   UNL     1       4.348   5.469  19.492  0.00  0.00    +0.000 A 
ATOM      5  C   UNL     1       2.973   5.234  19.458  0.00  0.00    +0.000 A 
ATOM      6  C   UNL     1       2.452   4.462  18.409  0.00  0.00    +0.000 A 
ATOM      7  C   UNL     1       3.291   3.955  17.404  0.00  0.00    +0.000 A 
BRANCH   2  11
ATOM      8  N   UNL     1       6.314   3.564  14.258  0.00  0.00    +0.000 N 
ATOM      9  C   UNL     1       5.577   4.307  15.143  0.00  0.00    +0.000 C 
ATOM     10  O   UNL     1       5.103   5.390  14.813  0.00  0.00    +0.000 OA
ATOM     11  N   UNL     1       5.484   3.729  16.388  0.00  0.00    +0.000 N 
ATOM     12  H   UNL     1       6.404   2.569  14.410  0.00  0.00    +0.000 HD
ATOM     13  H   UNL     1       6.192   3.054  16.624  0.00  0.00    +0.000 HD
BRANCH   8  14
ATOM     14  CA  UNL     1       6.569   4.062  12.907  0.00  0.00    +0.000 C 
BRANCH  14  16
ATOM     15  C   UNL     1       5.335   2.346  11.388  0.00  0.00    +0.000 C 
ATOM     16  C   UNL     1       6.664   2.928  11.863  0.00  0.00    +0.000 C 
ENDBRANCH  14  16
BRANCH  14  17
ATOM     17  C   UNL     1       7.852   4.917  12.928  0.00  0.00    +0.000 C 
BRANCH  17  18
ATOM     18  O   UNL     1       7.991   5.626  14.162  0.00  0.00    +0.000 OA
ATOM     19  H   UNL     1       7.832   4.993  14.884  0.00  0.00    +0.000 HD
ENDBRANCH  17  18
ENDBRANCH  14  17
ENDBRANCH   8  14
ENDBRANCH   2  11
ENDBRANCH   1   5
BRANCH   1  20
ATOM     20  C   UNL     1       1.607   7.222  20.306  0.00  0.00    +0.000 A 
ATOM     21  C   UNL     1       0.988   7.925  21.337  0.00  0.00    +0.000 A 
ATOM     22  C   UNL     1       0.704   9.286  21.189  0.00  0.00    +0.000 A 
ATOM     23  C   UNL     1       1.024   9.982  20.025  0.00  0.00    +0.000 A 
ATOM     24  C   UNL     1       1.563   9.256  18.951  0.00  0.00    +0.000 A 
ATOM     25  C   UNL     1       1.842   7.880  19.088  0.00  0.00    +0.000 A 
BRANCH  23  26
ATOM     26  N   UNL     1       0.847  11.385  19.912  0.00  0.00    +0.000 N 
ATOM     27  C   UNL     1       0.423  12.249  20.919  0.00  0.00    +0.000 C 
ATOM     28  O   UNL     1       0.091  11.961  22.052  0.00  0.00    +0.000 OA
ATOM     29  N   UNL     1       0.406  13.562  20.477  0.00  0.00    +0.000 N 
ATOM     30  H   UNL     1       1.067  11.799  19.014  0.00  0.00    +0.000 HD
ATOM     31  H   UNL     1       1.091  13.772  19.767  0.00  0.00    +0.000 HD
BRANCH  29  32
ATOM     32  CA  UNL     1       0.113  14.707  21.355  0.00  0.00    +0.000 C 
BRANCH  32  33
ATOM     33  C   UNL     1      -0.931  15.694  20.790  0.00  0.00    +0.000 C 
ATOM     34  C   UNL     1      -2.345  15.341  21.235  0.00  0.00    +0.000 C 
ENDBRANCH  32  33
BRANCH  32  35
ATOM     35  C   UNL     1       1.442  15.450  21.612  0.00  0.00    +0.000 C 
BRANCH  35  36
ATOM     36  O   UNL     1       1.415  16.745  21.018  0.00  0.00    +0.000 OA
ATOM     37  H   UNL     1       0.488  17.043  21.023  0.00  0.00    +0.000 HD
ENDBRANCH  35  36
ENDBRANCH  32  35
ENDBRANCH  29  32
ENDBRANCH  23  26
ENDBRANCH   1  20
TORSDOF 12
ENDMDL
MODEL 6
REMARK VINA RESULT:      -6.2      0.710      1.439
REMARK  Name = 
REMARK  14 active torsions:
REMARK  status: ('A' for Active; 'I' for Inactive)
REMARK    1  A    between atoms: C_1  and  C_2
REMARK    2  A    between atoms: C_2  and  CA_3
REMARK    3  A    between atoms: CA_3  and  C_4
REMARK    4  A    between atoms: CA_3  and  N_6
REMARK    5  A    between atoms: C_4  and  O_5
REMARK    6  A    between atoms: N_9  and  C_10
REMARK    7  A    between atoms: C_13  and  C_14
REMARK    8  A    between atoms: C_14  and  C_15
REMARK    9  A    between atoms: C_18  and  N_19
REMARK   10  A    between atoms: N_22  and  CA_23
REMARK   11  A    between atoms: CA_23  and  C_24
REMARK   12  A    between atoms: CA_23  and  C_26
REMARK   13  A    between atoms: C_24  and  C_25
REMARK   14  A    between atoms: C_26  and  O_27
REMARK                            x       y       z     vdW  Elec       q    Type
REMARK                         _______ _______ _______ _____ _____    ______ ____
ROOT
ATOM      1  C   UNL     1       2.431   6.145  20.470  0.00  0.00    +0.000 C 
ENDROOT
BRANCH   1   5
ATOM      2  C   UNL     1       4.652   4.353  17.208  0.00  0.00    +0.000 A 
ATOM      3  C   UNL     1       3.306   4.053  17.430  0.00  0.00    +0.000 A 
ATOM      4  C   UNL     1       2.594   4.644  18.471  0.00  0.00    +0.000 A 
ATOM      5  C   UNL     1       3.218   5.545  19.334  0.00  0.00    +0.000 A 
ATOM      6  C   UNL     1       4.566   5.864  19.110  0.00  0.00    +0.000 A 
ATOM      7  C   UNL     1       5.279   5.272  18.055  0.00  0.00    +0.000 A 
BRANCH   2  11
ATOM      8  N   UNL     1       6.134   3.355  14.040  0.00  0.00    +0.000 N 
ATOM      9  C   UNL     1       5.479   4.211  14.887  0.00  0.00    +0.000 C 
ATOM     10  O   UNL     1       5.057   5.292  14.487  0.00  0.00    +0.000 OA
ATOM     11  N   UNL     1       5.400   3.738  16.177  0.00  0.00    +0.000 N 
ATOM     12  H   UNL     1       6.170   2.372  14.268  0.00  0.00    +0.000 HD
ATOM     13  H   UNL     1       6.076   3.041  16.442  0.00  0.00    +0.000 HD
BRANCH   8  14
ATOM     14  CA  UNL     1       6.365   3.729  12.645  0.00  0.00    +0.000 C 
BRANCH  14  16
ATOM     15  C   UNL     1       7.405   1.911  11.101  0.00  0.00    +0.000 C 
ATOM     16  C   UNL     1       6.142   2.554  11.669  0.00  0.00    +0.000 C 
ENDBRANCH  14  16
BRANCH  14  17
ATOM     17  C   UNL     1       7.788   4.307  12.515  0.00  0.00    +0.000 C 
BRANCH  17  18
ATOM     18  O   UNL     1       7.846   5.666  12.957  0.00  0.00    +0.000 OA
ATOM     19  H   UNL     1       7.204   6.174  12.432  0.00  0.00    +0.000 HD
ENDBRANCH  17  18
ENDBRANCH  14  17
ENDBRANCH   8  14
ENDBRANCH   2  11
ENDBRANCH   1   5
BRANCH   1  20
ATOM     20  C   UNL     1       1.804   7.493  20.194  0.00  0.00    +0.000 A 
ATOM     21  C   UNL     1       1.147   8.178  21.213  0.00  0.00    +0.000 A 
ATOM     22  C   UNL     1       0.732   9.500  21.020  0.00  0.00    +0.000 A 
ATOM     23  C   UNL     1       0.958  10.172  19.821  0.00  0.00    +0.000 A 
ATOM     24  C   UNL     1       1.536   9.455  18.762  0.00  0.00    +0.000 A 
ATOM     25  C   UNL     1       1.946   8.118  18.945  0.00  0.00    +0.000 A 
BRANCH  23  26
ATOM     26  N   UNL     1       0.646  11.547  19.657  0.00  0.00    +0.000 N 
ATOM     27  C   UNL     1       1.205  12.611  20.361  0.00  0.00    +0.000 C 
ATOM     28  O   UNL     1       2.021  12.559  21.260  0.00  0.00    +0.000 OA
ATOM     29  N   UNL     1       0.706  13.824  19.913  0.00  0.00    +0.000 N 
ATOM     30  H   UNL     1      -0.038  11.775  18.946  0.00  0.00    +0.000 HD
ATOM     31  H   UNL     1       0.441  13.832  18.940  0.00  0.00    +0.000 HD
BRANCH  29  32
ATOM     32  CA  UNL     1       1.199  15.127  20.390  0.00  0.00    +0.000 C 
BRANCH  32  33
ATOM     33  C   UNL     1       0.103  16.201  20.561  0.00  0.00    +0.000 C 
ATOM     34  C   UNL     1       0.688  17.606  20.613  0.00  0.00    +0.000 C 
ENDBRANCH  32  33
BRANCH  32  35
ATOM     35  C   UNL     1       2.257  15.623  19.381  0.00  0.00    +0.000 C 
BRANCH  35  36
ATOM     36  O   UNL     1       2.231  14.831  18.197  0.00  0.00    +0.000 OA
ATOM     37  H   UNL     1       1.412  14.304  18.223  0.00  0.00    +0.000 HD
ENDBRANCH  35  36
ENDBRANCH  32  35
ENDBRANCH  29  32
ENDBRANCH  23  26
ENDBRANCH   1  20
TORSDOF 12
ENDMDL
MODEL 7
REMARK VINA RESULT:      -6.2      4.638      6.874
REMARK  Name = 
REMARK  14 active torsions:
REMARK  status: ('A' for Active; 'I' for Inactive)
REMARK    1  A    between atoms: C_1  and  C_2
REMARK    2  A    between atoms: C_2  and  CA_3
REMARK    3  A    between atoms: CA_3  and  C_4
REMARK    4  A    between atoms: CA_3  and  N_6
REMARK    5  A    between atoms: C_4  and  O_5
REMARK    6  A    between atoms: N_9  and  C_10
REMARK    7  A    between atoms: C_13  and  C_14
REMARK    8  A    between atoms: C_14  and  C_15
REMARK    9  A    between atoms: C_18  and  N_19
REMARK   10  A    between atoms: N_22  and  CA_23
REMARK   11  A    between atoms: CA_23  and  C_24
REMARK   12  A    between atoms: CA_23  and  C_26
REMARK   13  A    between atoms: C_24  and  C_25
REMARK   14  A    between atoms: C_26  and  O_27
REMARK                            x       y       z     vdW  Elec       q    Type
REMARK                         _______ _______ _______ _____ _____    ______ ____
ROOT
ATOM      1  C   UNL     1       0.639  12.032  19.321  0.00  0.00    +0.000 C 
ENDROOT
BRANCH   1   5
ATOM      2  C   UNL     1       1.799   7.894  19.890  0.00  0.00    +0.000 A 
ATOM      3  C   UNL     1       1.927   8.528  18.651  0.00  0.00    +0.000 A 
ATOM      4  C   UNL     1       1.567   9.862  18.480  0.00  0.00    +0.000 A 
ATOM      5  C   UNL     1       1.049  10.599  19.545  0.00  0.00    +0.000 A 
ATOM      6  C   UNL     1       0.930   9.976  20.796  0.00  0.00    +0.000 A 
ATOM      7  C   UNL     1       1.302   8.633  20.968  0.00  0.00    +0.000 A 
BRANCH   2  11
ATOM      8  N   UNL     1       3.170   4.534  19.654  0.00  0.00    +0.000 N 
ATOM      9  C   UNL     1       3.153   5.885  19.424  0.00  0.00    +0.000 C 
ATOM     10  O   UNL     1       4.013   6.415  18.727  0.00  0.00    +0.000 OA
ATOM     11  N   UNL     1       2.127   6.531  20.076  0.00  0.00    +0.000 N 
ATOM     12  H   UNL     1       2.312   4.073  19.924  0.00  0.00    +0.000 HD
ATOM     13  H   UNL     1       1.734   6.060  20.872  0.00  0.00    +0.000 HD
BRANCH   8  14
ATOM     14  CA  UNL     1       4.231   3.701  19.091  0.00  0.00    +0.000 C 
BRANCH  14  16
ATOM     15  C   UNL     1       2.454   3.192  17.259  0.00  0.00    +0.000 C 
ATOM     16  C   UNL     1       3.930   3.250  17.645  0.00  0.00    +0.000 C 
ENDBRANCH  14  16
BRANCH  14  17
ATOM     17  C   UNL     1       4.461   2.493  20.021  0.00  0.00    +0.000 C 
BRANCH  17  18
ATOM     18  O   UNL     1       4.689   1.293  19.278  0.00  0.00    +0.000 OA
ATOM     19  H   UNL     1       5.118   0.655  19.874  0.00  0.00    +0.000 HD
ENDBRANCH  17  18
ENDBRANCH  14  17
ENDBRANCH   8  14
ENDBRANCH   2  11
ENDBRANCH   1   5
BRANCH   1  20
ATOM     20  C   UNL     1       1.766  13.040  19.296  0.00  0.00    +0.000 A 
ATOM     21  C   UNL     1       2.367  13.444  20.486  0.00  0.00    +0.000 A 
ATOM     22  C   UNL     1       3.527  14.225  20.459  0.00  0.00    +0.000 A 
ATOM     23  C   UNL     1       4.116  14.624  19.261  0.00  0.00    +0.000 A 
ATOM     24  C   UNL     1       3.461  14.297  18.063  0.00  0.00    +0.000 A 
ATOM     25  C   UNL     1       2.285  13.519  18.083  0.00  0.00    +0.000 A 
BRANCH  23  26
ATOM     26  N   UNL     1       5.354  15.316  19.224  0.00  0.00    +0.000 N 
ATOM     27  C   UNL     1       6.479  14.961  18.482  0.00  0.00    +0.000 C 
ATOM     28  O   UNL     1       6.621  13.985  17.772  0.00  0.00    +0.000 OA
ATOM     29  N   UNL     1       7.497  15.887  18.644  0.00  0.00    +0.000 N 
ATOM     30  H   UNL     1       5.418  16.161  19.779  0.00  0.00    +0.000 HD
ATOM     31  H   UNL     1       7.182  16.827  18.826  0.00  0.00    +0.000 HD
BRANCH  29  32
ATOM     32  CA  UNL     1       8.763  15.837  17.893  0.00  0.00    +0.000 C 
BRANCH  32  33
ATOM     33  C   UNL     1       9.850  14.946  18.531  0.00  0.00    +0.000 C 
ATOM     34  C   UNL     1      10.187  13.746  17.655  0.00  0.00    +0.000 C 
ENDBRANCH  32  33
BRANCH  32  35
ATOM     35  C   UNL     1       9.287  17.283  17.765  0.00  0.00    +0.000 C 
BRANCH  35  36
ATOM     36  O   UNL     1      10.351  17.349  16.820  0.00  0.00    +0.000 OA
ATOM     37  H   UNL     1      10.645  16.435  16.655  0.00  0.00    +0.000 HD
ENDBRANCH  35  36
ENDBRANCH  32  35
ENDBRANCH  29  32
ENDBRANCH  23  26
ENDBRANCH   1  20
TORSDOF 12
ENDMDL
MODEL 8
REMARK VINA RESULT:      -6.2      1.127      1.589
REMARK  Name = 
REMARK  14 active torsions:
REMARK  status: ('A' for Active; 'I' for Inactive)
REMARK    1  A    between atoms: C_1  and  C_2
REMARK    2  A    between atoms: C_2  and  CA_3
REMARK    3  A    between atoms: CA_3  and  C_4
REMARK    4  A    between atoms: CA_3  and  N_6
REMARK    5  A    between atoms: C_4  and  O_5
REMARK    6  A    between atoms: N_9  and  C_10
REMARK    7  A    between atoms: C_13  and  C_14
REMARK    8  A    between atoms: C_14  and  C_15
REMARK    9  A    between atoms: C_18  and  N_19
REMARK   10  A    between atoms: N_22  and  CA_23
REMARK   11  A    between atoms: CA_23  and  C_24
REMARK   12  A    between atoms: CA_23  and  C_26
REMARK   13  A    between atoms: C_24  and  C_25
REMARK   14  A    between atoms: C_26  and  O_27
REMARK                            x       y       z     vdW  Elec       q    Type
REMARK                         _______ _______ _______ _____ _____    ______ ____
ROOT
ATOM      1  C   UNL     1       1.717   6.289  20.534  0.00  0.00    +0.000 C 
ENDROOT
BRANCH   1   5
ATOM      2  C   UNL     1       4.169   4.605  17.381  0.00  0.00    +0.000 A 
ATOM      3  C   UNL     1       2.776   4.489  17.369  0.00  0.00    +0.000 A 
ATOM      4  C   UNL     1       1.994   5.046  18.377  0.00  0.00    +0.000 A 
ATOM      5  C   UNL     1       2.588   5.724  19.442  0.00  0.00    +0.000 A 
ATOM      6  C   UNL     1       3.984   5.858  19.456  0.00  0.00    +0.000 A 
ATOM      7  C   UNL     1       4.770   5.303  18.433  0.00  0.00    +0.000 A 
BRANCH   2  11
ATOM      8  N   UNL     1       6.045   3.838  14.361  0.00  0.00    +0.000 N 
ATOM      9  C   UNL     1       5.401   4.666  15.244  0.00  0.00    +0.000 C 
ATOM     10  O   UNL     1       5.273   5.863  15.005  0.00  0.00    +0.000 OA
ATOM     11  N   UNL     1       4.982   4.018  16.384  0.00  0.00    +0.000 N 
ATOM     12  H   UNL     1       5.854   2.846  14.392  0.00  0.00    +0.000 HD
ATOM     13  H   UNL     1       5.452   3.159  16.611  0.00  0.00    +0.000 HD
BRANCH   8  14
ATOM     14  CA  UNL     1       6.613   4.374  13.125  0.00  0.00    +0.000 C 
BRANCH  14  16
ATOM     15  C   UNL     1       5.483   2.544  11.661  0.00  0.00    +0.000 C 
ATOM     16  C   UNL     1       6.757   3.303  12.022  0.00  0.00    +0.000 C 
ENDBRANCH  14  16
BRANCH  14  17
ATOM     17  C   UNL     1       7.969   5.035  13.449  0.00  0.00    +0.000 C 
BRANCH  17  18
ATOM     18  O   UNL     1       8.296   6.054  12.500  0.00  0.00    +0.000 OA
ATOM     19  H   UNL     1       7.889   5.808  11.652  0.00  0.00    +0.000 HD
ENDBRANCH  17  18
ENDBRANCH  14  17
ENDBRANCH   8  14
ENDBRANCH   2  11
ENDBRANCH   1   5
BRANCH   1  20
ATOM     20  C   UNL     1       1.547   7.791  20.527  0.00  0.00    +0.000 A 
ATOM     21  C   UNL     1       1.598   8.493  19.325  0.00  0.00    +0.000 A 
ATOM     22  C   UNL     1       1.255   9.848  19.285  0.00  0.00    +0.000 A 
ATOM     23  C   UNL     1       0.855  10.538  20.428  0.00  0.00    +0.000 A 
ATOM     24  C   UNL     1       0.893   9.858  21.655  0.00  0.00    +0.000 A 
ATOM     25  C   UNL     1       1.249   8.494  21.704  0.00  0.00    +0.000 A 
BRANCH  23  26
ATOM     26  N   UNL     1       0.394  11.879  20.376  0.00  0.00    +0.000 N 
ATOM     27  C   UNL     1       0.820  12.867  19.492  0.00  0.00    +0.000 C 
ATOM     28  O   UNL     1       1.683  12.777  18.640  0.00  0.00    +0.000 OA
ATOM     29  N   UNL     1       0.125  14.049  19.689  0.00  0.00    +0.000 N 
ATOM     30  H   UNL     1      -0.330  12.136  21.037  0.00  0.00    +0.000 HD
ATOM     31  H   UNL     1      -0.816  13.927  20.031  0.00  0.00    +0.000 HD
BRANCH  29  32
ATOM     32  CA  UNL     1       0.278  15.232  18.826  0.00  0.00    +0.000 C 
BRANCH  32  33
ATOM     33  C   UNL     1       1.702  15.826  18.803  0.00  0.00    +0.000 C 
ATOM     34  C   UNL     1       2.027  16.572  20.091  0.00  0.00    +0.000 C 
ENDBRANCH  32  33
BRANCH  32  35
ATOM     35  C   UNL     1      -0.722  16.301  19.316  0.00  0.00    +0.000 C 
BRANCH  35  36
ATOM     36  O   UNL     1      -1.975  15.704  19.638  0.00  0.00    +0.000 OA
ATOM     37  H   UNL     1      -2.285  15.241  18.838  0.00  0.00    +0.000 HD
ENDBRANCH  35  36
ENDBRANCH  32  35
ENDBRANCH  29  32
ENDBRANCH  23  26
ENDBRANCH   1  20
TORSDOF 12
ENDMDL
MODEL 9
REMARK VINA RESULT:      -6.2      0.954      1.613
REMARK  Name = 
REMARK  14 active torsions:
REMARK  status: ('A' for Active; 'I' for Inactive)
REMARK    1  A    between atoms: C_1  and  C_2
REMARK    2  A    between atoms: C_2  and  CA_3
REMARK    3  A    between atoms: CA_3  and  C_4
REMARK    4  A    between atoms: CA_3  and  N_6
REMARK    5  A    between atoms: C_4  and  O_5
REMARK    6  A    between atoms: N_9  and  C_10
REMARK    7  A    between atoms: C_13  and  C_14
REMARK    8  A    between atoms: C_14  and  C_15
REMARK    9  A    between atoms: C_18  and  N_19
REMARK   10  A    between atoms: N_22  and  CA_23
REMARK   11  A    between atoms: CA_23  and  C_24
REMARK   12  A    between atoms: CA_23  and  C_26
REMARK   13  A    between atoms: C_24  and  C_25
REMARK   14  A    between atoms: C_26  and  O_27
REMARK                            x       y       z     vdW  Elec       q    Type
REMARK                         _______ _______ _______ _____ _____    ______ ____
ROOT
ATOM      1  C   UNL     1       1.563   6.240  20.707  0.00  0.00    +0.000 C 
ENDROOT
BRANCH   1   5
ATOM      2  C   UNL     1       4.123   4.629  17.603  0.00  0.00    +0.000 A 
ATOM      3  C   UNL     1       2.740   4.435  17.586  0.00  0.00    +0.000 A 
ATOM      4  C   UNL     1       1.922   4.969  18.578  0.00  0.00    +0.000 A 
ATOM      5  C   UNL     1       2.470   5.701  19.632  0.00  0.00    +0.000 A 
ATOM      6  C   UNL     1       3.857   5.913  19.649  0.00  0.00    +0.000 A 
ATOM      7  C   UNL     1       4.678   5.381  18.642  0.00  0.00    +0.000 A 
BRANCH   2  11
ATOM      8  N   UNL     1       6.028   3.882  14.596  0.00  0.00    +0.000 N 
ATOM      9  C   UNL     1       5.325   4.693  15.449  0.00  0.00    +0.000 C 
ATOM     10  O   UNL     1       5.092   5.862  15.156  0.00  0.00    +0.000 OA
ATOM     11  N   UNL     1       4.974   4.067  16.623  0.00  0.00    +0.000 N 
ATOM     12  H   UNL     1       5.924   2.880  14.675  0.00  0.00    +0.000 HD
ATOM     13  H   UNL     1       5.518   3.262  16.882  0.00  0.00    +0.000 HD
BRANCH   8  14
ATOM     14  CA  UNL     1       6.536   4.406  13.329  0.00  0.00    +0.000 C 
BRANCH  14  16
ATOM     15  C   UNL     1       5.031   3.110  11.648  0.00  0.00    +0.000 C 
ATOM     16  C   UNL     1       6.436   3.381  12.178  0.00  0.00    +0.000 C 
ENDBRANCH  14  16
BRANCH  14  17
ATOM     17  C   UNL     1       7.988   4.881  13.535  0.00  0.00    +0.000 C 
BRANCH  17  18
ATOM     18  O   UNL     1       8.300   5.998  12.698  0.00  0.00    +0.000 OA
ATOM     19  H   UNL     1       9.255   5.974  12.519  0.00  0.00    +0.000 HD
ENDBRANCH  17  18
ENDBRANCH  14  17
ENDBRANCH   8  14
ENDBRANCH   2  11
ENDBRANCH   1   5
BRANCH   1  20
ATOM     20  C   UNL     1       1.377   7.741  20.718  0.00  0.00    +0.000 A 
ATOM     21  C   UNL     1       1.534   8.471  19.542  0.00  0.00    +0.000 A 
ATOM     22  C   UNL     1       1.181   9.824  19.501  0.00  0.00    +0.000 A 
ATOM     23  C   UNL     1       0.666  10.483  20.616  0.00  0.00    +0.000 A 
ATOM     24  C   UNL     1       0.595   9.774  21.825  0.00  0.00    +0.000 A 
ATOM     25  C   UNL     1       0.961   8.413  21.877  0.00  0.00    +0.000 A 
BRANCH  23  26
ATOM     26  N   UNL     1       0.197  11.820  20.551  0.00  0.00    +0.000 N 
ATOM     27  C   UNL     1       0.953  12.973  20.749  0.00  0.00    +0.000 C 
ATOM     28  O   UNL     1       2.129  13.046  21.050  0.00  0.00    +0.000 OA
ATOM     29  N   UNL     1       0.186  14.112  20.563  0.00  0.00    +0.000 N 
ATOM     30  H   UNL     1      -0.782  11.947  20.321  0.00  0.00    +0.000 HD
ATOM     31  H   UNL     1      -0.566  14.005  19.901  0.00  0.00    +0.000 HD
BRANCH  29  32
ATOM     32  CA  UNL     1       0.743  15.475  20.591  0.00  0.00    +0.000 C 
BRANCH  32  33
ATOM     33  C   UNL     1       1.658  15.816  19.397  0.00  0.00    +0.000 C 
ATOM     34  C   UNL     1       1.010  16.822  18.453  0.00  0.00    +0.000 C 
ENDBRANCH  32  33
BRANCH  32  35
ATOM     35  C   UNL     1       1.532  15.630  21.910  0.00  0.00    +0.000 C 
BRANCH  35  36
ATOM     36  O   UNL     1       0.691  15.372  23.030  0.00  0.00    +0.000 OA
ATOM     37  H   UNL     1       0.070  16.120  23.102  0.00  0.00    +0.000 HD
ENDBRANCH  35  36
ENDBRANCH  32  35
ENDBRANCH  29  32
ENDBRANCH  23  26
ENDBRANCH   1  20
TORSDOF 12
ENDMDL
