MODEL 1
REMARK VINA RESULT:      -7.8      0.000      0.000
REMARK  Name = 
REMARK  5 active torsions:
REMARK  status: ('A' for Active; 'I' for Inactive)
REMARK    1  A    between atoms: C_1  and  N_2
REMARK    2  A    between atoms: N_2  and  C_3
REMARK    3  A    between atoms: C_3  and  C_4
REMARK    4  A    between atoms: C_9  and  C_11
REMARK    5  A    between atoms: C_13  and  S_14
REMARK                            x       y       z     vdW  Elec       q    Type
REMARK                         _______ _______ _______ _____ _____    ______ ____
ROOT
ATOM      1  C   UNL     1       7.834   7.046  18.060  0.00  0.00    +0.000 C 
ATOM      2  N   UNL     1       6.650   6.202  18.039  0.00  0.00    +0.000 N 
ATOM      3  C   UNL     1       6.409   5.423  19.172  0.00  0.00    +0.000 C 
ATOM      4  O   UNL     1       7.168   5.486  20.140  0.00  0.00    +0.000 OA
ENDROOT
BRANCH   3   5
ATOM      5  C   UNL     1       5.232   4.574  19.252  0.00  0.00    +0.000 A 
ATOM      6  C   UNL     1       3.898   4.805  19.546  0.00  0.00    +0.000 A 
ATOM      7  C   UNL     1       3.215   3.565  19.535  0.00  0.00    +0.000 A 
ATOM      8  C   UNL     1       4.119   2.599  19.154  0.00  0.00    +0.000 A 
ATOM      9  N   UNL     1       5.320   3.226  18.943  0.00  0.00    +0.000 N 
ATOM     10  H   UNL     1       6.181   2.782  18.641  0.00  0.00    +0.000 HD
BRANCH   7  11
ATOM     11  S   UNL     1       1.553   3.357  19.943  0.00  0.00    +0.000 S 
ATOM     12  O   UNL     1       0.900   3.026  18.694  0.00  0.00    +0.000 OA
ATOM     13  O   UNL     1       1.548   2.503  21.113  0.00  0.00    +0.000 OA
ATOM     14  F   UNL     1       0.993   4.764  20.399  0.00  0.00    +0.000 F 
ENDBRANCH   7  11
ENDBRANCH   3   5
BRANCH   2  15
ATOM     15  C   UNL     1       5.733   6.381  16.909  0.00  0.00    +0.000 C 
BRANCH  15  16
ATOM     16  C   UNL     1       6.052   5.471  15.755  0.00  0.00    +0.000 A 
ATOM     17  C   UNL     1       5.288   4.420  15.185  0.00  0.00    +0.000 A 
ATOM     18  C   UNL     1       6.027   3.971  14.116  0.00  0.00    +0.000 A 
ATOM     19  N   UNL     1       7.148   4.743  14.087  0.00  0.00    +0.000 N 
ATOM     20  N   UNL     1       7.193   5.655  15.072  0.00  0.00    +0.000 NA
ATOM     21  H   UNL     1       7.917   4.710  13.424  0.00  0.00    +0.000 HD
ENDBRANCH  15  16
ENDBRANCH   2  15
TORSDOF 4
ENDMDL
MODEL 2
REMARK VINA RESULT:      -7.6      0.847      1.129
REMARK  Name = 
REMARK  5 active torsions:
REMARK  status: ('A' for Active; 'I' for Inactive)
REMARK    1  A    between atoms: C_1  and  N_2
REMARK    2  A    between atoms: N_2  and  C_3
REMARK    3  A    between atoms: C_3  and  C_4
REMARK    4  A    between atoms: C_9  and  C_11
REMARK    5  A    between atoms: C_13  and  S_14
REMARK                            x       y       z     vdW  Elec       q    Type
REMARK                         _______ _______ _______ _____ _____    ______ ____
ROOT
ATOM      1  C   UNL     1       7.786   7.010  17.935  0.00  0.00    +0.000 C 
ATOM      2  N   UNL     1       6.613   6.154  18.016  0.00  0.00    +0.000 N 
ATOM      3  C   UNL     1       6.439   5.432  19.198  0.00  0.00    +0.000 C 
ATOM      4  O   UNL     1       7.244   5.552  20.122  0.00  0.00    +0.000 OA
ENDROOT
BRANCH   3   5
ATOM      5  C   UNL     1       5.278   4.575  19.380  0.00  0.00    +0.000 A 
ATOM      6  C   UNL     1       4.012   4.771  19.907  0.00  0.00    +0.000 A 
ATOM      7  C   UNL     1       3.320   3.537  19.880  0.00  0.00    +0.000 A 
ATOM      8  C   UNL     1       4.137   2.617  19.261  0.00  0.00    +0.000 A 
ATOM      9  N   UNL     1       5.297   3.267  18.924  0.00  0.00    +0.000 N 
ATOM     10  H   UNL     1       6.092   2.859  18.444  0.00  0.00    +0.000 HD
BRANCH   7  11
ATOM     11  S   UNL     1       1.743   3.283  20.528  0.00  0.00    +0.000 S 
ATOM     12  O   UNL     1       1.965   2.708  21.838  0.00  0.00    +0.000 OA
ATOM     13  O   UNL     1       1.028   4.522  20.297  0.00  0.00    +0.000 OA
ATOM     14  F   UNL     1       1.037   2.174  19.650  0.00  0.00    +0.000 F 
ENDBRANCH   7  11
ENDBRANCH   3   5
BRANCH   2  15
ATOM     15  C   UNL     1       5.640   6.264  16.926  0.00  0.00    +0.000 C 
BRANCH  15  16
ATOM     16  C   UNL     1       5.988   5.395  15.748  0.00  0.00    +0.000 A 
ATOM     17  C   UNL     1       5.274   4.312  15.172  0.00  0.00    +0.000 A 
ATOM     18  C   UNL     1       6.016   3.926  14.082  0.00  0.00    +0.000 A 
ATOM     19  N   UNL     1       7.091   4.762  14.047  0.00  0.00    +0.000 N 
ATOM     20  N   UNL     1       7.103   5.657  15.048  0.00  0.00    +0.000 NA
ATOM     21  H   UNL     1       7.847   4.785  13.369  0.00  0.00    +0.000 HD
ENDBRANCH  15  16
ENDBRANCH   2  15
TORSDOF 4
ENDMDL
MODEL 3
REMARK VINA RESULT:      -7.2      3.666      5.841
REMARK  Name = 
REMARK  5 active torsions:
REMARK  status: ('A' for Active; 'I' for Inactive)
REMARK    1  A    between atoms: C_1  and  N_2
REMARK    2  A    between atoms: N_2  and  C_3
REMARK    3  A    between atoms: C_3  and  C_4
REMARK    4  A    between atoms: C_9  and  C_11
REMARK    5  A    between atoms: C_13  and  S_14
REMARK                            x       y       z     vdW  Elec       q    Type
REMARK                         _______ _______ _______ _____ _____    ______ ____
ROOT
ATOM      1  C   UNL     1       2.373   2.462  21.413  0.00  0.00    +0.000 C 
ATOM      2  N   UNL     1       2.890   3.144  20.237  0.00  0.00    +0.000 N 
ATOM      3  C   UNL     1       4.222   2.899  19.899  0.00  0.00    +0.000 C 
ATOM      4  O   UNL     1       4.897   2.119  20.570  0.00  0.00    +0.000 OA
ENDROOT
BRANCH   3   5
ATOM      5  C   UNL     1       4.813   3.512  18.721  0.00  0.00    +0.000 A 
ATOM      6  C   UNL     1       5.701   4.558  18.524  0.00  0.00    +0.000 A 
ATOM      7  C   UNL     1       5.866   4.749  17.131  0.00  0.00    +0.000 A 
ATOM      8  C   UNL     1       5.143   3.767  16.490  0.00  0.00    +0.000 A 
ATOM      9  N   UNL     1       4.549   3.001  17.460  0.00  0.00    +0.000 N 
ATOM     10  H   UNL     1       3.960   2.190  17.303  0.00  0.00    +0.000 HD
BRANCH   7  11
ATOM     11  S   UNL     1       6.805   6.007  16.419  0.00  0.00    +0.000 S 
ATOM     12  O   UNL     1       7.605   5.349  15.407  0.00  0.00    +0.000 OA
ATOM     13  O   UNL     1       5.868   7.077  16.143  0.00  0.00    +0.000 OA
ATOM     14  F   UNL     1       7.804   6.541  17.522  0.00  0.00    +0.000 F 
ENDBRANCH   7  11
ENDBRANCH   3   5
BRANCH   2  15
ATOM     15  C   UNL     1       1.919   3.881  19.423  0.00  0.00    +0.000 C 
BRANCH  15  16
ATOM     16  C   UNL     1       2.082   5.372  19.536  0.00  0.00    +0.000 A 
ATOM     17  C   UNL     1       2.444   6.327  18.550  0.00  0.00    +0.000 A 
ATOM     18  C   UNL     1       2.375   7.546  19.182  0.00  0.00    +0.000 A 
ATOM     19  N   UNL     1       1.982   7.283  20.460  0.00  0.00    +0.000 N 
ATOM     20  N   UNL     1       1.804   5.974  20.704  0.00  0.00    +0.000 NA
ATOM     21  H   UNL     1       1.809   7.942  21.212  0.00  0.00    +0.000 HD
ENDBRANCH  15  16
ENDBRANCH   2  15
TORSDOF 4
ENDMDL
MODEL 4
REMARK VINA RESULT:      -7.1      3.734      5.879
REMARK  Name = 
REMARK  5 active torsions:
REMARK  status: ('A' for Active; 'I' for Inactive)
REMARK    1  A    between atoms: C_1  and  N_2
REMARK    2  A    between atoms: N_2  and  C_3
REMARK    3  A    between atoms: C_3  and  C_4
REMARK    4  A    between atoms: C_9  and  C_11
REMARK    5  A    between atoms: C_13  and  S_14
REMARK                            x       y       z     vdW  Elec       q    Type
REMARK                         _______ _______ _______ _____ _____    ______ ____
ROOT
ATOM      1  C   UNL     1       2.232   2.248  20.973  0.00  0.00    +0.000 C 
ATOM      2  N   UNL     1       2.866   3.099  19.979  0.00  0.00    +0.000 N 
ATOM      3  C   UNL     1       4.237   2.923  19.781  0.00  0.00    +0.000 C 
ATOM      4  O   UNL     1       4.850   2.064  20.415  0.00  0.00    +0.000 OA
ENDROOT
BRANCH   3   5
ATOM      5  C   UNL     1       4.948   3.707  18.784  0.00  0.00    +0.000 A 
ATOM      6  C   UNL     1       4.806   3.882  17.417  0.00  0.00    +0.000 A 
ATOM      7  C   UNL     1       5.846   4.727  16.962  0.00  0.00    +0.000 A 
ATOM      8  C   UNL     1       6.566   5.128  18.066  0.00  0.00    +0.000 A 
ATOM      9  N   UNL     1       5.988   4.541  19.163  0.00  0.00    +0.000 N 
ATOM     10  H   UNL     1       6.284   4.654  20.126  0.00  0.00    +0.000 HD
BRANCH   7  11
ATOM     11  S   UNL     1       6.123   5.140  15.311  0.00  0.00    +0.000 S 
ATOM     12  O   UNL     1       5.469   6.419  15.131  0.00  0.00    +0.000 OA
ATOM     13  O   UNL     1       7.537   4.913  15.090  0.00  0.00    +0.000 OA
ATOM     14  F   UNL     1       5.344   4.093  14.419  0.00  0.00    +0.000 F 
ENDBRANCH   7  11
ENDBRANCH   3   5
BRANCH   2  15
ATOM     15  C   UNL     1       1.980   3.931  19.161  0.00  0.00    +0.000 C 
BRANCH  15  16
ATOM     16  C   UNL     1       2.072   5.392  19.509  0.00  0.00    +0.000 A 
ATOM     17  C   UNL     1       2.432   6.501  18.701  0.00  0.00    +0.000 A 
ATOM     18  C   UNL     1       2.284   7.603  19.508  0.00  0.00    +0.000 A 
ATOM     19  N   UNL     1       1.851   7.130  20.710  0.00  0.00    +0.000 N 
ATOM     20  N   UNL     1       1.720   5.794  20.741  0.00  0.00    +0.000 NA
ATOM     21  H   UNL     1       1.618   7.658  21.545  0.00  0.00    +0.000 HD
ENDBRANCH  15  16
ENDBRANCH   2  15
TORSDOF 4
ENDMDL
MODEL 5
REMARK VINA RESULT:      -7.0      1.253      1.386
REMARK  Name = 
REMARK  5 active torsions:
REMARK  status: ('A' for Active; 'I' for Inactive)
REMARK    1  A    between atoms: C_1  and  N_2
REMARK    2  A    between atoms: N_2  and  C_3
REMARK    3  A    between atoms: C_3  and  C_4
REMARK    4  A    between atoms: C_9  and  C_11
REMARK    5  A    between atoms: C_13  and  S_14
REMARK                            x       y       z     vdW  Elec       q    Type
REMARK                         _______ _______ _______ _____ _____    ______ ____
ROOT
ATOM      1  C   UNL     1       8.061   6.789  18.028  0.00  0.00    +0.000 C 
ATOM      2  N   UNL     1       6.731   6.201  17.992  0.00  0.00    +0.000 N 
ATOM      3  C   UNL     1       6.304   5.536  19.143  0.00  0.00    +0.000 C 
ATOM      4  O   UNL     1       7.031   5.485  20.135  0.00  0.00    +0.000 OA
ENDROOT
BRANCH   3   5
ATOM      5  C   UNL     1       4.977   4.946  19.209  0.00  0.00    +0.000 A 
ATOM      6  C   UNL     1       4.440   3.736  18.799  0.00  0.00    +0.000 A 
ATOM      7  C   UNL     1       3.052   3.745  19.074  0.00  0.00    +0.000 A 
ATOM      8  C   UNL     1       2.767   4.924  19.726  0.00  0.00    +0.000 A 
ATOM      9  N   UNL     1       3.944   5.620  19.841  0.00  0.00    +0.000 N 
ATOM     10  H   UNL     1       4.062   6.523  20.286  0.00  0.00    +0.000 HD
BRANCH   7  11
ATOM     11  S   UNL     1       1.959   2.484  18.642  0.00  0.00    +0.000 S 
ATOM     12  O   UNL     1       2.531   1.885  17.454  0.00  0.00    +0.000 OA
ATOM     13  O   UNL     1       1.699   1.762  19.870  0.00  0.00    +0.000 OA
ATOM     14  F   UNL     1       0.596   3.160  18.208  0.00  0.00    +0.000 F 
ENDBRANCH   7  11
ENDBRANCH   3   5
BRANCH   2  15
ATOM     15  C   UNL     1       5.903   6.513  16.824  0.00  0.00    +0.000 C 
BRANCH  15  16
ATOM     16  C   UNL     1       6.110   5.543  15.692  0.00  0.00    +0.000 A 
ATOM     17  C   UNL     1       5.245   4.541  15.181  0.00  0.00    +0.000 A 
ATOM     18  C   UNL     1       5.911   4.000  14.107  0.00  0.00    +0.000 A 
ATOM     19  N   UNL     1       7.090   4.676  14.018  0.00  0.00    +0.000 N 
ATOM     20  N   UNL     1       7.240   5.612  14.970  0.00  0.00    +0.000 NA
ATOM     21  H   UNL     1       7.831   4.560  13.334  0.00  0.00    +0.000 HD
ENDBRANCH  15  16
ENDBRANCH   2  15
TORSDOF 4
ENDMDL
MODEL 6
REMARK VINA RESULT:      -6.9      3.680      5.834
REMARK  Name = 
REMARK  5 active torsions:
REMARK  status: ('A' for Active; 'I' for Inactive)
REMARK    1  A    between atoms: C_1  and  N_2
REMARK    2  A    between atoms: N_2  and  C_3
REMARK    3  A    between atoms: C_3  and  C_4
REMARK    4  A    between atoms: C_9  and  C_11
REMARK    5  A    between atoms: C_13  and  S_14
REMARK                            x       y       z     vdW  Elec       q    Type
REMARK                         _______ _______ _______ _____ _____    ______ ____
ROOT
ATOM      1  C   UNL     1       2.391   2.501  21.573  0.00  0.00    +0.000 C 
ATOM      2  N   UNL     1       2.854   3.127  20.344  0.00  0.00    +0.000 N 
ATOM      3  C   UNL     1       4.162   2.845  19.946  0.00  0.00    +0.000 C 
ATOM      4  O   UNL     1       4.860   2.079  20.610  0.00  0.00    +0.000 OA
ENDROOT
BRANCH   3   5
ATOM      5  C   UNL     1       4.698   3.401  18.714  0.00  0.00    +0.000 A 
ATOM      6  C   UNL     1       5.616   4.398  18.429  0.00  0.00    +0.000 A 
ATOM      7  C   UNL     1       5.694   4.548  17.023  0.00  0.00    +0.000 A 
ATOM      8  C   UNL     1       4.886   3.585  16.460  0.00  0.00    +0.000 A 
ATOM      9  N   UNL     1       4.326   2.872  17.489  0.00  0.00    +0.000 N 
ATOM     10  H   UNL     1       3.692   2.086  17.394  0.00  0.00    +0.000 HD
BRANCH   7  11
ATOM     11  S   UNL     1       6.638   5.743  16.215  0.00  0.00    +0.000 S 
ATOM     12  O   UNL     1       5.672   6.659  15.646  0.00  0.00    +0.000 OA
ATOM     13  O   UNL     1       7.662   6.129  17.164  0.00  0.00    +0.000 OA
ATOM     14  F   UNL     1       7.372   5.035  15.006  0.00  0.00    +0.000 F 
ENDBRANCH   7  11
ENDBRANCH   3   5
BRANCH   2  15
ATOM     15  C   UNL     1       1.853   3.848  19.554  0.00  0.00    +0.000 C 
BRANCH  15  16
ATOM     16  C   UNL     1       2.051   5.340  19.591  0.00  0.00    +0.000 A 
ATOM     17  C   UNL     1       2.425   6.235  18.556  0.00  0.00    +0.000 A 
ATOM     18  C   UNL     1       2.391   7.485  19.126  0.00  0.00    +0.000 A 
ATOM     19  N   UNL     1       2.005   7.295  20.419  0.00  0.00    +0.000 N 
ATOM     20  N   UNL     1       1.799   6.005  20.730  0.00  0.00    +0.000 NA
ATOM     21  H   UNL     1       1.856   7.995  21.138  0.00  0.00    +0.000 HD
ENDBRANCH  15  16
ENDBRANCH   2  15
TORSDOF 4
ENDMDL
MODEL 7
REMARK VINA RESULT:      -6.8      3.991      5.911
REMARK  Name = 
REMARK  5 active torsions:
REMARK  status: ('A' for Active; 'I' for Inactive)
REMARK    1  A    between atoms: C_1  and  N_2
REMARK    2  A    between atoms: N_2  and  C_3
REMARK    3  A    between atoms: C_3  and  C_4
REMARK    4  A    between atoms: C_9  and  C_11
REMARK    5  A    between atoms: C_13  and  S_14
REMARK                            x       y       z     vdW  Elec       q    Type
REMARK                         _______ _______ _______ _____ _____    ______ ____
ROOT
ATOM      1  C   UNL     1       2.295   2.401  20.896  0.00  0.00    +0.000 C 
ATOM      2  N   UNL     1       2.942   3.184  19.855  0.00  0.00    +0.000 N 
ATOM      3  C   UNL     1       4.291   2.923  19.615  0.00  0.00    +0.000 C 
ATOM      4  O   UNL     1       4.876   2.047  20.254  0.00  0.00    +0.000 OA
ENDROOT
BRANCH   3   5
ATOM      5  C   UNL     1       5.011   3.634  18.571  0.00  0.00    +0.000 A 
ATOM      6  C   UNL     1       4.711   3.988  17.266  0.00  0.00    +0.000 A 
ATOM      7  C   UNL     1       5.842   4.626  16.702  0.00  0.00    +0.000 A 
ATOM      8  C   UNL     1       6.793   4.731  17.692  0.00  0.00    +0.000 A 
ATOM      9  N   UNL     1       6.264   4.169  18.826  0.00  0.00    +0.000 N 
ATOM     10  H   UNL     1       6.720   4.105  19.730  0.00  0.00    +0.000 HD
BRANCH   7  11
ATOM     11  S   UNL     1       5.958   5.148  15.064  0.00  0.00    +0.000 S 
ATOM     12  O   UNL     1       5.315   4.104  14.292  0.00  0.00    +0.000 OA
ATOM     13  O   UNL     1       5.531   6.532  15.070  0.00  0.00    +0.000 OA
ATOM     14  F   UNL     1       7.488   5.139  14.666  0.00  0.00    +0.000 F 
ENDBRANCH   7  11
ENDBRANCH   3   5
BRANCH   2  15
ATOM     15  C   UNL     1       2.076   4.044  19.043  0.00  0.00    +0.000 C 
BRANCH  15  16
ATOM     16  C   UNL     1       2.102   5.480  19.491  0.00  0.00    +0.000 A 
ATOM     17  C   UNL     1       2.454   6.652  18.772  0.00  0.00    +0.000 A 
ATOM     18  C   UNL     1       2.235   7.693  19.643  0.00  0.00    +0.000 A 
ATOM     19  N   UNL     1       1.773   7.126  20.793  0.00  0.00    +0.000 N 
ATOM     20  N   UNL     1       1.690   5.787  20.731  0.00  0.00    +0.000 NA
ATOM     21  H   UNL     1       1.490   7.588  21.651  0.00  0.00    +0.000 HD
ENDBRANCH  15  16
ENDBRANCH   2  15
TORSDOF 4
ENDMDL
MODEL 8
REMARK VINA RESULT:      -6.8      1.910      3.293
REMARK  Name = 
REMARK  5 active torsions:
REMARK  status: ('A' for Active; 'I' for Inactive)
REMARK    1  A    between atoms: C_1  and  N_2
REMARK    2  A    between atoms: N_2  and  C_3
REMARK    3  A    between atoms: C_3  and  C_4
REMARK    4  A    between atoms: C_9  and  C_11
REMARK    5  A    between atoms: C_13  and  S_14
REMARK                            x       y       z     vdW  Elec       q    Type
REMARK                         _______ _______ _______ _____ _____    ______ ____
ROOT
ATOM      1  C   UNL     1       6.694   5.423  14.686  0.00  0.00    +0.000 C 
ATOM      2  N   UNL     1       5.812   5.253  15.830  0.00  0.00    +0.000 N 
ATOM      3  C   UNL     1       5.434   3.947  16.147  0.00  0.00    +0.000 C 
ATOM      4  O   UNL     1       5.862   3.000  15.486  0.00  0.00    +0.000 OA
ENDROOT
BRANCH   3   5
ATOM      5  C   UNL     1       4.581   3.679  17.294  0.00  0.00    +0.000 A 
ATOM      6  C   UNL     1       3.223   3.459  17.452  0.00  0.00    +0.000 A 
ATOM      7  C   UNL     1       2.949   3.316  18.833  0.00  0.00    +0.000 A 
ATOM      8  C   UNL     1       4.152   3.366  19.500  0.00  0.00    +0.000 A 
ATOM      9  N   UNL     1       5.133   3.541  18.557  0.00  0.00    +0.000 N 
ATOM     10  H   UNL     1       6.130   3.604  18.737  0.00  0.00    +0.000 HD
BRANCH   7  11
ATOM     11  S   UNL     1       1.373   3.125  19.506  0.00  0.00    +0.000 S 
ATOM     12  O   UNL     1       1.058   4.413  20.089  0.00  0.00    +0.000 OA
ATOM     13  O   UNL     1       0.587   2.490  18.469  0.00  0.00    +0.000 OA
ATOM     14  F   UNL     1       1.484   2.093  20.698  0.00  0.00    +0.000 F 
ENDBRANCH   7  11
ENDBRANCH   3   5
BRANCH   2  15
ATOM     15  C   UNL     1       5.549   6.444  16.643  0.00  0.00    +0.000 C 
BRANCH  15  16
ATOM     16  C   UNL     1       6.734   6.851  17.475  0.00  0.00    +0.000 A 
ATOM     17  C   UNL     1       7.477   8.060  17.473  0.00  0.00    +0.000 A 
ATOM     18  C   UNL     1       8.405   7.918  18.476  0.00  0.00    +0.000 A 
ATOM     19  N   UNL     1       8.183   6.688  19.020  0.00  0.00    +0.000 N 
ATOM     20  N   UNL     1       7.181   6.017  18.428  0.00  0.00    +0.000 NA
ATOM     21  H   UNL     1       8.668   6.248  19.795  0.00  0.00    +0.000 HD
ENDBRANCH  15  16
ENDBRANCH   2  15
TORSDOF 4
ENDMDL
MODEL 9
REMARK VINA RESULT:      -6.8      3.300      5.712
REMARK  Name = 
REMARK  5 active torsions:
REMARK  status: ('A' for Active; 'I' for Inactive)
REMARK    1  A    between atoms: C_1  and  N_2
REMARK    2  A    between atoms: N_2  and  C_3
REMARK    3  A    between atoms: C_3  and  C_4
REMARK    4  A    between atoms: C_9  and  C_11
REMARK    5  A    between atoms: C_13  and  S_14
REMARK                            x       y       z     vdW  Elec       q    Type
REMARK                         _______ _______ _______ _____ _____    ______ ____
ROOT
ATOM      1  C   UNL     1       2.016   2.179  20.971  0.00  0.00    +0.000 C 
ATOM      2  N   UNL     1       2.694   3.011  19.990  0.00  0.00    +0.000 N 
ATOM      3  C   UNL     1       4.083   2.900  19.920  0.00  0.00    +0.000 C 
ATOM      4  O   UNL     1       4.680   2.109  20.651  0.00  0.00    +0.000 OA
ENDROOT
BRANCH   3   5
ATOM      5  C   UNL     1       4.841   3.670  18.946  0.00  0.00    +0.000 A 
ATOM      6  C   UNL     1       5.728   4.731  19.039  0.00  0.00    +0.000 A 
ATOM      7  C   UNL     1       6.106   5.114  17.729  0.00  0.00    +0.000 A 
ATOM      8  C   UNL     1       5.514   4.232  16.853  0.00  0.00    +0.000 A 
ATOM      9  N   UNL     1       4.789   3.340  17.602  0.00  0.00    +0.000 N 
ATOM     10  H   UNL     1       4.249   2.560  17.243  0.00  0.00    +0.000 HD
BRANCH   7  11
ATOM     11  S   UNL     1       7.121   6.456  17.356  0.00  0.00    +0.000 S 
ATOM     12  O   UNL     1       7.985   6.604  18.509  0.00  0.00    +0.000 OA
ATOM     13  O   UNL     1       7.599   6.214  16.010  0.00  0.00    +0.000 OA
ATOM     14  F   UNL     1       6.206   7.745  17.295  0.00  0.00    +0.000 F 
ENDBRANCH   7  11
ENDBRANCH   3   5
BRANCH   2  15
ATOM     15  C   UNL     1       1.843   3.752  19.054  0.00  0.00    +0.000 C 
BRANCH  15  16
ATOM     16  C   UNL     1       2.031   5.241  19.155  0.00  0.00    +0.000 A 
ATOM     17  C   UNL     1       1.906   6.101  20.277  0.00  0.00    +0.000 A 
ATOM     18  C   UNL     1       2.253   7.349  19.818  0.00  0.00    +0.000 A 
ATOM     19  N   UNL     1       2.567   7.190  18.502  0.00  0.00    +0.000 N 
ATOM     20  N   UNL     1       2.435   5.924  18.072  0.00  0.00    +0.000 NA
ATOM     21  H   UNL     1       2.885   7.894  17.843  0.00  0.00    +0.000 HD
ENDBRANCH  15  16
ENDBRANCH   2  15
TORSDOF 4
ENDMDL
