MODEL 1
REMARK VINA RESULT:      -7.8      0.000      0.000
REMARK  Name = 
REMARK  8 active torsions:
REMARK  status: ('A' for Active; 'I' for Inactive)
REMARK    1  A    between atoms: C_1  and  C_2
REMARK    2  A    between atoms: C_4  and  C_5
REMARK    3  A    between atoms: C_5  and  C_7
REMARK    4  A    between atoms: C_7  and  C_8
REMARK    5  A    between atoms: C_8  and  C_9
REMARK    6  A    between atoms: N_11  and  C_12
REMARK    7  A    between atoms: C_12  and  C_13
REMARK    8  A    between atoms: C_23  and  C_24
REMARK                            x       y       z     vdW  Elec       q    Type
REMARK                         _______ _______ _______ _____ _____    ______ ____
ROOT
ATOM      1  C   UNL     1       2.618   3.386  17.359  0.00  0.00    +0.000 C 
ATOM      2  O   UNL     1       2.343   2.185  17.387  0.00  0.00    +0.000 OA
ATOM      3  N   UNL     1       3.866   3.778  16.963  0.00  0.00    +0.000 N 
ATOM      4  H   UNL     1       4.394   3.027  16.532  0.00  0.00    +0.000 HD
ENDROOT
BRANCH   1   5
ATOM      5  C   UNL     1       1.635   4.424  17.851  0.00  0.00    +0.000 C 
BRANCH   5   6
ATOM      6  C   UNL     1       1.815   4.574  19.352  0.00  0.00    +0.000 C 
BRANCH   6   7
ATOM      7  C   UNL     1       2.693   5.758  19.728  0.00  0.00    +0.000 C 
ATOM      8  O   UNL     1       3.911   5.626  19.834  0.00  0.00    +0.000 OA
BRANCH   7  12
ATOM      9  C   UNL     1      -0.131   9.239  22.228  0.00  0.00    +0.000 C 
ATOM     10  C   UNL     1       0.709   8.604  21.173  0.00  0.00    +0.000 A 
ATOM     11  C   UNL     1       1.257   7.344  21.171  0.00  0.00    +0.000 A 
ATOM     12  C   UNL     1       2.011   7.042  19.980  0.00  0.00    +0.000 A 
ATOM     13  C   UNL     1       2.004   8.139  19.112  0.00  0.00    +0.000 A 
ATOM     14  C   UNL     1       2.624   8.325  17.762  0.00  0.00    +0.000 C 
ATOM     15  S   UNL     1       1.096   9.451  19.752  0.00  0.00    +0.000 S 
ENDBRANCH   7  12
ENDBRANCH   6   7
ENDBRANCH   5   6
ENDBRANCH   1   5
BRANCH   3  16
ATOM     16  C   UNL     1       4.235   5.138  16.623  0.00  0.00    +0.000 C 
BRANCH  16  17
ATOM     17  C   UNL     1       5.385   5.247  15.601  0.00  0.00    +0.000 C 
ATOM     18  C   UNL     1       6.357   4.086  15.791  0.00  0.00    +0.000 C 
ATOM     19  O   UNL     1       6.827   4.067  17.147  0.00  0.00    +0.000 OA
ATOM     20  C   UNL     1       7.218   5.321  17.551  0.00  0.00    +0.000 A 
ATOM     21  C   UNL     1       7.833   5.427  18.791  0.00  0.00    +0.000 A 
ATOM     22  C   UNL     1       8.309   6.667  19.220  0.00  0.00    +0.000 A 
ATOM     23  C   UNL     1       8.200   7.787  18.390  0.00  0.00    +0.000 A 
ATOM     24  C   UNL     1       7.516   7.693  17.177  0.00  0.00    +0.000 A 
ATOM     25  C   UNL     1       6.964   6.475  16.798  0.00  0.00    +0.000 A 
ATOM     26  O   UNL     1       6.115   6.485  15.717  0.00  0.00    +0.000 OA
ENDBRANCH  16  17
ENDBRANCH   3  16
TORSDOF 6
ENDMDL
MODEL 2
REMARK VINA RESULT:      -7.7      2.043      3.101
REMARK  Name = 
REMARK  8 active torsions:
REMARK  status: ('A' for Active; 'I' for Inactive)
REMARK    1  A    between atoms: C_1  and  C_2
REMARK    2  A    between atoms: C_4  and  C_5
REMARK    3  A    between atoms: C_5  and  C_7
REMARK    4  A    between atoms: C_7  and  C_8
REMARK    5  A    between atoms: C_8  and  C_9
REMARK    6  A    between atoms: N_11  and  C_12
REMARK    7  A    between atoms: C_12  and  C_13
REMARK    8  A    between atoms: C_23  and  C_24
REMARK                            x       y       z     vdW  Elec       q    Type
REMARK                         _______ _______ _______ _____ _____    ______ ____
ROOT
ATOM      1  C   UNL     1       1.713   3.240  21.163  0.00  0.00    +0.000 C 
ATOM      2  O   UNL     1       1.390   2.671  22.208  0.00  0.00    +0.000 OA
ATOM      3  N   UNL     1       1.525   2.602  19.969  0.00  0.00    +0.000 N 
ATOM      4  H   UNL     1       0.938   1.778  20.053  0.00  0.00    +0.000 HD
ENDROOT
BRANCH   1   5
ATOM      5  C   UNL     1       2.408   4.582  21.186  0.00  0.00    +0.000 C 
BRANCH   5   6
ATOM      6  C   UNL     1       1.382   5.654  20.859  0.00  0.00    +0.000 C 
BRANCH   6   7
ATOM      7  C   UNL     1       1.982   6.846  20.130  0.00  0.00    +0.000 C 
ATOM      8  O   UNL     1       2.959   6.705  19.396  0.00  0.00    +0.000 OA
BRANCH   7  12
ATOM      9  C   UNL     1      -0.458  10.559  22.699  0.00  0.00    +0.000 C 
ATOM     10  C   UNL     1       0.235   9.832  21.598  0.00  0.00    +0.000 A 
ATOM     11  C   UNL     1       0.760   8.563  21.620  0.00  0.00    +0.000 A 
ATOM     12  C   UNL     1       1.356   8.161  20.371  0.00  0.00    +0.000 A 
ATOM     13  C   UNL     1       1.259   9.194  19.434  0.00  0.00    +0.000 A 
ATOM     14  C   UNL     1       1.709   9.272  18.008  0.00  0.00    +0.000 C 
ATOM     15  S   UNL     1       0.456  10.569  20.083  0.00  0.00    +0.000 S 
ENDBRANCH   7  12
ENDBRANCH   6   7
ENDBRANCH   5   6
ENDBRANCH   1   5
BRANCH   3  16
ATOM     16  C   UNL     1       1.600   3.242  18.671  0.00  0.00    +0.000 C 
BRANCH  16  17
ATOM     17  C   UNL     1       2.448   2.477  17.634  0.00  0.00    +0.000 C 
ATOM     18  C   UNL     1       3.520   1.657  18.347  0.00  0.00    +0.000 C 
ATOM     19  O   UNL     1       4.313   2.520  19.178  0.00  0.00    +0.000 OA
ATOM     20  C   UNL     1       4.698   3.647  18.493  0.00  0.00    +0.000 A 
ATOM     21  C   UNL     1       5.593   4.501  19.124  0.00  0.00    +0.000 A 
ATOM     22  C   UNL     1       6.067   5.625  18.446  0.00  0.00    +0.000 A 
ATOM     23  C   UNL     1       5.672   5.869  17.127  0.00  0.00    +0.000 A 
ATOM     24  C   UNL     1       4.716   5.052  16.522  0.00  0.00    +0.000 A 
ATOM     25  C   UNL     1       4.179   3.986  17.236  0.00  0.00    +0.000 A 
ATOM     26  O   UNL     1       3.090   3.353  16.686  0.00  0.00    +0.000 OA
ENDBRANCH  16  17
ENDBRANCH   3  16
TORSDOF 6
ENDMDL
MODEL 3
REMARK VINA RESULT:      -7.6      2.295      4.151
REMARK  Name = 
REMARK  8 active torsions:
REMARK  status: ('A' for Active; 'I' for Inactive)
REMARK    1  A    between atoms: C_1  and  C_2
REMARK    2  A    between atoms: C_4  and  C_5
REMARK    3  A    between atoms: C_5  and  C_7
REMARK    4  A    between atoms: C_7  and  C_8
REMARK    5  A    between atoms: C_8  and  C_9
REMARK    6  A    between atoms: N_11  and  C_12
REMARK    7  A    between atoms: C_12  and  C_13
REMARK    8  A    between atoms: C_23  and  C_24
REMARK                            x       y       z     vdW  Elec       q    Type
REMARK                         _______ _______ _______ _____ _____    ______ ____
ROOT
ATOM      1  C   UNL     1       5.235   3.443  18.778  0.00  0.00    +0.000 C 
ATOM      2  O   UNL     1       4.986   3.283  19.974  0.00  0.00    +0.000 OA
ATOM      3  N   UNL     1       6.315   4.196  18.413  0.00  0.00    +0.000 N 
ATOM      4  H   UNL     1       6.937   4.392  19.191  0.00  0.00    +0.000 HD
ENDROOT
BRANCH   1   5
ATOM      5  C   UNL     1       4.308   2.908  17.709  0.00  0.00    +0.000 C 
BRANCH   5   6
ATOM      6  C   UNL     1       3.110   2.273  18.393  0.00  0.00    +0.000 C 
BRANCH   6   7
ATOM      7  C   UNL     1       1.870   3.153  18.353  0.00  0.00    +0.000 C 
ATOM      8  O   UNL     1       0.789   2.697  17.984  0.00  0.00    +0.000 OA
BRANCH   7  12
ATOM      9  C   UNL     1       2.522   8.212  17.784  0.00  0.00    +0.000 C 
ATOM     10  C   UNL     1       2.337   6.882  18.430  0.00  0.00    +0.000 A 
ATOM     11  C   UNL     1       2.187   5.659  17.822  0.00  0.00    +0.000 A 
ATOM     12  C   UNL     1       2.040   4.565  18.749  0.00  0.00    +0.000 A 
ATOM     13  C   UNL     1       2.076   5.038  20.065  0.00  0.00    +0.000 A 
ATOM     14  C   UNL     1       1.978   4.313  21.371  0.00  0.00    +0.000 C 
ATOM     15  S   UNL     1       2.295   6.742  20.123  0.00  0.00    +0.000 S 
ENDBRANCH   7  12
ENDBRANCH   6   7
ENDBRANCH   5   6
ENDBRANCH   1   5
BRANCH   3  16
ATOM     16  C   UNL     1       6.878   4.241  17.078  0.00  0.00    +0.000 C 
BRANCH  16  17
ATOM     17  C   UNL     1       6.817   5.631  16.411  0.00  0.00    +0.000 C 
ATOM     18  C   UNL     1       5.370   5.979  16.072  0.00  0.00    +0.000 C 
ATOM     19  O   UNL     1       4.806   4.947  15.247  0.00  0.00    +0.000 OA
ATOM     20  C   UNL     1       5.657   4.617  14.221  0.00  0.00    +0.000 A 
ATOM     21  C   UNL     1       5.181   3.738  13.257  0.00  0.00    +0.000 A 
ATOM     22  C   UNL     1       5.981   3.421  12.158  0.00  0.00    +0.000 A 
ATOM     23  C   UNL     1       7.239   4.013  12.011  0.00  0.00    +0.000 A 
ATOM     24  C   UNL     1       7.746   4.837  13.017  0.00  0.00    +0.000 A 
ATOM     25  C   UNL     1       6.980   5.076  14.153  0.00  0.00    +0.000 A 
ATOM     26  O   UNL     1       7.604   5.702  15.205  0.00  0.00    +0.000 OA
ENDBRANCH  16  17
ENDBRANCH   3  16
TORSDOF 6
ENDMDL
MODEL 4
REMARK VINA RESULT:      -7.3      2.107      3.795
REMARK  Name = 
REMARK  8 active torsions:
REMARK  status: ('A' for Active; 'I' for Inactive)
REMARK    1  A    between atoms: C_1  and  C_2
REMARK    2  A    between atoms: C_4  and  C_5
REMARK    3  A    between atoms: C_5  and  C_7
REMARK    4  A    between atoms: C_7  and  C_8
REMARK    5  A    between atoms: C_8  and  C_9
REMARK    6  A    between atoms: N_11  and  C_12
REMARK    7  A    between atoms: C_12  and  C_13
REMARK    8  A    between atoms: C_23  and  C_24
REMARK                            x       y       z     vdW  Elec       q    Type
REMARK                         _______ _______ _______ _____ _____    ______ ____
ROOT
ATOM      1  C   UNL     1       4.827   2.857  19.017  0.00  0.00    +0.000 C 
ATOM      2  O   UNL     1       4.808   1.700  19.441  0.00  0.00    +0.000 OA
ATOM      3  N   UNL     1       5.372   3.844  19.790  0.00  0.00    +0.000 N 
ATOM      4  H   UNL     1       5.899   3.479  20.577  0.00  0.00    +0.000 HD
ENDROOT
BRANCH   1   5
ATOM      5  C   UNL     1       4.167   3.221  17.706  0.00  0.00    +0.000 C 
BRANCH   5   6
ATOM      6  C   UNL     1       2.865   2.446  17.600  0.00  0.00    +0.000 C 
BRANCH   6   7
ATOM      7  C   UNL     1       1.686   3.183  18.217  0.00  0.00    +0.000 C 
ATOM      8  O   UNL     1       0.586   2.640  18.308  0.00  0.00    +0.000 OA
BRANCH   7  12
ATOM      9  C   UNL     1       2.580   8.223  17.847  0.00  0.00    +0.000 C 
ATOM     10  C   UNL     1       2.333   6.878  18.440  0.00  0.00    +0.000 A 
ATOM     11  C   UNL     1       2.121   5.689  17.785  0.00  0.00    +0.000 A 
ATOM     12  C   UNL     1       1.925   4.567  18.668  0.00  0.00    +0.000 A 
ATOM     13  C   UNL     1       1.989   4.985  20.002  0.00  0.00    +0.000 A 
ATOM     14  C   UNL     1       1.861   4.213  21.278  0.00  0.00    +0.000 C 
ATOM     15  S   UNL     1       2.291   6.673  20.127  0.00  0.00    +0.000 S 
ENDBRANCH   7  12
ENDBRANCH   6   7
ENDBRANCH   5   6
ENDBRANCH   1   5
BRANCH   3  16
ATOM     16  C   UNL     1       5.705   5.173  19.318  0.00  0.00    +0.000 C 
BRANCH  16  17
ATOM     17  C   UNL     1       7.146   5.314  18.785  0.00  0.00    +0.000 C 
ATOM     18  C   UNL     1       7.363   6.727  18.249  0.00  0.00    +0.000 C 
ATOM     19  O   UNL     1       6.374   7.021  17.250  0.00  0.00    +0.000 OA
ATOM     20  C   UNL     1       6.262   5.990  16.349  0.00  0.00    +0.000 A 
ATOM     21  C   UNL     1       5.450   6.197  15.242  0.00  0.00    +0.000 A 
ATOM     22  C   UNL     1       5.354   5.207  14.263  0.00  0.00    +0.000 A 
ATOM     23  C   UNL     1       6.099   4.029  14.379  0.00  0.00    +0.000 A 
ATOM     24  C   UNL     1       6.856   3.792  15.527  0.00  0.00    +0.000 A 
ATOM     25  C   UNL     1       6.874   4.744  16.541  0.00  0.00    +0.000 A 
ATOM     26  O   UNL     1       7.444   4.372  17.735  0.00  0.00    +0.000 OA
ENDBRANCH  16  17
ENDBRANCH   3  16
TORSDOF 6
ENDMDL
MODEL 5
REMARK VINA RESULT:      -7.3      2.885      5.106
REMARK  Name = 
REMARK  8 active torsions:
REMARK  status: ('A' for Active; 'I' for Inactive)
REMARK    1  A    between atoms: C_1  and  C_2
REMARK    2  A    between atoms: C_4  and  C_5
REMARK    3  A    between atoms: C_5  and  C_7
REMARK    4  A    between atoms: C_7  and  C_8
REMARK    5  A    between atoms: C_8  and  C_9
REMARK    6  A    between atoms: N_11  and  C_12
REMARK    7  A    between atoms: C_12  and  C_13
REMARK    8  A    between atoms: C_23  and  C_24
REMARK                            x       y       z     vdW  Elec       q    Type
REMARK                         _______ _______ _______ _____ _____    ______ ____
ROOT
ATOM      1  C   UNL     1       3.930   7.080  17.365  0.00  0.00    +0.000 C 
ATOM      2  O   UNL     1       3.994   7.778  16.351  0.00  0.00    +0.000 OA
ATOM      3  N   UNL     1       4.829   6.066  17.538  0.00  0.00    +0.000 N 
ATOM      4  H   UNL     1       5.606   6.115  16.886  0.00  0.00    +0.000 HD
ENDROOT
BRANCH   1   5
ATOM      5  C   UNL     1       2.813   7.261  18.369  0.00  0.00    +0.000 C 
BRANCH   5   6
ATOM      6  C   UNL     1       2.051   8.525  18.009  0.00  0.00    +0.000 C 
BRANCH   6   7
ATOM      7  C   UNL     1       1.235   9.074  19.168  0.00  0.00    +0.000 C 
ATOM      8  O   UNL     1       1.402   8.648  20.310  0.00  0.00    +0.000 OA
BRANCH   7  12
ATOM      9  C   UNL     1      -2.841  11.209  16.893  0.00  0.00    +0.000 C 
ATOM     10  C   UNL     1      -1.651  11.038  17.775  0.00  0.00    +0.000 A 
ATOM     11  C   UNL     1      -0.849   9.930  17.910  0.00  0.00    +0.000 A 
ATOM     12  C   UNL     1       0.230  10.107  18.848  0.00  0.00    +0.000 A 
ATOM     13  C   UNL     1       0.180  11.388  19.407  0.00  0.00    +0.000 A 
ATOM     14  C   UNL     1       1.068  12.056  20.410  0.00  0.00    +0.000 C 
ATOM     15  S   UNL     1      -1.131  12.306  18.778  0.00  0.00    +0.000 S 
ENDBRANCH   7  12
ENDBRANCH   6   7
ENDBRANCH   5   6
ENDBRANCH   1   5
BRANCH   3  16
ATOM     16  C   UNL     1       5.043   5.355  18.783  0.00  0.00    +0.000 C 
BRANCH  16  17
ATOM     17  C   UNL     1       5.188   3.827  18.625  0.00  0.00    +0.000 C 
ATOM     18  C   UNL     1       4.319   3.343  17.467  0.00  0.00    +0.000 C 
ATOM     19  O   UNL     1       2.958   3.746  17.684  0.00  0.00    +0.000 OA
ATOM     20  C   UNL     1       2.558   3.462  18.967  0.00  0.00    +0.000 A 
ATOM     21  C   UNL     1       1.219   3.662  19.276  0.00  0.00    +0.000 A 
ATOM     22  C   UNL     1       0.746   3.326  20.545  0.00  0.00    +0.000 A 
ATOM     23  C   UNL     1       1.608   2.757  21.487  0.00  0.00    +0.000 A 
ATOM     24  C   UNL     1       2.968   2.626  21.201  0.00  0.00    +0.000 A 
ATOM     25  C   UNL     1       3.449   3.048  19.966  0.00  0.00    +0.000 A 
ATOM     26  O   UNL     1       4.814   3.108  19.816  0.00  0.00    +0.000 OA
ENDBRANCH  16  17
ENDBRANCH   3  16
TORSDOF 6
ENDMDL
MODEL 6
REMARK VINA RESULT:      -7.1      3.215      7.102
REMARK  Name = 
REMARK  8 active torsions:
REMARK  status: ('A' for Active; 'I' for Inactive)
REMARK    1  A    between atoms: C_1  and  C_2
REMARK    2  A    between atoms: C_4  and  C_5
REMARK    3  A    between atoms: C_5  and  C_7
REMARK    4  A    between atoms: C_7  and  C_8
REMARK    5  A    between atoms: C_8  and  C_9
REMARK    6  A    between atoms: N_11  and  C_12
REMARK    7  A    between atoms: C_12  and  C_13
REMARK    8  A    between atoms: C_23  and  C_24
REMARK                            x       y       z     vdW  Elec       q    Type
REMARK                         _______ _______ _______ _____ _____    ______ ____
ROOT
ATOM      1  C   UNL     1       5.232   3.749  18.712  0.00  0.00    +0.000 C 
ATOM      2  O   UNL     1       5.986   4.499  19.336  0.00  0.00    +0.000 OA
ATOM      3  N   UNL     1       4.629   2.711  19.364  0.00  0.00    +0.000 N 
ATOM      4  H   UNL     1       4.712   2.782  20.373  0.00  0.00    +0.000 HD
ENDROOT
BRANCH   1   5
ATOM      5  C   UNL     1       5.045   3.895  17.218  0.00  0.00    +0.000 C 
BRANCH   5   6
ATOM      6  C   UNL     1       6.357   4.377  16.621  0.00  0.00    +0.000 C 
BRANCH   6   7
ATOM      7  C   UNL     1       6.160   5.294  15.423  0.00  0.00    +0.000 C 
ATOM      8  O   UNL     1       5.888   6.483  15.583  0.00  0.00    +0.000 OA
BRANCH   7  12
ATOM      9  C   UNL     1       4.920   2.373  11.390  0.00  0.00    +0.000 C 
ATOM     10  C   UNL     1       5.666   3.326  12.260  0.00  0.00    +0.000 A 
ATOM     11  C   UNL     1       5.329   3.766  13.518  0.00  0.00    +0.000 A 
ATOM     12  C   UNL     1       6.284   4.683  14.086  0.00  0.00    +0.000 A 
ATOM     13  C   UNL     1       7.332   4.909  13.187  0.00  0.00    +0.000 A 
ATOM     14  C   UNL     1       8.558   5.759  13.304  0.00  0.00    +0.000 C 
ATOM     15  S   UNL     1       7.128   4.013  11.734  0.00  0.00    +0.000 S 
ENDBRANCH   7  12
ENDBRANCH   6   7
ENDBRANCH   5   6
ENDBRANCH   1   5
BRANCH   3  16
ATOM     16  C   UNL     1       3.528   1.931  18.835  0.00  0.00    +0.000 C 
BRANCH  16  17
ATOM     17  C   UNL     1       2.203   2.097  19.609  0.00  0.00    +0.000 C 
ATOM     18  C   UNL     1       1.046   2.249  18.625  0.00  0.00    +0.000 C 
ATOM     19  O   UNL     1       1.306   3.349  17.740  0.00  0.00    +0.000 OA
ATOM     20  C   UNL     1       1.722   4.457  18.438  0.00  0.00    +0.000 A 
ATOM     21  C   UNL     1       1.869   5.640  17.727  0.00  0.00    +0.000 A 
ATOM     22  C   UNL     1       2.224   6.810  18.400  0.00  0.00    +0.000 A 
ATOM     23  C   UNL     1       2.395   6.797  19.788  0.00  0.00    +0.000 A 
ATOM     24  C   UNL     1       2.320   5.593  20.490  0.00  0.00    +0.000 A 
ATOM     25  C   UNL     1       2.056   4.415  19.799  0.00  0.00    +0.000 A 
ATOM     26  O   UNL     1       2.214   3.238  20.490  0.00  0.00    +0.000 OA
ENDBRANCH  16  17
ENDBRANCH   3  16
TORSDOF 6
ENDMDL
MODEL 7
REMARK VINA RESULT:      -7.0      2.531      5.040
REMARK  Name = 
REMARK  8 active torsions:
REMARK  status: ('A' for Active; 'I' for Inactive)
REMARK    1  A    between atoms: C_1  and  C_2
REMARK    2  A    between atoms: C_4  and  C_5
REMARK    3  A    between atoms: C_5  and  C_7
REMARK    4  A    between atoms: C_7  and  C_8
REMARK    5  A    between atoms: C_8  and  C_9
REMARK    6  A    between atoms: N_11  and  C_12
REMARK    7  A    between atoms: C_12  and  C_13
REMARK    8  A    between atoms: C_23  and  C_24
REMARK                            x       y       z     vdW  Elec       q    Type
REMARK                         _______ _______ _______ _____ _____    ______ ____
ROOT
ATOM      1  C   UNL     1       3.477   7.223  17.813  0.00  0.00    +0.000 C 
ATOM      2  O   UNL     1       3.317   8.012  16.879  0.00  0.00    +0.000 OA
ATOM      3  N   UNL     1       4.498   6.317  17.757  0.00  0.00    +0.000 N 
ATOM      4  H   UNL     1       5.163   6.522  17.018  0.00  0.00    +0.000 HD
ENDROOT
BRANCH   1   5
ATOM      5  C   UNL     1       2.502   7.172  18.968  0.00  0.00    +0.000 C 
BRANCH   5   6
ATOM      6  C   UNL     1       1.850   8.537  19.101  0.00  0.00    +0.000 C 
BRANCH   6   7
ATOM      7  C   UNL     1       1.165   8.739  20.444  0.00  0.00    +0.000 C 
ATOM      8  O   UNL     1       1.210   7.864  21.307  0.00  0.00    +0.000 OA
BRANCH   7  12
ATOM      9  C   UNL     1      -0.805  13.328  19.262  0.00  0.00    +0.000 C 
ATOM     10  C   UNL     1      -0.449  12.109  20.041  0.00  0.00    +0.000 A 
ATOM     11  C   UNL     1       0.261  11.011  19.619  0.00  0.00    +0.000 A 
ATOM     12  C   UNL     1       0.436  10.007  20.639  0.00  0.00    +0.000 A 
ATOM     13  C   UNL     1      -0.187  10.408  21.824  0.00  0.00    +0.000 A 
ATOM     14  C   UNL     1      -0.284   9.735  23.159  0.00  0.00    +0.000 C 
ATOM     15  S   UNL     1      -0.928  11.951  21.664  0.00  0.00    +0.000 S 
ENDBRANCH   7  12
ENDBRANCH   6   7
ENDBRANCH   5   6
ENDBRANCH   1   5
BRANCH   3  16
ATOM     16  C   UNL     1       4.966   5.529  18.880  0.00  0.00    +0.000 C 
BRANCH  16  17
ATOM     17  C   UNL     1       5.158   4.031  18.567  0.00  0.00    +0.000 C 
ATOM     18  C   UNL     1       4.237   3.620  17.421  0.00  0.00    +0.000 C 
ATOM     19  O   UNL     1       2.878   3.942  17.755  0.00  0.00    +0.000 OA
ATOM     20  C   UNL     1       2.569   3.522  19.026  0.00  0.00    +0.000 A 
ATOM     21  C   UNL     1       1.245   3.635  19.430  0.00  0.00    +0.000 A 
ATOM     22  C   UNL     1       0.866   3.161  20.687  0.00  0.00    +0.000 A 
ATOM     23  C   UNL     1       1.805   2.544  21.518  0.00  0.00    +0.000 A 
ATOM     24  C   UNL     1       3.148   2.498  21.142  0.00  0.00    +0.000 A 
ATOM     25  C   UNL     1       3.536   3.055  19.927  0.00  0.00    +0.000 A 
ATOM     26  O   UNL     1       4.885   3.187  19.704  0.00  0.00    +0.000 OA
ENDBRANCH  16  17
ENDBRANCH   3  16
TORSDOF 6
ENDMDL
MODEL 8
REMARK VINA RESULT:      -7.0      2.738      3.794
REMARK  Name = 
REMARK  8 active torsions:
REMARK  status: ('A' for Active; 'I' for Inactive)
REMARK    1  A    between atoms: C_1  and  C_2
REMARK    2  A    between atoms: C_4  and  C_5
REMARK    3  A    between atoms: C_5  and  C_7
REMARK    4  A    between atoms: C_7  and  C_8
REMARK    5  A    between atoms: C_8  and  C_9
REMARK    6  A    between atoms: N_11  and  C_12
REMARK    7  A    between atoms: C_12  and  C_13
REMARK    8  A    between atoms: C_23  and  C_24
REMARK                            x       y       z     vdW  Elec       q    Type
REMARK                         _______ _______ _______ _____ _____    ______ ____
ROOT
ATOM      1  C   UNL     1       2.001   6.021  19.828  0.00  0.00    +0.000 C 
ATOM      2  O   UNL     1       1.477   6.177  20.933  0.00  0.00    +0.000 OA
ATOM      3  N   UNL     1       2.181   4.755  19.346  0.00  0.00    +0.000 N 
ATOM      4  H   UNL     1       1.671   4.056  19.878  0.00  0.00    +0.000 HD
ENDROOT
BRANCH   1   5
ATOM      5  C   UNL     1       2.540   7.196  19.045  0.00  0.00    +0.000 C 
BRANCH   5   6
ATOM      6  C   UNL     1       1.787   8.442  19.480  0.00  0.00    +0.000 C 
BRANCH   6   7
ATOM      7  C   UNL     1       1.407   9.342  18.314  0.00  0.00    +0.000 C 
ATOM      8  O   UNL     1       2.088   9.361  17.290  0.00  0.00    +0.000 OA
BRANCH   7  12
ATOM      9  C   UNL     1      -3.400  11.001  17.622  0.00  0.00    +0.000 C 
ATOM     10  C   UNL     1      -2.004  10.910  18.134  0.00  0.00    +0.000 A 
ATOM     11  C   UNL     1      -1.043   9.981  17.815  0.00  0.00    +0.000 A 
ATOM     12  C   UNL     1       0.214  10.193  18.488  0.00  0.00    +0.000 A 
ATOM     13  C   UNL     1       0.132  11.309  19.326  0.00  0.00    +0.000 A 
ATOM     14  C   UNL     1       1.153  11.943  20.220  0.00  0.00    +0.000 C 
ATOM     15  S   UNL     1      -1.420  12.046  19.255  0.00  0.00    +0.000 S 
ENDBRANCH   7  12
ENDBRANCH   6   7
ENDBRANCH   5   6
ENDBRANCH   1   5
BRANCH   3  16
ATOM     16  C   UNL     1       2.524   4.435  17.974  0.00  0.00    +0.000 C 
BRANCH  16  17
ATOM     17  C   UNL     1       3.439   3.202  17.820  0.00  0.00    +0.000 C 
ATOM     18  C   UNL     1       4.227   2.979  19.108  0.00  0.00    +0.000 C 
ATOM     19  O   UNL     1       4.959   4.169  19.439  0.00  0.00    +0.000 OA
ATOM     20  C   UNL     1       5.624   4.659  18.341  0.00  0.00    +0.000 A 
ATOM     21  C   UNL     1       6.492   5.724  18.545  0.00  0.00    +0.000 A 
ATOM     22  C   UNL     1       7.242   6.216  17.476  0.00  0.00    +0.000 A 
ATOM     23  C   UNL     1       7.146   5.618  16.216  0.00  0.00    +0.000 A 
ATOM     24  C   UNL     1       6.220   4.598  15.996  0.00  0.00    +0.000 A 
ATOM     25  C   UNL     1       5.410   4.174  17.044  0.00  0.00    +0.000 A 
ATOM     26  O   UNL     1       4.368   3.334  16.727  0.00  0.00    +0.000 OA
ENDBRANCH  16  17
ENDBRANCH   3  16
TORSDOF 6
ENDMDL
MODEL 9
REMARK VINA RESULT:      -7.0      2.550      3.802
REMARK  Name = 
REMARK  8 active torsions:
REMARK  status: ('A' for Active; 'I' for Inactive)
REMARK    1  A    between atoms: C_1  and  C_2
REMARK    2  A    between atoms: C_4  and  C_5
REMARK    3  A    between atoms: C_5  and  C_7
REMARK    4  A    between atoms: C_7  and  C_8
REMARK    5  A    between atoms: C_8  and  C_9
REMARK    6  A    between atoms: N_11  and  C_12
REMARK    7  A    between atoms: C_12  and  C_13
REMARK    8  A    between atoms: C_23  and  C_24
REMARK                            x       y       z     vdW  Elec       q    Type
REMARK                         _______ _______ _______ _____ _____    ______ ____
ROOT
ATOM      1  C   UNL     1       2.121   7.593  19.145  0.00  0.00    +0.000 C 
ATOM      2  O   UNL     1       2.087   8.720  18.647  0.00  0.00    +0.000 OA
ATOM      3  N   UNL     1       2.487   6.529  18.370  0.00  0.00    +0.000 N 
ATOM      4  H   UNL     1       2.896   6.812  17.485  0.00  0.00    +0.000 HD
ENDROOT
BRANCH   1   5
ATOM      5  C   UNL     1       1.665   7.353  20.567  0.00  0.00    +0.000 C 
BRANCH   5   6
ATOM      6  C   UNL     1       1.413   8.702  21.219  0.00  0.00    +0.000 C 
BRANCH   6   7
ATOM      7  C   UNL     1      -0.059   8.950  21.515  0.00  0.00    +0.000 C 
ATOM      8  O   UNL     1      -0.818   8.011  21.746  0.00  0.00    +0.000 OA
BRANCH   7  12
ATOM      9  C   UNL     1      -1.376  13.572  23.317  0.00  0.00    +0.000 C 
ATOM     10  C   UNL     1      -1.110  12.457  22.364  0.00  0.00    +0.000 A 
ATOM     11  C   UNL     1      -0.658  11.191  22.646  0.00  0.00    +0.000 A 
ATOM     12  C   UNL     1      -0.519  10.352  21.482  0.00  0.00    +0.000 A 
ATOM     13  C   UNL     1      -0.876  11.060  20.330  0.00  0.00    +0.000 A 
ATOM     14  C   UNL     1      -0.914  10.641  18.893  0.00  0.00    +0.000 C 
ATOM     15  S   UNL     1      -1.367  12.667  20.697  0.00  0.00    +0.000 S 
ENDBRANCH   7  12
ENDBRANCH   6   7
ENDBRANCH   5   6
ENDBRANCH   1   5
BRANCH   3  16
ATOM     16  C   UNL     1       2.830   5.216  18.879  0.00  0.00    +0.000 C 
BRANCH  16  17
ATOM     17  C   UNL     1       3.451   4.271  17.829  0.00  0.00    +0.000 C 
ATOM     18  C   UNL     1       4.306   3.216  18.525  0.00  0.00    +0.000 C 
ATOM     19  O   UNL     1       5.298   3.859  19.341  0.00  0.00    +0.000 OA
ATOM     20  C   UNL     1       5.931   4.862  18.647  0.00  0.00    +0.000 A 
ATOM     21  C   UNL     1       7.016   5.474  19.261  0.00  0.00    +0.000 A 
ATOM     22  C   UNL     1       7.736   6.452  18.573  0.00  0.00    +0.000 A 
ATOM     23  C   UNL     1       7.389   6.787  17.261  0.00  0.00    +0.000 A 
ATOM     24  C   UNL     1       6.254   6.226  16.674  0.00  0.00    +0.000 A 
ATOM     25  C   UNL     1       5.488   5.319  17.399  0.00  0.00    +0.000 A 
ATOM     26  O   UNL     1       4.269   4.969  16.869  0.00  0.00    +0.000 OA
ENDBRANCH  16  17
ENDBRANCH   3  16
TORSDOF 6
ENDMDL
