MODEL 1
REMARK VINA RESULT:      -8.8      0.000      0.000
REMARK  Name = 
REMARK  3 active torsions:
REMARK  status: ('A' for Active; 'I' for Inactive)
REMARK    1  A    between atoms: C_1  and  C_2
REMARK    2  A    between atoms: C_5  and  C_6
REMARK    3  A    between atoms: C_9  and  N_10
REMARK                            x       y       z     vdW  Elec       q    Type
REMARK                         _______ _______ _______ _____ _____    ______ ____
ROOT
ATOM      1  C   UNL     1       1.437   2.531  21.249  0.00  0.00    +0.000 C 
ATOM      2  C   UNL     1       2.402   3.569  20.705  0.00  0.00    +0.000 C 
ATOM      3  N   UNL     1       3.257   3.054  19.899  0.00  0.00    +0.000 NA
ATOM      4  N   UNL     1       4.327   3.858  19.681  0.00  0.00    +0.000 NA
ATOM      5  C   UNL     1       4.172   4.810  18.811  0.00  0.00    +0.000 C 
ATOM      6  C   UNL     1       3.215   5.953  18.840  0.00  0.00    +0.000 A 
ATOM      7  C   UNL     1       3.267   7.032  17.933  0.00  0.00    +0.000 A 
ATOM      8  C   UNL     1       2.506   8.165  18.183  0.00  0.00    +0.000 A 
ATOM      9  C   UNL     1       1.710   8.268  19.288  0.00  0.00    +0.000 A 
ATOM     10  C   UNL     1       1.629   7.240  20.187  0.00  0.00    +0.000 A 
ATOM     11  C   UNL     1       2.398   6.067  19.960  0.00  0.00    +0.000 A 
ATOM     12  C   UNL     1       2.508   5.053  21.063  0.00  0.00    +0.000 C 
ATOM     13  O   UNL     1       1.109   9.477  19.410  0.00  0.00    +0.000 OA
ATOM     14  C   UNL     1       1.489  10.076  18.159  0.00  0.00    +0.000 C 
ATOM     15  O   UNL     1       2.490   9.311  17.446  0.00  0.00    +0.000 OA
ENDROOT
BRANCH   5  16
ATOM     16  C   UNL     1       5.143   4.679  17.759  0.00  0.00    +0.000 A 
ATOM     17  C   UNL     1       6.374   5.290  17.942  0.00  0.00    +0.000 A 
ATOM     18  C   UNL     1       7.173   5.445  16.833  0.00  0.00    +0.000 A 
ATOM     19  C   UNL     1       6.682   5.106  15.564  0.00  0.00    +0.000 A 
ATOM     20  C   UNL     1       5.438   4.483  15.414  0.00  0.00    +0.000 A 
ATOM     21  C   UNL     1       4.650   4.281  16.518  0.00  0.00    +0.000 A 
BRANCH  19  22
ATOM     22  N   UNL     1       7.510   5.243  14.447  0.00  0.00    +0.000 N 
ATOM     23  H   UNL     1       7.011   5.044  13.587  0.00  0.00    +0.000 HD
ATOM     24  H   UNL     1       8.351   4.679  14.541  0.00  0.00    +0.000 HD
ENDBRANCH  19  22
ENDBRANCH   5  16
TORSDOF 2
ENDMDL
MODEL 2
REMARK VINA RESULT:      -8.5      0.754      1.292
REMARK  Name = 
REMARK  3 active torsions:
REMARK  status: ('A' for Active; 'I' for Inactive)
REMARK    1  A    between atoms: C_1  and  C_2
REMARK    2  A    between atoms: C_5  and  C_6
REMARK    3  A    between atoms: C_9  and  N_10
REMARK                            x       y       z     vdW  Elec       q    Type
REMARK                         _______ _______ _______ _____ _____    ______ ____
ROOT
ATOM      1  C   UNL     1       1.433   2.632  20.777  0.00  0.00    +0.000 C 
ATOM      2  C   UNL     1       2.294   3.812  20.363  0.00  0.00    +0.000 C 
ATOM      3  N   UNL     1       3.103   3.508  19.416  0.00  0.00    +0.000 NA
ATOM      4  N   UNL     1       4.107   4.408  19.270  0.00  0.00    +0.000 NA
ATOM      5  C   UNL     1       3.829   5.487  18.602  0.00  0.00    +0.000 C 
ATOM      6  C   UNL     1       2.819   6.540  18.911  0.00  0.00    +0.000 A 
ATOM      7  C   UNL     1       2.737   7.764  18.216  0.00  0.00    +0.000 A 
ATOM      8  C   UNL     1       1.941   8.780  18.724  0.00  0.00    +0.000 A 
ATOM      9  C   UNL     1       1.237   8.631  19.885  0.00  0.00    +0.000 A 
ATOM     10  C   UNL     1       1.287   7.457  20.584  0.00  0.00    +0.000 A 
ATOM     11  C   UNL     1       2.095   6.397  20.091  0.00  0.00    +0.000 A 
ATOM     12  C   UNL     1       2.351   5.213  20.978  0.00  0.00    +0.000 C 
ATOM     13  O   UNL     1       0.586   9.757  20.271  0.00  0.00    +0.000 OA
ATOM     14  C   UNL     1       0.827  10.593  19.125  0.00  0.00    +0.000 C 
ATOM     15  O   UNL     1       1.802  10.036  18.213  0.00  0.00    +0.000 OA
ENDROOT
BRANCH   5  16
ATOM     16  C   UNL     1       4.713   5.611  17.476  0.00  0.00    +0.000 A 
ATOM     17  C   UNL     1       4.473   4.795  16.380  0.00  0.00    +0.000 A 
ATOM     18  C   UNL     1       5.481   4.675  15.451  0.00  0.00    +0.000 A 
ATOM     19  C   UNL     1       6.732   5.260  15.695  0.00  0.00    +0.000 A 
ATOM     20  C   UNL     1       6.939   6.083  16.808  0.00  0.00    +0.000 A 
ATOM     21  C   UNL     1       5.927   6.250  17.719  0.00  0.00    +0.000 A 
BRANCH  19  22
ATOM     22  N   UNL     1       7.741   5.153  14.734  0.00  0.00    +0.000 N 
ATOM     23  H   UNL     1       7.731   4.243  14.285  0.00  0.00    +0.000 HD
ATOM     24  H   UNL     1       8.650   5.374  15.130  0.00  0.00    +0.000 HD
ENDBRANCH  19  22
ENDBRANCH   5  16
TORSDOF 2
ENDMDL
MODEL 3
REMARK VINA RESULT:      -8.1      2.815      5.386
REMARK  Name = 
REMARK  3 active torsions:
REMARK  status: ('A' for Active; 'I' for Inactive)
REMARK    1  A    between atoms: C_1  and  C_2
REMARK    2  A    between atoms: C_5  and  C_6
REMARK    3  A    between atoms: C_9  and  N_10
REMARK                            x       y       z     vdW  Elec       q    Type
REMARK                         _______ _______ _______ _____ _____    ______ ____
ROOT
ATOM      1  C   UNL     1       2.498   2.522  21.580  0.00  0.00    +0.000 C 
ATOM      2  C   UNL     1       2.370   3.512  20.437  0.00  0.00    +0.000 C 
ATOM      3  N   UNL     1       1.993   4.669  20.842  0.00  0.00    +0.000 NA
ATOM      4  N   UNL     1       1.533   5.456  19.839  0.00  0.00    +0.000 NA
ATOM      5  C   UNL     1       2.426   6.068  19.121  0.00  0.00    +0.000 C 
ATOM      6  C   UNL     1       3.505   5.479  18.276  0.00  0.00    +0.000 A 
ATOM      7  C   UNL     1       4.298   6.239  17.391  0.00  0.00    +0.000 A 
ATOM      8  C   UNL     1       5.100   5.583  16.468  0.00  0.00    +0.000 A 
ATOM      9  C   UNL     1       5.139   4.220  16.387  0.00  0.00    +0.000 A 
ATOM     10  C   UNL     1       4.389   3.451  17.232  0.00  0.00    +0.000 A 
ATOM     11  C   UNL     1       3.556   4.091  18.188  0.00  0.00    +0.000 A 
ATOM     12  C   UNL     1       2.549   3.265  18.936  0.00  0.00    +0.000 C 
ATOM     13  O   UNL     1       5.911   3.762  15.371  0.00  0.00    +0.000 OA
ATOM     14  C   UNL     1       6.492   4.996  14.916  0.00  0.00    +0.000 C 
ATOM     15  O   UNL     1       5.873   6.164  15.506  0.00  0.00    +0.000 OA
ENDROOT
BRANCH   5  16
ATOM     16  C   UNL     1       2.213   7.488  19.174  0.00  0.00    +0.000 A 
ATOM     17  C   UNL     1       1.695   8.016  20.347  0.00  0.00    +0.000 A 
ATOM     18  C   UNL     1       1.192   9.296  20.295  0.00  0.00    +0.000 A 
ATOM     19  C   UNL     1       1.105   9.964  19.065  0.00  0.00    +0.000 A 
ATOM     20  C   UNL     1       1.644   9.406  17.901  0.00  0.00    +0.000 A 
ATOM     21  C   UNL     1       2.190   8.149  17.947  0.00  0.00    +0.000 A 
BRANCH  19  22
ATOM     22  N   UNL     1       0.616  11.272  19.027  0.00  0.00    +0.000 N 
ATOM     23  H   UNL     1      -0.347  11.300  18.710  0.00  0.00    +0.000 HD
ATOM     24  H   UNL     1       1.220  11.874  18.473  0.00  0.00    +0.000 HD
ENDBRANCH  19  22
ENDBRANCH   5  16
TORSDOF 2
ENDMDL
MODEL 4
REMARK VINA RESULT:      -7.9      3.623      6.493
REMARK  Name = 
REMARK  3 active torsions:
REMARK  status: ('A' for Active; 'I' for Inactive)
REMARK    1  A    between atoms: C_1  and  C_2
REMARK    2  A    between atoms: C_5  and  C_6
REMARK    3  A    between atoms: C_9  and  N_10
REMARK                            x       y       z     vdW  Elec       q    Type
REMARK                         _______ _______ _______ _____ _____    ______ ____
ROOT
ATOM      1  C   UNL     1       8.182   6.884  18.848  0.00  0.00    +0.000 C 
ATOM      2  C   UNL     1       7.386   5.710  18.307  0.00  0.00    +0.000 C 
ATOM      3  N   UNL     1       6.299   5.524  18.961  0.00  0.00    +0.000 NA
ATOM      4  N   UNL     1       5.755   4.301  18.744  0.00  0.00    +0.000 NA
ATOM      5  C   UNL     1       5.054   4.159  17.660  0.00  0.00    +0.000 C 
ATOM      6  C   UNL     1       5.490   4.308  16.242  0.00  0.00    +0.000 A 
ATOM      7  C   UNL     1       4.687   3.944  15.141  0.00  0.00    +0.000 A 
ATOM      8  C   UNL     1       5.257   3.881  13.878  0.00  0.00    +0.000 A 
ATOM      9  C   UNL     1       6.579   4.157  13.670  0.00  0.00    +0.000 A 
ATOM     10  C   UNL     1       7.387   4.519  14.711  0.00  0.00    +0.000 A 
ATOM     11  C   UNL     1       6.834   4.591  16.018  0.00  0.00    +0.000 A 
ATOM     12  C   UNL     1       7.764   4.736  17.188  0.00  0.00    +0.000 C 
ATOM     13  O   UNL     1       6.976   3.960  12.388  0.00  0.00    +0.000 OA
ATOM     14  C   UNL     1       5.708   3.684  11.769  0.00  0.00    +0.000 C 
ATOM     15  O   UNL     1       4.641   3.488  12.727  0.00  0.00    +0.000 OA
ENDROOT
BRANCH   5  16
ATOM     16  C   UNL     1       3.718   3.744  17.988  0.00  0.00    +0.000 A 
ATOM     17  C   UNL     1       2.750   4.730  18.106  0.00  0.00    +0.000 A 
ATOM     18  C   UNL     1       1.571   4.386  18.725  0.00  0.00    +0.000 A 
ATOM     19  C   UNL     1       1.433   3.122  19.317  0.00  0.00    +0.000 A 
ATOM     20  C   UNL     1       2.426   2.146  19.174  0.00  0.00    +0.000 A 
ATOM     21  C   UNL     1       3.589   2.461  18.518  0.00  0.00    +0.000 A 
BRANCH  19  22
ATOM     22  N   UNL     1       0.223   2.774  19.921  0.00  0.00    +0.000 N 
ATOM     23  H   UNL     1       0.333   1.982  20.546  0.00  0.00    +0.000 HD
ATOM     24  H   UNL     1      -0.503   2.616  19.227  0.00  0.00    +0.000 HD
ENDBRANCH  19  22
ENDBRANCH   5  16
TORSDOF 2
ENDMDL
MODEL 5
REMARK VINA RESULT:      -7.8      2.999      5.350
REMARK  Name = 
REMARK  3 active torsions:
REMARK  status: ('A' for Active; 'I' for Inactive)
REMARK    1  A    between atoms: C_1  and  C_2
REMARK    2  A    between atoms: C_5  and  C_6
REMARK    3  A    between atoms: C_9  and  N_10
REMARK                            x       y       z     vdW  Elec       q    Type
REMARK                         _______ _______ _______ _____ _____    ______ ____
ROOT
ATOM      1  C   UNL     1       6.303   3.934  12.933  0.00  0.00    +0.000 C 
ATOM      2  C   UNL     1       6.330   4.151  14.435  0.00  0.00    +0.000 C 
ATOM      3  N   UNL     1       7.041   5.167  14.762  0.00  0.00    +0.000 NA
ATOM      4  N   UNL     1       7.374   5.178  16.076  0.00  0.00    +0.000 NA
ATOM      5  C   UNL     1       6.474   5.621  16.901  0.00  0.00    +0.000 C 
ATOM      6  C   UNL     1       5.109   5.083  17.167  0.00  0.00    +0.000 A 
ATOM      7  C   UNL     1       4.290   5.533  18.224  0.00  0.00    +0.000 A 
ATOM      8  C   UNL     1       3.149   4.815  18.551  0.00  0.00    +0.000 A 
ATOM      9  C   UNL     1       2.798   3.677  17.881  0.00  0.00    +0.000 A 
ATOM     10  C   UNL     1       3.563   3.213  16.847  0.00  0.00    +0.000 A 
ATOM     11  C   UNL     1       4.739   3.926  16.489  0.00  0.00    +0.000 A 
ATOM     12  C   UNL     1       5.708   3.287  15.535  0.00  0.00    +0.000 C 
ATOM     13  O   UNL     1       1.703   3.064  18.394  0.00  0.00    +0.000 OA
ATOM     14  C   UNL     1       1.301   4.040  19.371  0.00  0.00    +0.000 C 
ATOM     15  O   UNL     1       2.291   5.076  19.577  0.00  0.00    +0.000 OA
ENDROOT
BRANCH   5  16
ATOM     16  C   UNL     1       6.993   6.736  17.645  0.00  0.00    +0.000 A 
ATOM     17  C   UNL     1       6.963   7.982  17.037  0.00  0.00    +0.000 A 
ATOM     18  C   UNL     1       7.736   8.974  17.595  0.00  0.00    +0.000 A 
ATOM     19  C   UNL     1       8.606   8.673  18.653  0.00  0.00    +0.000 A 
ATOM     20  C   UNL     1       8.606   7.407  19.249  0.00  0.00    +0.000 A 
ATOM     21  C   UNL     1       7.806   6.420  18.733  0.00  0.00    +0.000 A 
BRANCH  19  22
ATOM     22  N   UNL     1       9.368   9.693  19.228  0.00  0.00    +0.000 N 
ATOM     23  H   UNL     1       9.500  10.466  18.585  0.00  0.00    +0.000 HD
ATOM     24  H   UNL     1      10.250   9.337  19.585  0.00  0.00    +0.000 HD
ENDBRANCH  19  22
ENDBRANCH   5  16
TORSDOF 2
ENDMDL
MODEL 6
REMARK VINA RESULT:      -7.5      3.144      6.065
REMARK  Name = 
REMARK  3 active torsions:
REMARK  status: ('A' for Active; 'I' for Inactive)
REMARK    1  A    between atoms: C_1  and  C_2
REMARK    2  A    between atoms: C_5  and  C_6
REMARK    3  A    between atoms: C_9  and  N_10
REMARK                            x       y       z     vdW  Elec       q    Type
REMARK                         _______ _______ _______ _____ _____    ______ ____
ROOT
ATOM      1  C   UNL     1       1.657   9.627  17.697  0.00  0.00    +0.000 C 
ATOM      2  C   UNL     1       2.471   8.407  18.091  0.00  0.00    +0.000 C 
ATOM      3  N   UNL     1       1.826   7.636  18.887  0.00  0.00    +0.000 NA
ATOM      4  N   UNL     1       2.627   6.749  19.526  0.00  0.00    +0.000 NA
ATOM      5  C   UNL     1       2.960   5.683  18.864  0.00  0.00    +0.000 C 
ATOM      6  C   UNL     1       3.725   5.580  17.588  0.00  0.00    +0.000 A 
ATOM      7  C   UNL     1       4.193   4.358  17.060  0.00  0.00    +0.000 A 
ATOM      8  C   UNL     1       5.101   4.376  16.011  0.00  0.00    +0.000 A 
ATOM      9  C   UNL     1       5.562   5.546  15.478  0.00  0.00    +0.000 A 
ATOM     10  C   UNL     1       5.127   6.750  15.960  0.00  0.00    +0.000 A 
ATOM     11  C   UNL     1       4.198   6.765  17.034  0.00  0.00    +0.000 A 
ATOM     12  C   UNL     1       3.918   8.068  17.727  0.00  0.00    +0.000 C 
ATOM     13  O   UNL     1       6.507   5.368  14.522  0.00  0.00    +0.000 OA
ATOM     14  C   UNL     1       6.471   3.936  14.394  0.00  0.00    +0.000 C 
ATOM     15  O   UNL     1       5.694   3.294  15.432  0.00  0.00    +0.000 OA
ENDROOT
BRANCH   5  16
ATOM     16  C   UNL     1       2.541   4.508  19.577  0.00  0.00    +0.000 A 
ATOM     17  C   UNL     1       1.191   4.193  19.557  0.00  0.00    +0.000 A 
ATOM     18  C   UNL     1       0.742   3.279  20.483  0.00  0.00    +0.000 A 
ATOM     19  C   UNL     1       1.611   2.802  21.475  0.00  0.00    +0.000 A 
ATOM     20  C   UNL     1       2.971   3.134  21.462  0.00  0.00    +0.000 A 
ATOM     21  C   UNL     1       3.442   4.008  20.516  0.00  0.00    +0.000 A 
BRANCH  19  22
ATOM     22  N   UNL     1       1.153   1.856  22.395  0.00  0.00    +0.000 N 
ATOM     23  H   UNL     1       0.171   1.992  22.608  0.00  0.00    +0.000 HD
ATOM     24  H   UNL     1       1.729   1.848  23.232  0.00  0.00    +0.000 HD
ENDBRANCH  19  22
ENDBRANCH   5  16
TORSDOF 2
ENDMDL
MODEL 7
REMARK VINA RESULT:      -7.3      4.344      6.719
REMARK  Name = 
REMARK  3 active torsions:
REMARK  status: ('A' for Active; 'I' for Inactive)
REMARK    1  A    between atoms: C_1  and  C_2
REMARK    2  A    between atoms: C_5  and  C_6
REMARK    3  A    between atoms: C_9  and  N_10
REMARK                            x       y       z     vdW  Elec       q    Type
REMARK                         _______ _______ _______ _____ _____    ______ ____
ROOT
ATOM      1  C   UNL     1      -1.541  12.101  23.089  0.00  0.00    +0.000 C 
ATOM      2  C   UNL     1      -0.919  11.822  21.732  0.00  0.00    +0.000 C 
ATOM      3  N   UNL     1       0.067  11.005  21.814  0.00  0.00    +0.000 NA
ATOM      4  N   UNL     1       0.851  11.012  20.708  0.00  0.00    +0.000 NA
ATOM      5  C   UNL     1       0.437  10.313  19.696  0.00  0.00    +0.000 C 
ATOM      6  C   UNL     1      -0.819  10.469  18.907  0.00  0.00    +0.000 A 
ATOM      7  C   UNL     1      -1.073   9.771  17.708  0.00  0.00    +0.000 A 
ATOM      8  C   UNL     1      -2.144  10.156  16.914  0.00  0.00    +0.000 A 
ATOM      9  C   UNL     1      -2.957  11.199  17.257  0.00  0.00    +0.000 A 
ATOM     10  C   UNL     1      -2.745  11.896  18.415  0.00  0.00    +0.000 A 
ATOM     11  C   UNL     1      -1.656  11.527  19.249  0.00  0.00    +0.000 A 
ATOM     12  C   UNL     1      -1.269  12.440  20.377  0.00  0.00    +0.000 C 
ATOM     13  O   UNL     1      -3.894  11.485  16.320  0.00  0.00    +0.000 OA
ATOM     14  C   UNL     1      -3.685  10.390  15.411  0.00  0.00    +0.000 C 
ATOM     15  O   UNL     1      -2.487   9.632  15.703  0.00  0.00    +0.000 OA
ENDROOT
BRANCH   5  16
ATOM     16  C   UNL     1       1.424   9.331  19.338  0.00  0.00    +0.000 A 
ATOM     17  C   UNL     1       1.905   9.349  18.038  0.00  0.00    +0.000 A 
ATOM     18  C   UNL     1       2.589   8.238  17.602  0.00  0.00    +0.000 A 
ATOM     19  C   UNL     1       2.668   7.100  18.418  0.00  0.00    +0.000 A 
ATOM     20  C   UNL     1       2.178   7.117  19.729  0.00  0.00    +0.000 A 
ATOM     21  C   UNL     1       1.534   8.235  20.193  0.00  0.00    +0.000 A 
BRANCH  19  22
ATOM     22  N   UNL     1       3.386   5.986  17.977  0.00  0.00    +0.000 N 
ATOM     23  H   UNL     1       2.890   5.490  17.244  0.00  0.00    +0.000 HD
ATOM     24  H   UNL     1       3.632   5.376  18.752  0.00  0.00    +0.000 HD
ENDBRANCH  19  22
ENDBRANCH   5  16
TORSDOF 2
ENDMDL
MODEL 8
REMARK VINA RESULT:      -7.2      1.518      4.919
REMARK  Name = 
REMARK  3 active torsions:
REMARK  status: ('A' for Active; 'I' for Inactive)
REMARK    1  A    between atoms: C_1  and  C_2
REMARK    2  A    between atoms: C_5  and  C_6
REMARK    3  A    between atoms: C_9  and  N_10
REMARK                            x       y       z     vdW  Elec       q    Type
REMARK                         _______ _______ _______ _____ _____    ______ ____
ROOT
ATOM      1  C   UNL     1       7.450   4.826  16.630  0.00  0.00    +0.000 C 
ATOM      2  C   UNL     1       5.961   4.825  16.928  0.00  0.00    +0.000 C 
ATOM      3  N   UNL     1       5.622   3.846  17.683  0.00  0.00    +0.000 NA
ATOM      4  N   UNL     1       4.287   3.611  17.675  0.00  0.00    +0.000 NA
ATOM      5  C   UNL     1       3.558   4.369  18.437  0.00  0.00    +0.000 C 
ATOM      6  C   UNL     1       3.381   5.849  18.383  0.00  0.00    +0.000 A 
ATOM      7  C   UNL     1       2.415   6.542  19.142  0.00  0.00    +0.000 A 
ATOM      8  C   UNL     1       2.152   7.873  18.850  0.00  0.00    +0.000 A 
ATOM      9  C   UNL     1       2.799   8.531  17.842  0.00  0.00    +0.000 A 
ATOM     10  C   UNL     1       3.745   7.893  17.090  0.00  0.00    +0.000 A 
ATOM     11  C   UNL     1       4.037   6.530  17.362  0.00  0.00    +0.000 A 
ATOM     12  C   UNL     1       4.879   5.762  16.384  0.00  0.00    +0.000 C 
ATOM     13  O   UNL     1       2.350   9.796  17.648  0.00  0.00    +0.000 OA
ATOM     14  C   UNL     1       1.452   9.920  18.765  0.00  0.00    +0.000 C 
ATOM     15  O   UNL     1       1.212   8.664  19.441  0.00  0.00    +0.000 OA
ENDROOT
BRANCH   5  16
ATOM     16  C   UNL     1       2.823   3.565  19.374  0.00  0.00    +0.000 A 
ATOM     17  C   UNL     1       1.438   3.629  19.327  0.00  0.00    +0.000 A 
ATOM     18  C   UNL     1       0.747   3.128  20.407  0.00  0.00    +0.000 A 
ATOM     19  C   UNL     1       1.443   2.698  21.546  0.00  0.00    +0.000 A 
ATOM     20  C   UNL     1       2.841   2.640  21.558  0.00  0.00    +0.000 A 
ATOM     21  C   UNL     1       3.543   3.092  20.470  0.00  0.00    +0.000 A 
BRANCH  19  22
ATOM     22  N   UNL     1       0.732   2.169  22.626  0.00  0.00    +0.000 N 
ATOM     23  H   UNL     1       1.232   2.300  23.499  0.00  0.00    +0.000 HD
ATOM     24  H   UNL     1       0.490   1.195  22.466  0.00  0.00    +0.000 HD
ENDBRANCH  19  22
ENDBRANCH   5  16
TORSDOF 2
ENDMDL
MODEL 9
REMARK VINA RESULT:      -7.2      2.922      5.581
REMARK  Name = 
REMARK  3 active torsions:
REMARK  status: ('A' for Active; 'I' for Inactive)
REMARK    1  A    between atoms: C_1  and  C_2
REMARK    2  A    between atoms: C_5  and  C_6
REMARK    3  A    between atoms: C_9  and  N_10
REMARK                            x       y       z     vdW  Elec       q    Type
REMARK                         _______ _______ _______ _____ _____    ______ ____
ROOT
ATOM      1  C   UNL     1       1.625   1.660  19.009  0.00  0.00    +0.000 C 
ATOM      2  C   UNL     1       1.951   2.995  18.363  0.00  0.00    +0.000 C 
ATOM      3  N   UNL     1       1.474   3.981  19.030  0.00  0.00    +0.000 NA
ATOM      4  N   UNL     1       1.436   5.132  18.315  0.00  0.00    +0.000 NA
ATOM      5  C   UNL     1       2.544   5.804  18.233  0.00  0.00    +0.000 C 
ATOM      6  C   UNL     1       3.847   5.384  17.642  0.00  0.00    +0.000 A 
ATOM      7  C   UNL     1       4.927   6.268  17.439  0.00  0.00    +0.000 A 
ATOM      8  C   UNL     1       6.002   5.858  16.663  0.00  0.00    +0.000 A 
ATOM      9  C   UNL     1       6.040   4.622  16.083  0.00  0.00    +0.000 A 
ATOM     10  C   UNL     1       5.015   3.736  16.262  0.00  0.00    +0.000 A 
ATOM     11  C   UNL     1       3.899   4.126  17.050  0.00  0.00    +0.000 A 
ATOM     12  C   UNL     1       2.670   3.263  17.038  0.00  0.00    +0.000 C 
ATOM     13  O   UNL     1       7.125   4.430  15.292  0.00  0.00    +0.000 OA
ATOM     14  C   UNL     1       7.858   5.636  15.570  0.00  0.00    +0.000 C 
ATOM     15  O   UNL     1       7.088   6.606  16.319  0.00  0.00    +0.000 OA
ENDROOT
BRANCH   5  16
ATOM     16  C   UNL     1       2.355   7.131  18.753  0.00  0.00    +0.000 A 
ATOM     17  C   UNL     1       2.072   7.256  20.105  0.00  0.00    +0.000 A 
ATOM     18  C   UNL     1       1.579   8.465  20.537  0.00  0.00    +0.000 A 
ATOM     19  C   UNL     1       1.264   9.466  19.606  0.00  0.00    +0.000 A 
ATOM     20  C   UNL     1       1.569   9.311  18.249  0.00  0.00    +0.000 A 
ATOM     21  C   UNL     1       2.105   8.127  17.811  0.00  0.00    +0.000 A 
BRANCH  19  22
ATOM     22  N   UNL     1       0.787  10.699  20.057  0.00  0.00    +0.000 N 
ATOM     23  H   UNL     1       0.095  11.084  19.423  0.00  0.00    +0.000 HD
ATOM     24  H   UNL     1       1.551  11.348  20.231  0.00  0.00    +0.000 HD
ENDBRANCH  19  22
ENDBRANCH   5  16
TORSDOF 2
ENDMDL
