MODEL 1
REMARK VINA RESULT:      -7.6      0.000      0.000
REMARK  Name = 
REMARK  13 active torsions:
REMARK  status: ('A' for Active; 'I' for Inactive)
REMARK    1  A    between atoms: C_1  and  O_2
REMARK    2  A    between atoms: O_2  and  C_3
REMARK    3  A    between atoms: C_5  and  O_6
REMARK    4  A    between atoms: O_6  and  C_7
REMARK    5  A    between atoms: C_8  and  C_9
REMARK    6  A    between atoms: C_14  and  N_15
REMARK    7  A    between atoms: C_16  and  C_18
REMARK    8  A    between atoms: C_18  and  N_19
REMARK    9  A    between atoms: C_18  and  C_20
REMARK   10  A    between atoms: C_20  and  C_21
REMARK   11  A    between atoms: C_21  and  C_22
REMARK   12  A    between atoms: C_22  and  C_23
REMARK   13  A    between atoms: C_23  and  N_24
REMARK                            x       y       z     vdW  Elec       q    Type
REMARK                         _______ _______ _______ _____ _____    ______ ____
ROOT
ATOM      1  C   UNL     1       1.054   8.985  19.617  0.00  0.00    +0.000 A 
ATOM      2  C   UNL     1       1.308   7.919  20.445  0.00  0.00    +0.000 A 
ATOM      3  N   UNL     1       2.255   7.160  19.811  0.00  0.00    +0.000 N 
ATOM      4  C   UNL     1       2.807   5.962  20.209  0.00  0.00    +0.000 A 
ATOM      5  C   UNL     1       3.697   5.353  19.412  0.00  0.00    +0.000 A 
ATOM      6  C   UNL     1       4.079   5.962  18.132  0.00  0.00    +0.000 A 
ATOM      7  C   UNL     1       3.531   7.154  17.771  0.00  0.00    +0.000 A 
ATOM      8  C   UNL     1       2.574   7.802  18.623  0.00  0.00    +0.000 A 
ATOM      9  N   UNL     1       1.877   8.910  18.492  0.00  0.00    +0.000 NA
ENDROOT
BRANCH   1  13
ATOM     10  C   UNL     1      -1.996  11.998  19.916  0.00  0.00    +0.000 A 
ATOM     11  C   UNL     1      -1.222  11.691  21.044  0.00  0.00    +0.000 A 
ATOM     12  C   UNL     1      -0.202  10.723  21.012  0.00  0.00    +0.000 A 
ATOM     13  C   UNL     1       0.061  10.045  19.801  0.00  0.00    +0.000 A 
ATOM     14  C   UNL     1      -0.708  10.378  18.670  0.00  0.00    +0.000 A 
ATOM     15  C   UNL     1      -1.716  11.348  18.714  0.00  0.00    +0.000 A 
ATOM     16 CL   UNL     1      -2.479  11.705  17.204  0.00  0.00    +0.000 Cl
BRANCH  10  18
ATOM     17  C   UNL     1      -4.107  12.643  20.808  0.00  0.00    +0.000 C 
ATOM     18  O   UNL     1      -2.899  13.002  20.149  0.00  0.00    +0.000 OA
ENDBRANCH  10  18
BRANCH  12  19
ATOM     19  O   UNL     1       0.572  10.456  22.112  0.00  0.00    +0.000 OA
ATOM     20  C   UNL     1      -0.039   9.759  23.194  0.00  0.00    +0.000 C 
ENDBRANCH  12  19
ENDBRANCH   1  13
BRANCH   6  21
ATOM     21  N   UNL     1       4.978   5.316  17.290  0.00  0.00    +0.000 N 
ATOM     22  C   UNL     1       6.065   5.874  16.623  0.00  0.00    +0.000 C 
ATOM     23  O   UNL     1       6.382   7.061  16.613  0.00  0.00    +0.000 OA
ATOM     24  H   UNL     1       4.816   4.323  17.147  0.00  0.00    +0.000 HD
BRANCH  22  25
ATOM     25  C   UNL     1       6.912   4.863  15.815  0.00  0.00    +0.000 C 
BRANCH  25  26
ATOM     26  N   UNL     1       7.814   4.169  16.762  0.00  0.00    +0.000 NA
ATOM     27  H   UNL     1       7.742   3.165  16.570  0.00  0.00    +0.000 HD
ATOM     28  H   UNL     1       7.453   4.268  17.710  0.00  0.00    +0.000 HD
ENDBRANCH  25  26
BRANCH  25  29
ATOM     29  C   UNL     1       5.996   3.812  15.168  0.00  0.00    +0.000 C 
BRANCH  29  30
ATOM     30  C   UNL     1       5.529   4.213  13.765  0.00  0.00    +0.000 C 
BRANCH  30  31
ATOM     31  C   UNL     1       6.411   3.575  12.689  0.00  0.00    +0.000 C 
BRANCH  31  32
ATOM     32  C   UNL     1       5.596   2.658  11.780  0.00  0.00    +0.000 C 
BRANCH  32  33
ATOM     33  N   UNL     1       4.279   3.229  11.534  0.00  0.00    +0.000 NA
ATOM     34  H   UNL     1       3.904   3.618  12.397  0.00  0.00    +0.000 HD
ATOM     35  H   UNL     1       3.636   2.490  11.249  0.00  0.00    +0.000 HD
ENDBRANCH  32  33
ENDBRANCH  31  32
ENDBRANCH  30  31
ENDBRANCH  29  30
ENDBRANCH  25  29
ENDBRANCH  22  25
ENDBRANCH   6  21
TORSDOF 11
ENDMDL
MODEL 2
REMARK VINA RESULT:      -7.2      3.636     10.464
REMARK  Name = 
REMARK  13 active torsions:
REMARK  status: ('A' for Active; 'I' for Inactive)
REMARK    1  A    between atoms: C_1  and  O_2
REMARK    2  A    between atoms: O_2  and  C_3
REMARK    3  A    between atoms: C_5  and  O_6
REMARK    4  A    between atoms: O_6  and  C_7
REMARK    5  A    between atoms: C_8  and  C_9
REMARK    6  A    between atoms: C_14  and  N_15
REMARK    7  A    between atoms: C_16  and  C_18
REMARK    8  A    between atoms: C_18  and  N_19
REMARK    9  A    between atoms: C_18  and  C_20
REMARK   10  A    between atoms: C_20  and  C_21
REMARK   11  A    between atoms: C_21  and  C_22
REMARK   12  A    between atoms: C_22  and  C_23
REMARK   13  A    between atoms: C_23  and  N_24
REMARK                            x       y       z     vdW  Elec       q    Type
REMARK                         _______ _______ _______ _____ _____    ______ ____
ROOT
ATOM      1  C   UNL     1       2.616   7.062  18.793  0.00  0.00    +0.000 A 
ATOM      2  C   UNL     1       2.250   6.970  20.115  0.00  0.00    +0.000 A 
ATOM      3  N   UNL     1       1.527   8.099  20.390  0.00  0.00    +0.000 N 
ATOM      4  C   UNL     1       0.979   8.500  21.589  0.00  0.00    +0.000 A 
ATOM      5  C   UNL     1       0.339   9.677  21.657  0.00  0.00    +0.000 A 
ATOM      6  C   UNL     1       0.221  10.522  20.463  0.00  0.00    +0.000 A 
ATOM      7  C   UNL     1       0.757  10.094  19.287  0.00  0.00    +0.000 A 
ATOM      8  C   UNL     1       1.448   8.838  19.218  0.00  0.00    +0.000 A 
ATOM      9  N   UNL     1       2.081   8.225  18.240  0.00  0.00    +0.000 NA
ENDROOT
BRANCH   1  13
ATOM     10  C   UNL     1       5.348   4.507  16.677  0.00  0.00    +0.000 A 
ATOM     11  C   UNL     1       4.019   4.094  16.854  0.00  0.00    +0.000 A 
ATOM     12  C   UNL     1       3.072   4.885  17.529  0.00  0.00    +0.000 A 
ATOM     13  C   UNL     1       3.467   6.144  18.034  0.00  0.00    +0.000 A 
ATOM     14  C   UNL     1       4.797   6.557  17.830  0.00  0.00    +0.000 A 
ATOM     15  C   UNL     1       5.729   5.762  17.152  0.00  0.00    +0.000 A 
ATOM     16 CL   UNL     1       7.281   6.479  16.898  0.00  0.00    +0.000 Cl
BRANCH  10  18
ATOM     17  C   UNL     1       6.262   3.888  14.568  0.00  0.00    +0.000 C 
ATOM     18  O   UNL     1       6.090   3.612  15.953  0.00  0.00    +0.000 OA
ENDBRANCH  10  18
BRANCH  12  19
ATOM     19  O   UNL     1       1.767   4.487  17.664  0.00  0.00    +0.000 OA
ATOM     20  C   UNL     1       1.509   3.342  18.473  0.00  0.00    +0.000 C 
ENDBRANCH  12  19
ENDBRANCH   1  13
BRANCH   6  21
ATOM     21  N   UNL     1      -0.414  11.757  20.539  0.00  0.00    +0.000 N 
ATOM     22  C   UNL     1       0.106  12.949  21.035  0.00  0.00    +0.000 C 
ATOM     23  O   UNL     1       1.208  13.100  21.558  0.00  0.00    +0.000 OA
ATOM     24  H   UNL     1      -1.369  11.785  20.192  0.00  0.00    +0.000 HD
BRANCH  22  25
ATOM     25  C   UNL     1      -0.841  14.165  20.911  0.00  0.00    +0.000 C 
BRANCH  25  26
ATOM     26  N   UNL     1      -1.297  14.243  19.505  0.00  0.00    +0.000 NA
ATOM     27  H   UNL     1      -2.322  14.264  19.520  0.00  0.00    +0.000 HD
ATOM     28  H   UNL     1      -1.073  13.372  19.027  0.00  0.00    +0.000 HD
ENDBRANCH  25  26
BRANCH  25  29
ATOM     29  C   UNL     1      -2.074  13.961  21.806  0.00  0.00    +0.000 C 
BRANCH  29  30
ATOM     30  C   UNL     1      -1.725  13.897  23.296  0.00  0.00    +0.000 C 
BRANCH  30  31
ATOM     31  C   UNL     1      -2.983  13.707  24.148  0.00  0.00    +0.000 C 
BRANCH  31  32
ATOM     32  C   UNL     1      -3.894  12.633  23.555  0.00  0.00    +0.000 C 
BRANCH  32  33
ATOM     33  N   UNL     1      -4.625  11.949  24.613  0.00  0.00    +0.000 NA
ATOM     34  H   UNL     1      -5.604  11.851  24.348  0.00  0.00    +0.000 HD
ATOM     35  H   UNL     1      -4.611  12.518  25.459  0.00  0.00    +0.000 HD
ENDBRANCH  32  33
ENDBRANCH  31  32
ENDBRANCH  30  31
ENDBRANCH  29  30
ENDBRANCH  25  29
ENDBRANCH  22  25
ENDBRANCH   6  21
TORSDOF 11
ENDMDL
MODEL 3
REMARK VINA RESULT:      -7.2      1.111      1.202
REMARK  Name = 
REMARK  13 active torsions:
REMARK  status: ('A' for Active; 'I' for Inactive)
REMARK    1  A    between atoms: C_1  and  O_2
REMARK    2  A    between atoms: O_2  and  C_3
REMARK    3  A    between atoms: C_5  and  O_6
REMARK    4  A    between atoms: O_6  and  C_7
REMARK    5  A    between atoms: C_8  and  C_9
REMARK    6  A    between atoms: C_14  and  N_15
REMARK    7  A    between atoms: C_16  and  C_18
REMARK    8  A    between atoms: C_18  and  N_19
REMARK    9  A    between atoms: C_18  and  C_20
REMARK   10  A    between atoms: C_20  and  C_21
REMARK   11  A    between atoms: C_21  and  C_22
REMARK   12  A    between atoms: C_22  and  C_23
REMARK   13  A    between atoms: C_23  and  N_24
REMARK                            x       y       z     vdW  Elec       q    Type
REMARK                         _______ _______ _______ _____ _____    ______ ____
ROOT
ATOM      1  C   UNL     1       0.865   9.210  19.123  0.00  0.00    +0.000 A 
ATOM      2  C   UNL     1       1.144   8.231  20.047  0.00  0.00    +0.000 A 
ATOM      3  N   UNL     1       2.164   7.487  19.517  0.00  0.00    +0.000 N 
ATOM      4  C   UNL     1       2.769   6.362  20.034  0.00  0.00    +0.000 A 
ATOM      5  C   UNL     1       3.729   5.750  19.326  0.00  0.00    +0.000 A 
ATOM      6  C   UNL     1       4.132   6.279  18.018  0.00  0.00    +0.000 A 
ATOM      7  C   UNL     1       3.530   7.401  17.537  0.00  0.00    +0.000 A 
ATOM      8  C   UNL     1       2.497   8.051  18.294  0.00  0.00    +0.000 A 
ATOM      9  N   UNL     1       1.741   9.099  18.044  0.00  0.00    +0.000 NA
ENDROOT
BRANCH   1  13
ATOM     10  C   UNL     1      -2.434  11.965  19.158  0.00  0.00    +0.000 A 
ATOM     11  C   UNL     1      -1.344  12.187  20.013  0.00  0.00    +0.000 A 
ATOM     12  C   UNL     1      -0.230  11.331  20.046  0.00  0.00    +0.000 A 
ATOM     13  C   UNL     1      -0.199  10.215  19.179  0.00  0.00    +0.000 A 
ATOM     14  C   UNL     1      -1.287  10.016  18.310  0.00  0.00    +0.000 A 
ATOM     15  C   UNL     1      -2.389  10.880  18.284  0.00  0.00    +0.000 A 
ATOM     16 CL   UNL     1      -3.577  10.542  17.075  0.00  0.00    +0.000 Cl
BRANCH  10  18
ATOM     17  C   UNL     1      -4.597  12.604  19.920  0.00  0.00    +0.000 C 
ATOM     18  O   UNL     1      -3.389  12.943  19.250  0.00  0.00    +0.000 OA
ENDBRANCH  10  18
BRANCH  12  19
ATOM     19  O   UNL     1       0.845  11.578  20.860  0.00  0.00    +0.000 OA
ATOM     20  C   UNL     1       1.588  12.772  20.624  0.00  0.00    +0.000 C 
ENDBRANCH  12  19
ENDBRANCH   1  13
BRANCH   6  21
ATOM     21  N   UNL     1       5.106   5.627  17.269  0.00  0.00    +0.000 N 
ATOM     22  C   UNL     1       6.432   6.010  17.084  0.00  0.00    +0.000 C 
ATOM     23  O   UNL     1       6.956   7.038  17.504  0.00  0.00    +0.000 OA
ATOM     24  H   UNL     1       4.809   4.773  16.803  0.00  0.00    +0.000 HD
BRANCH  22  25
ATOM     25  C   UNL     1       7.277   5.022  16.247  0.00  0.00    +0.000 C 
BRANCH  25  26
ATOM     26  N   UNL     1       7.963   4.105  17.185  0.00  0.00    +0.000 NA
ATOM     27  H   UNL     1       7.583   3.167  17.024  0.00  0.00    +0.000 HD
ATOM     28  H   UNL     1       7.686   4.326  18.140  0.00  0.00    +0.000 HD
ENDBRANCH  25  26
BRANCH  25  29
ATOM     29  C   UNL     1       6.358   4.185  15.342  0.00  0.00    +0.000 C 
BRANCH  29  30
ATOM     30  C   UNL     1       6.422   4.609  13.872  0.00  0.00    +0.000 C 
BRANCH  30  31
ATOM     31  C   UNL     1       5.615   3.655  12.988  0.00  0.00    +0.000 C 
BRANCH  31  32
ATOM     32  C   UNL     1       6.494   3.025  11.910  0.00  0.00    +0.000 C 
BRANCH  32  33
ATOM     33  N   UNL     1       5.974   1.718  11.532  0.00  0.00    +0.000 NA
ATOM     34  H   UNL     1       6.731   1.134  11.179  0.00  0.00    +0.000 HD
ATOM     35  H   UNL     1       5.312   1.825  10.763  0.00  0.00    +0.000 HD
ENDBRANCH  32  33
ENDBRANCH  31  32
ENDBRANCH  30  31
ENDBRANCH  29  30
ENDBRANCH  25  29
ENDBRANCH  22  25
ENDBRANCH   6  21
TORSDOF 11
ENDMDL
MODEL 4
REMARK VINA RESULT:      -7.1      1.559      2.161
REMARK  Name = 
REMARK  13 active torsions:
REMARK  status: ('A' for Active; 'I' for Inactive)
REMARK    1  A    between atoms: C_1  and  O_2
REMARK    2  A    between atoms: O_2  and  C_3
REMARK    3  A    between atoms: C_5  and  O_6
REMARK    4  A    between atoms: O_6  and  C_7
REMARK    5  A    between atoms: C_8  and  C_9
REMARK    6  A    between atoms: C_14  and  N_15
REMARK    7  A    between atoms: C_16  and  C_18
REMARK    8  A    between atoms: C_18  and  N_19
REMARK    9  A    between atoms: C_18  and  C_20
REMARK   10  A    between atoms: C_20  and  C_21
REMARK   11  A    between atoms: C_21  and  C_22
REMARK   12  A    between atoms: C_22  and  C_23
REMARK   13  A    between atoms: C_23  and  N_24
REMARK                            x       y       z     vdW  Elec       q    Type
REMARK                         _______ _______ _______ _____ _____    ______ ____
ROOT
ATOM      1  C   UNL     1       1.032   9.172  19.325  0.00  0.00    +0.000 A 
ATOM      2  C   UNL     1       1.299   8.088  20.126  0.00  0.00    +0.000 A 
ATOM      3  N   UNL     1       2.289   7.382  19.496  0.00  0.00    +0.000 N 
ATOM      4  C   UNL     1       2.870   6.191  19.871  0.00  0.00    +0.000 A 
ATOM      5  C   UNL     1       3.802   5.639  19.081  0.00  0.00    +0.000 A 
ATOM      6  C   UNL     1       4.200   6.302  17.834  0.00  0.00    +0.000 A 
ATOM      7  C   UNL     1       3.622   7.487  17.495  0.00  0.00    +0.000 A 
ATOM      8  C   UNL     1       2.619   8.074  18.339  0.00  0.00    +0.000 A 
ATOM      9  N   UNL     1       1.888   9.163  18.224  0.00  0.00    +0.000 NA
ENDROOT
BRANCH   1  13
ATOM     10  C   UNL     1      -1.822  12.298  20.071  0.00  0.00    +0.000 A 
ATOM     11  C   UNL     1      -1.952  11.511  18.917  0.00  0.00    +0.000 A 
ATOM     12  C   UNL     1      -1.058  10.467  18.618  0.00  0.00    +0.000 A 
ATOM     13  C   UNL     1      -0.001  10.192  19.514  0.00  0.00    +0.000 A 
ATOM     14  C   UNL     1       0.105  10.974  20.680  0.00  0.00    +0.000 A 
ATOM     15  C   UNL     1      -0.795  12.007  20.969  0.00  0.00    +0.000 A 
ATOM     16 CL   UNL     1      -0.576  12.785  22.497  0.00  0.00    +0.000 Cl
BRANCH  10  18
ATOM     17  C   UNL     1      -4.148  12.729  20.332  0.00  0.00    +0.000 C 
ATOM     18  O   UNL     1      -2.823  13.226  20.196  0.00  0.00    +0.000 OA
ENDBRANCH  10  18
BRANCH  12  19
ATOM     19  O   UNL     1      -1.216   9.681  17.506  0.00  0.00    +0.000 OA
ATOM     20  C   UNL     1      -2.207  10.072  16.559  0.00  0.00    +0.000 C 
ENDBRANCH  12  19
ENDBRANCH   1  13
BRANCH   6  21
ATOM     21  N   UNL     1       5.143   5.715  16.998  0.00  0.00    +0.000 N 
ATOM     22  C   UNL     1       6.393   6.217  16.645  0.00  0.00    +0.000 C 
ATOM     23  O   UNL     1       6.853   7.311  16.964  0.00  0.00    +0.000 OA
ATOM     24  H   UNL     1       4.885   4.816  16.601  0.00  0.00    +0.000 HD
BRANCH  22  25
ATOM     25  C   UNL     1       7.234   5.279  15.748  0.00  0.00    +0.000 C 
BRANCH  25  26
ATOM     26  N   UNL     1       7.539   4.059  16.529  0.00  0.00    +0.000 NA
ATOM     27  H   UNL     1       7.033   3.284  16.089  0.00  0.00    +0.000 HD
ATOM     28  H   UNL     1       7.121   4.135  17.455  0.00  0.00    +0.000 HD
ENDBRANCH  25  26
BRANCH  25  29
ATOM     29  C   UNL     1       6.417   4.867  14.512  0.00  0.00    +0.000 C 
BRANCH  29  30
ATOM     30  C   UNL     1       7.259   4.813  13.234  0.00  0.00    +0.000 C 
BRANCH  30  31
ATOM     31  C   UNL     1       6.663   3.828  12.224  0.00  0.00    +0.000 C 
BRANCH  31  32
ATOM     32  C   UNL     1       5.292   3.333  12.680  0.00  0.00    +0.000 C 
BRANCH  32  33
ATOM     33  N   UNL     1       4.369   3.287  11.553  0.00  0.00    +0.000 NA
ATOM     34  H   UNL     1       4.433   2.380  11.093  0.00  0.00    +0.000 HD
ATOM     35  H   UNL     1       4.644   3.982  10.860  0.00  0.00    +0.000 HD
ENDBRANCH  32  33
ENDBRANCH  31  32
ENDBRANCH  30  31
ENDBRANCH  29  30
ENDBRANCH  25  29
ENDBRANCH  22  25
ENDBRANCH   6  21
TORSDOF 11
ENDMDL
MODEL 5
REMARK VINA RESULT:      -7.1      1.888      2.263
REMARK  Name = 
REMARK  13 active torsions:
REMARK  status: ('A' for Active; 'I' for Inactive)
REMARK    1  A    between atoms: C_1  and  O_2
REMARK    2  A    between atoms: O_2  and  C_3
REMARK    3  A    between atoms: C_5  and  O_6
REMARK    4  A    between atoms: O_6  and  C_7
REMARK    5  A    between atoms: C_8  and  C_9
REMARK    6  A    between atoms: C_14  and  N_15
REMARK    7  A    between atoms: C_16  and  C_18
REMARK    8  A    between atoms: C_18  and  N_19
REMARK    9  A    between atoms: C_18  and  C_20
REMARK   10  A    between atoms: C_20  and  C_21
REMARK   11  A    between atoms: C_21  and  C_22
REMARK   12  A    between atoms: C_22  and  C_23
REMARK   13  A    between atoms: C_23  and  N_24
REMARK                            x       y       z     vdW  Elec       q    Type
REMARK                         _______ _______ _______ _____ _____    ______ ____
ROOT
ATOM      1  C   UNL     1       1.218   9.480  19.375  0.00  0.00    +0.000 A 
ATOM      2  C   UNL     1       1.347   8.357  20.156  0.00  0.00    +0.000 A 
ATOM      3  N   UNL     1       2.175   7.509  19.471  0.00  0.00    +0.000 N 
ATOM      4  C   UNL     1       2.575   6.235  19.809  0.00  0.00    +0.000 A 
ATOM      5  C   UNL     1       3.363   5.549  18.968  0.00  0.00    +0.000 A 
ATOM      6  C   UNL     1       3.796   6.156  17.704  0.00  0.00    +0.000 A 
ATOM      7  C   UNL     1       3.400   7.423  17.401  0.00  0.00    +0.000 A 
ATOM      8  C   UNL     1       2.551   8.152  18.301  0.00  0.00    +0.000 A 
ATOM      9  N   UNL     1       2.001   9.346  18.229  0.00  0.00    +0.000 NA
ENDROOT
BRANCH   1  13
ATOM     10  C   UNL     1      -1.014  13.071  20.151  0.00  0.00    +0.000 A 
ATOM     11  C   UNL     1      -1.635  12.007  19.480  0.00  0.00    +0.000 A 
ATOM     12  C   UNL     1      -0.966  10.803  19.203  0.00  0.00    +0.000 A 
ATOM     13  C   UNL     1       0.374  10.650  19.624  0.00  0.00    +0.000 A 
ATOM     14  C   UNL     1       0.979  11.716  20.317  0.00  0.00    +0.000 A 
ATOM     15  C   UNL     1       0.299  12.908  20.592  0.00  0.00    +0.000 A 
ATOM     16 CL   UNL     1       1.164  14.060  21.549  0.00  0.00    +0.000 Cl
BRANCH  10  18
ATOM     17  C   UNL     1      -3.212  13.826  20.664  0.00  0.00    +0.000 C 
ATOM     18  O   UNL     1      -1.856  14.130  20.363  0.00  0.00    +0.000 OA
ENDBRANCH  10  18
BRANCH  12  19
ATOM     19  O   UNL     1      -1.595   9.756  18.578  0.00  0.00    +0.000 OA
ATOM     20  C   UNL     1      -1.980   9.938  17.217  0.00  0.00    +0.000 C 
ENDBRANCH  12  19
ENDBRANCH   1  13
BRANCH   6  21
ATOM     21  N   UNL     1       4.587   5.435  16.815  0.00  0.00    +0.000 N 
ATOM     22  C   UNL     1       5.953   5.181  16.909  0.00  0.00    +0.000 C 
ATOM     23  O   UNL     1       6.715   5.613  17.771  0.00  0.00    +0.000 OA
ATOM     24  H   UNL     1       4.107   5.052  16.005  0.00  0.00    +0.000 HD
BRANCH  22  25
ATOM     25  C   UNL     1       6.519   4.282  15.787  0.00  0.00    +0.000 C 
BRANCH  25  26
ATOM     26  N   UNL     1       5.796   2.990  15.833  0.00  0.00    +0.000 NA
ATOM     27  H   UNL     1       6.255   2.412  16.543  0.00  0.00    +0.000 HD
ATOM     28  H   UNL     1       5.950   2.484  14.962  0.00  0.00    +0.000 HD
ENDBRANCH  25  26
BRANCH  25  29
ATOM     29  C   UNL     1       6.259   4.929  14.417  0.00  0.00    +0.000 C 
BRANCH  29  30
ATOM     30  C   UNL     1       5.526   3.997  13.448  0.00  0.00    +0.000 C 
BRANCH  30  31
ATOM     31  C   UNL     1       6.460   3.515  12.335  0.00  0.00    +0.000 C 
BRANCH  31  32
ATOM     32  C   UNL     1       5.948   2.222  11.705  0.00  0.00    +0.000 C 
BRANCH  32  33
ATOM     33  N   UNL     1       7.061   1.427  11.202  0.00  0.00    +0.000 NA
ATOM     34  H   UNL     1       7.724   2.030  10.717  0.00  0.00    +0.000 HD
ATOM     35  H   UNL     1       6.717   0.762  10.509  0.00  0.00    +0.000 HD
ENDBRANCH  32  33
ENDBRANCH  31  32
ENDBRANCH  30  31
ENDBRANCH  29  30
ENDBRANCH  25  29
ENDBRANCH  22  25
ENDBRANCH   6  21
TORSDOF 11
ENDMDL
MODEL 6
REMARK VINA RESULT:      -7.1      1.803      2.305
REMARK  Name = 
REMARK  13 active torsions:
REMARK  status: ('A' for Active; 'I' for Inactive)
REMARK    1  A    between atoms: C_1  and  O_2
REMARK    2  A    between atoms: O_2  and  C_3
REMARK    3  A    between atoms: C_5  and  O_6
REMARK    4  A    between atoms: O_6  and  C_7
REMARK    5  A    between atoms: C_8  and  C_9
REMARK    6  A    between atoms: C_14  and  N_15
REMARK    7  A    between atoms: C_16  and  C_18
REMARK    8  A    between atoms: C_18  and  N_19
REMARK    9  A    between atoms: C_18  and  C_20
REMARK   10  A    between atoms: C_20  and  C_21
REMARK   11  A    between atoms: C_21  and  C_22
REMARK   12  A    between atoms: C_22  and  C_23
REMARK   13  A    between atoms: C_23  and  N_24
REMARK                            x       y       z     vdW  Elec       q    Type
REMARK                         _______ _______ _______ _____ _____    ______ ____
ROOT
ATOM      1  C   UNL     1       0.635   9.575  19.654  0.00  0.00    +0.000 A 
ATOM      2  C   UNL     1       0.840   8.417  20.364  0.00  0.00    +0.000 A 
ATOM      3  N   UNL     1       1.840   7.743  19.714  0.00  0.00    +0.000 N 
ATOM      4  C   UNL     1       2.375   6.507  20.004  0.00  0.00    +0.000 A 
ATOM      5  C   UNL     1       3.328   6.002  19.206  0.00  0.00    +0.000 A 
ATOM      6  C   UNL     1       3.795   6.763  18.042  0.00  0.00    +0.000 A 
ATOM      7  C   UNL     1       3.261   7.989  17.788  0.00  0.00    +0.000 A 
ATOM      8  C   UNL     1       2.237   8.525  18.639  0.00  0.00    +0.000 A 
ATOM      9  N   UNL     1       1.538   9.640  18.593  0.00  0.00    +0.000 NA
ENDROOT
BRANCH   1  13
ATOM     10  C   UNL     1      -2.177  12.695  20.565  0.00  0.00    +0.000 A 
ATOM     11  C   UNL     1      -2.255  12.040  19.327  0.00  0.00    +0.000 A 
ATOM     12  C   UNL     1      -1.373  11.006  18.970  0.00  0.00    +0.000 A 
ATOM     13  C   UNL     1      -0.381  10.602  19.891  0.00  0.00    +0.000 A 
ATOM     14  C   UNL     1      -0.328  11.251  21.139  0.00  0.00    +0.000 A 
ATOM     15  C   UNL     1      -1.216  12.276  21.485  0.00  0.00    +0.000 A 
ATOM     16 CL   UNL     1      -1.073  12.878  23.099  0.00  0.00    +0.000 Cl
BRANCH  10  18
ATOM     17  C   UNL     1      -2.745  14.995  20.796  0.00  0.00    +0.000 C 
ATOM     18  O   UNL     1      -3.159  13.636  20.732  0.00  0.00    +0.000 OA
ENDBRANCH  10  18
BRANCH  12  19
ATOM     19  O   UNL     1      -1.482  10.349  17.771  0.00  0.00    +0.000 OA
ATOM     20  C   UNL     1      -2.747   9.776  17.447  0.00  0.00    +0.000 C 
ENDBRANCH  12  19
ENDBRANCH   1  13
BRANCH   6  21
ATOM     21  N   UNL     1       4.760   6.227  17.196  0.00  0.00    +0.000 N 
ATOM     22  C   UNL     1       5.774   5.331  17.526  0.00  0.00    +0.000 C 
ATOM     23  O   UNL     1       6.032   4.907  18.650  0.00  0.00    +0.000 OA
ATOM     24  H   UNL     1       4.716   6.528  16.226  0.00  0.00    +0.000 HD
BRANCH  22  25
ATOM     25  C   UNL     1       6.641   4.872  16.331  0.00  0.00    +0.000 C 
BRANCH  25  26
ATOM     26  N   UNL     1       7.876   4.263  16.876  0.00  0.00    +0.000 NA
ATOM     27  H   UNL     1       8.665   4.667  16.362  0.00  0.00    +0.000 HD
ATOM     28  H   UNL     1       7.902   3.274  16.633  0.00  0.00    +0.000 HD
ENDBRANCH  25  26
BRANCH  25  29
ATOM     29  C   UNL     1       5.893   3.801  15.523  0.00  0.00    +0.000 C 
BRANCH  29  30
ATOM     30  C   UNL     1       5.432   4.304  14.151  0.00  0.00    +0.000 C 
BRANCH  30  31
ATOM     31  C   UNL     1       6.289   3.708  13.031  0.00  0.00    +0.000 C 
BRANCH  31  32
ATOM     32  C   UNL     1       5.421   3.016  11.981  0.00  0.00    +0.000 C 
BRANCH  32  33
ATOM     33  N   UNL     1       6.001   1.733  11.609  0.00  0.00    +0.000 NA
ATOM     34  H   UNL     1       5.260   1.071  11.384  0.00  0.00    +0.000 HD
ATOM     35  H   UNL     1       6.502   1.342  12.407  0.00  0.00    +0.000 HD
ENDBRANCH  32  33
ENDBRANCH  31  32
ENDBRANCH  30  31
ENDBRANCH  29  30
ENDBRANCH  25  29
ENDBRANCH  22  25
ENDBRANCH   6  21
TORSDOF 11
ENDMDL
MODEL 7
REMARK VINA RESULT:      -7.1      3.614     10.596
REMARK  Name = 
REMARK  13 active torsions:
REMARK  status: ('A' for Active; 'I' for Inactive)
REMARK    1  A    between atoms: C_1  and  O_2
REMARK    2  A    between atoms: O_2  and  C_3
REMARK    3  A    between atoms: C_5  and  O_6
REMARK    4  A    between atoms: O_6  and  C_7
REMARK    5  A    between atoms: C_8  and  C_9
REMARK    6  A    between atoms: C_14  and  N_15
REMARK    7  A    between atoms: C_16  and  C_18
REMARK    8  A    between atoms: C_18  and  N_19
REMARK    9  A    between atoms: C_18  and  C_20
REMARK   10  A    between atoms: C_20  and  C_21
REMARK   11  A    between atoms: C_21  and  C_22
REMARK   12  A    between atoms: C_22  and  C_23
REMARK   13  A    between atoms: C_23  and  N_24
REMARK                            x       y       z     vdW  Elec       q    Type
REMARK                         _______ _______ _______ _____ _____    ______ ____
ROOT
ATOM      1  C   UNL     1       2.597   7.143  18.775  0.00  0.00    +0.000 A 
ATOM      2  C   UNL     1       2.130   7.030  20.062  0.00  0.00    +0.000 A 
ATOM      3  N   UNL     1       1.506   8.215  20.348  0.00  0.00    +0.000 N 
ATOM      4  C   UNL     1       0.917   8.616  21.527  0.00  0.00    +0.000 A 
ATOM      5  C   UNL     1       0.396   9.849  21.613  0.00  0.00    +0.000 A 
ATOM      6  C   UNL     1       0.450  10.755  20.460  0.00  0.00    +0.000 A 
ATOM      7  C   UNL     1       1.023  10.327  19.301  0.00  0.00    +0.000 A 
ATOM      8  C   UNL     1       1.587   9.010  19.213  0.00  0.00    +0.000 A 
ATOM      9  N   UNL     1       2.223   8.380  18.249  0.00  0.00    +0.000 NA
ENDROOT
BRANCH   1  13
ATOM     10  C   UNL     1       5.205   4.437  16.690  0.00  0.00    +0.000 A 
ATOM     11  C   UNL     1       3.860   4.087  16.878  0.00  0.00    +0.000 A 
ATOM     12  C   UNL     1       2.952   4.929  17.543  0.00  0.00    +0.000 A 
ATOM     13  C   UNL     1       3.404   6.177  18.027  0.00  0.00    +0.000 A 
ATOM     14  C   UNL     1       4.750   6.527  17.813  0.00  0.00    +0.000 A 
ATOM     15  C   UNL     1       5.643   5.681  17.144  0.00  0.00    +0.000 A 
ATOM     16 CL   UNL     1       7.225   6.324  16.874  0.00  0.00    +0.000 Cl
BRANCH  10  18
ATOM     17  C   UNL     1       6.236   3.826  14.633  0.00  0.00    +0.000 C 
ATOM     18  O   UNL     1       5.904   3.499  15.977  0.00  0.00    +0.000 OA
ENDBRANCH  10  18
BRANCH  12  19
ATOM     19  O   UNL     1       1.630   4.592  17.688  0.00  0.00    +0.000 OA
ATOM     20  C   UNL     1       1.329   3.434  18.464  0.00  0.00    +0.000 C 
ENDBRANCH  12  19
ENDBRANCH   1  13
BRANCH   6  21
ATOM     21  N   UNL     1      -0.062  12.044  20.558  0.00  0.00    +0.000 N 
ATOM     22  C   UNL     1      -1.376  12.454  20.347  0.00  0.00    +0.000 C 
ATOM     23  O   UNL     1      -2.306  11.745  19.968  0.00  0.00    +0.000 OA
ATOM     24  H   UNL     1       0.606  12.768  20.812  0.00  0.00    +0.000 HD
BRANCH  22  25
ATOM     25  C   UNL     1      -1.632  13.956  20.607  0.00  0.00    +0.000 C 
BRANCH  25  26
ATOM     26  N   UNL     1      -1.319  14.692  19.361  0.00  0.00    +0.000 NA
ATOM     27  H   UNL     1      -1.913  14.303  18.623  0.00  0.00    +0.000 HD
ATOM     28  H   UNL     1      -0.371  14.468  19.063  0.00  0.00    +0.000 HD
ENDBRANCH  25  26
BRANCH  25  29
ATOM     29  C   UNL     1      -3.115  14.183  20.940  0.00  0.00    +0.000 C 
BRANCH  29  30
ATOM     30  C   UNL     1      -3.373  14.327  22.443  0.00  0.00    +0.000 C 
BRANCH  30  31
ATOM     31  C   UNL     1      -4.391  13.292  22.928  0.00  0.00    +0.000 C 
BRANCH  31  32
ATOM     32  C   UNL     1      -3.808  12.424  24.041  0.00  0.00    +0.000 C 
BRANCH  32  33
ATOM     33  N   UNL     1      -4.840  12.084  25.012  0.00  0.00    +0.000 NA
ATOM     34  H   UNL     1      -4.902  11.072  25.110  0.00  0.00    +0.000 HD
ATOM     35  H   UNL     1      -5.747  12.397  24.668  0.00  0.00    +0.000 HD
ENDBRANCH  32  33
ENDBRANCH  31  32
ENDBRANCH  30  31
ENDBRANCH  29  30
ENDBRANCH  25  29
ENDBRANCH  22  25
ENDBRANCH   6  21
TORSDOF 11
ENDMDL
MODEL 8
REMARK VINA RESULT:      -7.1      3.415      5.043
REMARK  Name = 
REMARK  13 active torsions:
REMARK  status: ('A' for Active; 'I' for Inactive)
REMARK    1  A    between atoms: C_1  and  O_2
REMARK    2  A    between atoms: O_2  and  C_3
REMARK    3  A    between atoms: C_5  and  O_6
REMARK    4  A    between atoms: O_6  and  C_7
REMARK    5  A    between atoms: C_8  and  C_9
REMARK    6  A    between atoms: C_14  and  N_15
REMARK    7  A    between atoms: C_16  and  C_18
REMARK    8  A    between atoms: C_18  and  N_19
REMARK    9  A    between atoms: C_18  and  C_20
REMARK   10  A    between atoms: C_20  and  C_21
REMARK   11  A    between atoms: C_21  and  C_22
REMARK   12  A    between atoms: C_22  and  C_23
REMARK   13  A    between atoms: C_23  and  N_24
REMARK                            x       y       z     vdW  Elec       q    Type
REMARK                         _______ _______ _______ _____ _____    ______ ____
ROOT
ATOM      1  C   UNL     1      -0.581  11.335  21.800  0.00  0.00    +0.000 A 
ATOM      2  C   UNL     1      -0.473  11.348  20.430  0.00  0.00    +0.000 A 
ATOM      3  N   UNL     1       0.281  10.254  20.096  0.00  0.00    +0.000 N 
ATOM      4  C   UNL     1       0.711   9.852  18.851  0.00  0.00    +0.000 A 
ATOM      5  C   UNL     1       1.487   8.763  18.745  0.00  0.00    +0.000 A 
ATOM      6  C   UNL     1       1.865   8.008  19.945  0.00  0.00    +0.000 A 
ATOM      7  C   UNL     1       1.412   8.417  21.162  0.00  0.00    +0.000 A 
ATOM      8  C   UNL     1       0.588   9.587  21.274  0.00  0.00    +0.000 A 
ATOM      9  N   UNL     1       0.066  10.209  22.310  0.00  0.00    +0.000 NA
ENDROOT
BRANCH   1  13
ATOM     10  C   UNL     1      -2.627  14.054  24.426  0.00  0.00    +0.000 A 
ATOM     11  C   UNL     1      -1.402  14.437  23.859  0.00  0.00    +0.000 A 
ATOM     12  C   UNL     1      -0.686  13.600  22.985  0.00  0.00    +0.000 A 
ATOM     13  C   UNL     1      -1.222  12.335  22.656  0.00  0.00    +0.000 A 
ATOM     14  C   UNL     1      -2.463  11.971  23.213  0.00  0.00    +0.000 A 
ATOM     15  C   UNL     1      -3.168  12.817  24.077  0.00  0.00    +0.000 A 
ATOM     16 CL   UNL     1      -4.724  12.251  24.574  0.00  0.00    +0.000 Cl
BRANCH  10  18
ATOM     17  C   UNL     1      -2.544  16.306  25.193  0.00  0.00    +0.000 C 
ATOM     18  O   UNL     1      -3.180  15.034  25.207  0.00  0.00    +0.000 OA
ENDBRANCH  10  18
BRANCH  12  19
ATOM     19  O   UNL     1       0.492  13.999  22.409  0.00  0.00    +0.000 OA
ATOM     20  C   UNL     1       0.446  15.116  21.523  0.00  0.00    +0.000 C 
ENDBRANCH  12  19
ENDBRANCH   1  13
BRANCH   6  21
ATOM     21  N   UNL     1       2.696   6.897  19.841  0.00  0.00    +0.000 N 
ATOM     22  C   UNL     1       2.369   5.568  20.096  0.00  0.00    +0.000 C 
ATOM     23  O   UNL     1       1.296   5.152  20.527  0.00  0.00    +0.000 OA
ATOM     24  H   UNL     1       3.650   7.083  19.544  0.00  0.00    +0.000 HD
BRANCH  22  25
ATOM     25  C   UNL     1       3.508   4.560  19.814  0.00  0.00    +0.000 C 
BRANCH  25  26
ATOM     26  N   UNL     1       3.038   3.219  20.229  0.00  0.00    +0.000 NA
ATOM     27  H   UNL     1       2.519   3.337  21.104  0.00  0.00    +0.000 HD
ATOM     28  H   UNL     1       3.839   2.644  20.490  0.00  0.00    +0.000 HD
ENDBRANCH  25  26
BRANCH  25  29
ATOM     29  C   UNL     1       3.808   4.519  18.307  0.00  0.00    +0.000 C 
BRANCH  29  30
ATOM     30  C   UNL     1       5.300   4.351  18.002  0.00  0.00    +0.000 C 
BRANCH  30  31
ATOM     31  C   UNL     1       6.121   5.476  18.638  0.00  0.00    +0.000 C 
BRANCH  31  32
ATOM     32  C   UNL     1       7.616   5.266  18.408  0.00  0.00    +0.000 C 
BRANCH  32  33
ATOM     33  N   UNL     1       7.834   4.248  17.389  0.00  0.00    +0.000 NA
ATOM     34  H   UNL     1       8.675   4.465  16.857  0.00  0.00    +0.000 HD
ATOM     35  H   UNL     1       7.061   4.263  16.723  0.00  0.00    +0.000 HD
ENDBRANCH  32  33
ENDBRANCH  31  32
ENDBRANCH  30  31
ENDBRANCH  29  30
ENDBRANCH  25  29
ENDBRANCH  22  25
ENDBRANCH   6  21
TORSDOF 11
ENDMDL
MODEL 9
REMARK VINA RESULT:      -7.0      3.018      4.361
REMARK  Name = 
REMARK  13 active torsions:
REMARK  status: ('A' for Active; 'I' for Inactive)
REMARK    1  A    between atoms: C_1  and  O_2
REMARK    2  A    between atoms: O_2  and  C_3
REMARK    3  A    between atoms: C_5  and  O_6
REMARK    4  A    between atoms: O_6  and  C_7
REMARK    5  A    between atoms: C_8  and  C_9
REMARK    6  A    between atoms: C_14  and  N_15
REMARK    7  A    between atoms: C_16  and  C_18
REMARK    8  A    between atoms: C_18  and  N_19
REMARK    9  A    between atoms: C_18  and  C_20
REMARK   10  A    between atoms: C_20  and  C_21
REMARK   11  A    between atoms: C_21  and  C_22
REMARK   12  A    between atoms: C_22  and  C_23
REMARK   13  A    between atoms: C_23  and  N_24
REMARK                            x       y       z     vdW  Elec       q    Type
REMARK                         _______ _______ _______ _____ _____    ______ ____
ROOT
ATOM      1  C   UNL     1      -0.099  10.995  21.394  0.00  0.00    +0.000 A 
ATOM      2  C   UNL     1       0.152  10.957  20.043  0.00  0.00    +0.000 A 
ATOM      3  N   UNL     1       0.829   9.790  19.813  0.00  0.00    +0.000 N 
ATOM      4  C   UNL     1       1.347   9.313  18.629  0.00  0.00    +0.000 A 
ATOM      5  C   UNL     1       2.023   8.155  18.628  0.00  0.00    +0.000 A 
ATOM      6  C   UNL     1       2.201   7.403  19.876  0.00  0.00    +0.000 A 
ATOM      7  C   UNL     1       1.665   7.889  21.029  0.00  0.00    +0.000 A 
ATOM      8  C   UNL     1       0.948   9.132  21.030  0.00  0.00    +0.000 A 
ATOM      9  N   UNL     1       0.382   9.830  21.992  0.00  0.00    +0.000 NA
ENDROOT
BRANCH   1  13
ATOM     10  C   UNL     1      -2.103  13.960  23.774  0.00  0.00    +0.000 A 
ATOM     11  C   UNL     1      -0.900  14.291  23.134  0.00  0.00    +0.000 A 
ATOM     12  C   UNL     1      -0.198  13.372  22.334  0.00  0.00    +0.000 A 
ATOM     13  C   UNL     1      -0.728  12.075  22.157  0.00  0.00    +0.000 A 
ATOM     14  C   UNL     1      -1.947  11.761  22.786  0.00  0.00    +0.000 A 
ATOM     15  C   UNL     1      -2.639  12.687  23.576  0.00  0.00    +0.000 A 
ATOM     16 CL   UNL     1      -4.173  12.163  24.175  0.00  0.00    +0.000 Cl
BRANCH  10  18
ATOM     17  C   UNL     1      -1.981  15.416  25.653  0.00  0.00    +0.000 C 
ATOM     18  O   UNL     1      -2.646  15.012  24.463  0.00  0.00    +0.000 OA
ENDBRANCH  10  18
BRANCH  12  19
ATOM     19  O   UNL     1       0.958  13.719  21.684  0.00  0.00    +0.000 OA
ATOM     20  C   UNL     1       0.848  14.610  20.576  0.00  0.00    +0.000 C 
ENDBRANCH  12  19
ENDBRANCH   1  13
BRANCH   6  21
ATOM     21  N   UNL     1       2.928   6.218  19.882  0.00  0.00    +0.000 N 
ATOM     22  C   UNL     1       2.541   4.983  19.370  0.00  0.00    +0.000 C 
ATOM     23  O   UNL     1       1.448   4.710  18.878  0.00  0.00    +0.000 OA
ATOM     24  H   UNL     1       3.848   6.265  20.313  0.00  0.00    +0.000 HD
BRANCH  22  25
ATOM     25  C   UNL     1       3.617   3.877  19.474  0.00  0.00    +0.000 C 
BRANCH  25  26
ATOM     26  N   UNL     1       2.987   2.594  19.086  0.00  0.00    +0.000 NA
ATOM     27  H   UNL     1       3.627   1.845  19.367  0.00  0.00    +0.000 HD
ATOM     28  H   UNL     1       2.954   2.526  18.070  0.00  0.00    +0.000 HD
ENDBRANCH  25  26
BRANCH  25  29
ATOM     29  C   UNL     1       4.761   4.167  18.490  0.00  0.00    +0.000 C 
BRANCH  29  30
ATOM     30  C   UNL     1       4.345   3.994  17.026  0.00  0.00    +0.000 C 
BRANCH  30  31
ATOM     31  C   UNL     1       5.134   4.939  16.115  0.00  0.00    +0.000 C 
BRANCH  31  32
ATOM     32  C   UNL     1       6.581   4.476  15.959  0.00  0.00    +0.000 C 
BRANCH  32  33
ATOM     33  N   UNL     1       7.447   5.609  15.663  0.00  0.00    +0.000 NA
ATOM     34  H   UNL     1       7.282   5.929  14.710  0.00  0.00    +0.000 HD
ATOM     35  H   UNL     1       8.422   5.311  15.701  0.00  0.00    +0.000 HD
ENDBRANCH  32  33
ENDBRANCH  31  32
ENDBRANCH  30  31
ENDBRANCH  29  30
ENDBRANCH  25  29
ENDBRANCH  22  25
ENDBRANCH   6  21
TORSDOF 11
ENDMDL
