MODEL 1
REMARK VINA RESULT:      -8.1      0.000      0.000
REMARK  Name = 
REMARK  3 active torsions:
REMARK  status: ('A' for Active; 'I' for Inactive)
REMARK    1  A    between atoms: C_2  and  C_13
REMARK    2  A    between atoms: N_3  and  N_4
REMARK    3  A    between atoms: C_5  and  C_6
REMARK                            x       y       z     vdW  Elec       q    Type
REMARK                         _______ _______ _______ _____ _____    ______ ____
ROOT
ATOM      1  O   UNL     1       7.738   5.654  18.718  0.00  0.00    +0.000 OA
ATOM      2  C   UNL     1       7.193   6.133  17.721  0.00  0.00    +0.000 C 
ATOM      3  N   UNL     1       7.400   7.431  17.266  0.00  0.00    +0.000 N 
ATOM      4  H   UNL     1       6.979   7.745  16.396  0.00  0.00    +0.000 HD
ENDROOT
BRANCH   2   5
ATOM      5  C   UNL     1       6.113   5.365  16.944  0.00  0.00    +0.000 C 
ATOM      6  C   UNL     1       5.223   6.325  16.159  0.00  0.00    +0.000 C 
ATOM      7  O   UNL     1       4.415   7.129  17.028  0.00  0.00    +0.000 OA
ATOM      8  C   UNL     1       3.897   6.404  18.065  0.00  0.00    +0.000 A 
ATOM      9  C   UNL     1       2.922   7.030  18.838  0.00  0.00    +0.000 A 
ATOM     10  C   UNL     1       2.325   6.341  19.895  0.00  0.00    +0.000 A 
ATOM     11  C   UNL     1       2.696   5.023  20.168  0.00  0.00    +0.000 A 
ATOM     12  C   UNL     1       3.687   4.403  19.408  0.00  0.00    +0.000 A 
ATOM     13  C   UNL     1       4.309   5.106  18.377  0.00  0.00    +0.000 A 
ATOM     14  O   UNL     1       5.335   4.466  17.734  0.00  0.00    +0.000 OA
ENDBRANCH   2   5
BRANCH   3  15
ATOM     15  N   UNL     1       8.289   8.212  17.934  0.00  0.00    +0.000 NA
ATOM     16  C   UNL     1       8.169   9.495  17.837  0.00  0.00    +0.000 C 
BRANCH  16  17
ATOM     17  C   UNL     1       9.114  10.377  18.562  0.00  0.00    +0.000 A 
ATOM     18  C   UNL     1       9.052  10.474  19.959  0.00  0.00    +0.000 A 
ATOM     19  C   UNL     1       9.924  11.319  20.645  0.00  0.00    +0.000 A 
ATOM     20  C   UNL     1      10.858  12.072  19.936  0.00  0.00    +0.000 A 
ATOM     21  C   UNL     1      10.917  11.971  18.545  0.00  0.00    +0.000 A 
ATOM     22 CL   UNL     1      12.062  12.919  17.675  0.00  0.00    +0.000 Cl
ATOM     23  C   UNL     1      10.053  11.123  17.849  0.00  0.00    +0.000 A 
ENDBRANCH  16  17
ENDBRANCH   3  15
TORSDOF 3
ENDMDL
MODEL 2
REMARK VINA RESULT:      -8.0      4.567      7.396
REMARK  Name = 
REMARK  3 active torsions:
REMARK  status: ('A' for Active; 'I' for Inactive)
REMARK    1  A    between atoms: C_2  and  C_13
REMARK    2  A    between atoms: N_3  and  N_4
REMARK    3  A    between atoms: C_5  and  C_6
REMARK                            x       y       z     vdW  Elec       q    Type
REMARK                         _______ _______ _______ _____ _____    ______ ____
ROOT
ATOM      1  O   UNL     1       2.748   4.882  20.526  0.00  0.00    +0.000 OA
ATOM      2  C   UNL     1       2.979   5.473  19.468  0.00  0.00    +0.000 C 
ATOM      3  N   UNL     1       2.580   6.778  19.200  0.00  0.00    +0.000 N 
ATOM      4  H   UNL     1       2.864   7.235  18.338  0.00  0.00    +0.000 HD
ENDROOT
BRANCH   2   5
ATOM      5  C   UNL     1       3.632   4.762  18.273  0.00  0.00    +0.000 C 
ATOM      6  C   UNL     1       4.558   3.644  18.747  0.00  0.00    +0.000 C 
ATOM      7  O   UNL     1       5.711   4.160  19.422  0.00  0.00    +0.000 OA
ATOM      8  C   UNL     1       6.228   5.259  18.790  0.00  0.00    +0.000 A 
ATOM      9  C   UNL     1       7.472   5.703  19.230  0.00  0.00    +0.000 A 
ATOM     10  C   UNL     1       8.076   6.800  18.613  0.00  0.00    +0.000 A 
ATOM     11  C   UNL     1       7.439   7.441  17.549  0.00  0.00    +0.000 A 
ATOM     12  C   UNL     1       6.183   7.009  17.122  0.00  0.00    +0.000 A 
ATOM     13  C   UNL     1       5.565   5.938  17.765  0.00  0.00    +0.000 A 
ATOM     14  O   UNL     1       4.296   5.628  17.353  0.00  0.00    +0.000 OA
ENDBRANCH   2   5
BRANCH   3  15
ATOM     15  N   UNL     1       1.931   7.465  20.175  0.00  0.00    +0.000 NA
ATOM     16  C   UNL     1       1.362   8.582  19.861  0.00  0.00    +0.000 C 
BRANCH  16  17
ATOM     17  C   UNL     1       0.635   9.351  20.898  0.00  0.00    +0.000 A 
ATOM     18  C   UNL     1       0.613   8.897  22.224  0.00  0.00    +0.000 A 
ATOM     19  C   UNL     1      -0.088   9.605  23.200  0.00  0.00    +0.000 A 
ATOM     20  C   UNL     1      -0.773  10.768  22.851  0.00  0.00    +0.000 A 
ATOM     21  C   UNL     1      -0.748  11.217  21.530  0.00  0.00    +0.000 A 
ATOM     22 CL   UNL     1      -1.613  12.645  21.105  0.00  0.00    +0.000 Cl
ATOM     23  C   UNL     1      -0.044  10.520  20.547  0.00  0.00    +0.000 A 
ENDBRANCH  16  17
ENDBRANCH   3  15
TORSDOF 3
ENDMDL
MODEL 3
REMARK VINA RESULT:      -8.0      1.868      2.566
REMARK  Name = 
REMARK  3 active torsions:
REMARK  status: ('A' for Active; 'I' for Inactive)
REMARK    1  A    between atoms: C_2  and  C_13
REMARK    2  A    between atoms: N_3  and  N_4
REMARK    3  A    between atoms: C_5  and  C_6
REMARK                            x       y       z     vdW  Elec       q    Type
REMARK                         _______ _______ _______ _____ _____    ______ ____
ROOT
ATOM      1  O   UNL     1       7.493   7.180  16.887  0.00  0.00    +0.000 OA
ATOM      2  C   UNL     1       7.807   6.988  18.064  0.00  0.00    +0.000 C 
ATOM      3  N   UNL     1       8.400   7.945  18.879  0.00  0.00    +0.000 N 
ATOM      4  H   UNL     1       8.569   7.751  19.862  0.00  0.00    +0.000 HD
ENDROOT
BRANCH   2   5
ATOM      5  C   UNL     1       7.686   5.602  18.716  0.00  0.00    +0.000 C 
ATOM      6  C   UNL     1       7.694   4.502  17.657  0.00  0.00    +0.000 C 
ATOM      7  O   UNL     1       6.508   4.531  16.853  0.00  0.00    +0.000 OA
ATOM      8  C   UNL     1       5.385   4.757  17.601  0.00  0.00    +0.000 A 
ATOM      9  C   UNL     1       4.162   4.582  16.958  0.00  0.00    +0.000 A 
ATOM     10  C   UNL     1       2.973   4.764  17.665  0.00  0.00    +0.000 A 
ATOM     11  C   UNL     1       3.011   5.109  19.017  0.00  0.00    +0.000 A 
ATOM     12  C   UNL     1       4.235   5.305  19.657  0.00  0.00    +0.000 A 
ATOM     13  C   UNL     1       5.420   5.159  18.939  0.00  0.00    +0.000 A 
ATOM     14  O   UNL     1       6.579   5.456  19.606  0.00  0.00    +0.000 OA
ENDBRANCH   2   5
BRANCH   3  15
ATOM     15  N   UNL     1       8.613   9.185  18.366  0.00  0.00    +0.000 NA
ATOM     16  C   UNL     1       9.455   9.960  18.966  0.00  0.00    +0.000 C 
BRANCH  16  17
ATOM     17  C   UNL     1       9.720  11.314  18.425  0.00  0.00    +0.000 A 
ATOM     18  C   UNL     1      11.005  11.654  17.982  0.00  0.00    +0.000 A 
ATOM     19  C   UNL     1      11.265  12.934  17.492  0.00  0.00    +0.000 A 
ATOM     20  C   UNL     1      10.241  13.879  17.449  0.00  0.00    +0.000 A 
ATOM     21  C   UNL     1       8.963  13.535  17.891  0.00  0.00    +0.000 A 
ATOM     22 CL   UNL     1       7.708  14.715  17.852  0.00  0.00    +0.000 Cl
ATOM     23  C   UNL     1       8.690  12.255  18.376  0.00  0.00    +0.000 A 
ENDBRANCH  16  17
ENDBRANCH   3  15
TORSDOF 3
ENDMDL
MODEL 4
REMARK VINA RESULT:      -7.9      1.167      1.544
REMARK  Name = 
REMARK  3 active torsions:
REMARK  status: ('A' for Active; 'I' for Inactive)
REMARK    1  A    between atoms: C_2  and  C_13
REMARK    2  A    between atoms: N_3  and  N_4
REMARK    3  A    between atoms: C_5  and  C_6
REMARK                            x       y       z     vdW  Elec       q    Type
REMARK                         _______ _______ _______ _____ _____    ______ ____
ROOT
ATOM      1  O   UNL     1       7.829   5.884  18.883  0.00  0.00    +0.000 OA
ATOM      2  C   UNL     1       7.321   6.335  17.854  0.00  0.00    +0.000 C 
ATOM      3  N   UNL     1       7.479   7.644  17.414  0.00  0.00    +0.000 N 
ATOM      4  H   UNL     1       7.095   7.937  16.520  0.00  0.00    +0.000 HD
ENDROOT
BRANCH   2   5
ATOM      5  C   UNL     1       6.340   5.507  17.009  0.00  0.00    +0.000 C 
ATOM      6  C   UNL     1       5.387   6.417  16.238  0.00  0.00    +0.000 C 
ATOM      7  O   UNL     1       4.483   7.102  17.114  0.00  0.00    +0.000 OA
ATOM      8  C   UNL     1       4.005   6.284  18.101  0.00  0.00    +0.000 A 
ATOM      9  C   UNL     1       2.954   6.781  18.868  0.00  0.00    +0.000 A 
ATOM     10  C   UNL     1       2.394   5.992  19.874  0.00  0.00    +0.000 A 
ATOM     11  C   UNL     1       2.879   4.703  20.101  0.00  0.00    +0.000 A 
ATOM     12  C   UNL     1       3.945   4.212  19.347  0.00  0.00    +0.000 A 
ATOM     13  C   UNL     1       4.527   5.017  18.370  0.00  0.00    +0.000 A 
ATOM     14  O   UNL     1       5.627   4.505  17.732  0.00  0.00    +0.000 OA
ENDBRANCH   2   5
BRANCH   3  15
ATOM     15  N   UNL     1       8.275   8.473  18.139  0.00  0.00    +0.000 NA
ATOM     16  C   UNL     1       8.441   9.684  17.717  0.00  0.00    +0.000 C 
BRANCH  16  17
ATOM     17  C   UNL     1       9.294  10.618  18.489  0.00  0.00    +0.000 A 
ATOM     18  C   UNL     1      10.447  11.162  17.906  0.00  0.00    +0.000 A 
ATOM     19  C   UNL     1      11.264  12.026  18.635  0.00  0.00    +0.000 A 
ATOM     20  C   UNL     1      10.934  12.344  19.951  0.00  0.00    +0.000 A 
ATOM     21  C   UNL     1       9.784  11.801  20.528  0.00  0.00    +0.000 A 
ATOM     22 CL   UNL     1       9.393  12.185  22.161  0.00  0.00    +0.000 Cl
ATOM     23  C   UNL     1       8.955  10.942  19.805  0.00  0.00    +0.000 A 
ENDBRANCH  16  17
ENDBRANCH   3  15
TORSDOF 3
ENDMDL
MODEL 5
REMARK VINA RESULT:      -7.8      5.287      7.210
REMARK  Name = 
REMARK  3 active torsions:
REMARK  status: ('A' for Active; 'I' for Inactive)
REMARK    1  A    between atoms: C_2  and  C_13
REMARK    2  A    between atoms: N_3  and  N_4
REMARK    3  A    between atoms: C_5  and  C_6
REMARK                            x       y       z     vdW  Elec       q    Type
REMARK                         _______ _______ _______ _____ _____    ______ ____
ROOT
ATOM      1  O   UNL     1       1.734   4.578  17.732  0.00  0.00    +0.000 OA
ATOM      2  C   UNL     1       2.518   4.221  18.614  0.00  0.00    +0.000 C 
ATOM      3  N   UNL     1       2.661   4.865  19.838  0.00  0.00    +0.000 N 
ATOM      4  H   UNL     1       3.272   4.481  20.554  0.00  0.00    +0.000 HD
ENDROOT
BRANCH   2   5
ATOM      5  C   UNL     1       3.525   3.083  18.387  0.00  0.00    +0.000 C 
ATOM      6  C   UNL     1       4.590   3.075  19.481  0.00  0.00    +0.000 C 
ATOM      7  O   UNL     1       5.448   4.219  19.395  0.00  0.00    +0.000 OA
ATOM      8  C   UNL     1       5.792   4.507  18.102  0.00  0.00    +0.000 A 
ATOM      9  C   UNL     1       6.796   5.455  17.921  0.00  0.00    +0.000 A 
ATOM     10  C   UNL     1       7.221   5.778  16.631  0.00  0.00    +0.000 A 
ATOM     11  C   UNL     1       6.650   5.143  15.528  0.00  0.00    +0.000 A 
ATOM     12  C   UNL     1       5.631   4.208  15.708  0.00  0.00    +0.000 A 
ATOM     13  C   UNL     1       5.181   3.915  16.993  0.00  0.00    +0.000 A 
ATOM     14  O   UNL     1       4.117   3.058  17.088  0.00  0.00    +0.000 OA
ENDBRANCH   2   5
BRANCH   3  15
ATOM     15  N   UNL     1       1.860   5.930  20.101  0.00  0.00    +0.000 NA
ATOM     16  C   UNL     1       2.338   7.116  19.916  0.00  0.00    +0.000 C 
BRANCH  16  17
ATOM     17  C   UNL     1       1.488   8.300  20.182  0.00  0.00    +0.000 A 
ATOM     18  C   UNL     1       1.243   9.232  19.164  0.00  0.00    +0.000 A 
ATOM     19  C   UNL     1       0.460  10.359  19.413  0.00  0.00    +0.000 A 
ATOM     20  C   UNL     1      -0.075  10.560  20.684  0.00  0.00    +0.000 A 
ATOM     21  C   UNL     1       0.170   9.629  21.695  0.00  0.00    +0.000 A 
ATOM     22 CL   UNL     1      -0.481   9.895  23.267  0.00  0.00    +0.000 Cl
ATOM     23  C   UNL     1       0.945   8.494  21.454  0.00  0.00    +0.000 A 
ENDBRANCH  16  17
ENDBRANCH   3  15
TORSDOF 3
ENDMDL
MODEL 6
REMARK VINA RESULT:      -7.8      1.581      2.172
REMARK  Name = 
REMARK  3 active torsions:
REMARK  status: ('A' for Active; 'I' for Inactive)
REMARK    1  A    between atoms: C_2  and  C_13
REMARK    2  A    between atoms: N_3  and  N_4
REMARK    3  A    between atoms: C_5  and  C_6
REMARK                            x       y       z     vdW  Elec       q    Type
REMARK                         _______ _______ _______ _____ _____    ______ ____
ROOT
ATOM      1  O   UNL     1       7.221   7.386  17.092  0.00  0.00    +0.000 OA
ATOM      2  C   UNL     1       7.727   7.058  18.167  0.00  0.00    +0.000 C 
ATOM      3  N   UNL     1       8.511   7.898  18.949  0.00  0.00    +0.000 N 
ATOM      4  H   UNL     1       8.841   7.594  19.861  0.00  0.00    +0.000 HD
ENDROOT
BRANCH   2   5
ATOM      5  C   UNL     1       7.643   5.616  18.692  0.00  0.00    +0.000 C 
ATOM      6  C   UNL     1       7.647   4.617  17.538  0.00  0.00    +0.000 C 
ATOM      7  O   UNL     1       6.445   4.697  16.763  0.00  0.00    +0.000 OA
ATOM      8  C   UNL     1       5.334   4.832  17.550  0.00  0.00    +0.000 A 
ATOM      9  C   UNL     1       4.101   4.694  16.917  0.00  0.00    +0.000 A 
ATOM     10  C   UNL     1       2.924   4.789  17.661  0.00  0.00    +0.000 A 
ATOM     11  C   UNL     1       2.984   5.010  19.038  0.00  0.00    +0.000 A 
ATOM     12  C   UNL     1       4.218   5.170  19.668  0.00  0.00    +0.000 A 
ATOM     13  C   UNL     1       5.390   5.113  18.917  0.00  0.00    +0.000 A 
ATOM     14  O   UNL     1       6.558   5.369  19.586  0.00  0.00    +0.000 OA
ENDBRANCH   2   5
BRANCH   3  15
ATOM     15  N   UNL     1       8.701   9.176  18.528  0.00  0.00    +0.000 NA
ATOM     16  C   UNL     1       9.357   9.982  19.296  0.00  0.00    +0.000 C 
BRANCH  16  17
ATOM     17  C   UNL     1       9.593  11.379  18.862  0.00  0.00    +0.000 A 
ATOM     18  C   UNL     1       8.913  12.433  19.488  0.00  0.00    +0.000 A 
ATOM     19  C   UNL     1       9.114  13.748  19.070  0.00  0.00    +0.000 A 
ATOM     20  C   UNL     1       9.993  14.013  18.021  0.00  0.00    +0.000 A 
ATOM     21  C   UNL     1      10.669  12.960  17.401  0.00  0.00    +0.000 A 
ATOM     22 CL   UNL     1      11.739  13.295  16.094  0.00  0.00    +0.000 Cl
ATOM     23  C   UNL     1      10.480  11.641  17.817  0.00  0.00    +0.000 A 
ENDBRANCH  16  17
ENDBRANCH   3  15
TORSDOF 3
ENDMDL
MODEL 7
REMARK VINA RESULT:      -7.6      1.206      1.480
REMARK  Name = 
REMARK  3 active torsions:
REMARK  status: ('A' for Active; 'I' for Inactive)
REMARK    1  A    between atoms: C_2  and  C_13
REMARK    2  A    between atoms: N_3  and  N_4
REMARK    3  A    between atoms: C_5  and  C_6
REMARK                            x       y       z     vdW  Elec       q    Type
REMARK                         _______ _______ _______ _____ _____    ______ ____
ROOT
ATOM      1  O   UNL     1       8.147   6.345  19.210  0.00  0.00    +0.000 OA
ATOM      2  C   UNL     1       7.598   6.437  18.109  0.00  0.00    +0.000 C 
ATOM      3  N   UNL     1       7.644   7.572  17.307  0.00  0.00    +0.000 N 
ATOM      4  H   UNL     1       7.232   7.563  16.378  0.00  0.00    +0.000 HD
ENDROOT
BRANCH   2   5
ATOM      5  C   UNL     1       6.685   5.327  17.567  0.00  0.00    +0.000 C 
ATOM      6  C   UNL     1       6.045   5.748  16.247  0.00  0.00    +0.000 C 
ATOM      7  O   UNL     1       5.103   6.812  16.429  0.00  0.00    +0.000 OA
ATOM      8  C   UNL     1       4.326   6.626  17.541  0.00  0.00    +0.000 A 
ATOM      9  C   UNL     1       3.235   7.477  17.688  0.00  0.00    +0.000 A 
ATOM     10  C   UNL     1       2.380   7.328  18.781  0.00  0.00    +0.000 A 
ATOM     11  C   UNL     1       2.613   6.320  19.718  0.00  0.00    +0.000 A 
ATOM     12  C   UNL     1       3.719   5.480  19.582  0.00  0.00    +0.000 A 
ATOM     13  C   UNL     1       4.592   5.655  18.510  0.00  0.00    +0.000 A 
ATOM     14  O   UNL     1       5.704   4.856  18.491  0.00  0.00    +0.000 OA
ENDBRANCH   2   5
BRANCH   3  15
ATOM     15  N   UNL     1       8.371   8.635  17.739  0.00  0.00    +0.000 NA
ATOM     16  C   UNL     1       7.912   9.822  17.516  0.00  0.00    +0.000 C 
BRANCH  16  17
ATOM     17  C   UNL     1       8.674  11.003  17.984  0.00  0.00    +0.000 A 
ATOM     18  C   UNL     1       8.281  12.292  17.596  0.00  0.00    +0.000 A 
ATOM     19  C   UNL     1       9.008  13.406  18.016  0.00  0.00    +0.000 A 
ATOM     20  C   UNL     1      10.133  13.234  18.821  0.00  0.00    +0.000 A 
ATOM     21  C   UNL     1      10.520  11.950  19.205  0.00  0.00    +0.000 A 
ATOM     22 CL   UNL     1      11.922  11.746  20.185  0.00  0.00    +0.000 Cl
ATOM     23  C   UNL     1       9.796  10.829  18.797  0.00  0.00    +0.000 A 
ENDBRANCH  16  17
ENDBRANCH   3  15
TORSDOF 3
ENDMDL
MODEL 8
REMARK VINA RESULT:      -7.5      1.363      1.659
REMARK  Name = 
REMARK  3 active torsions:
REMARK  status: ('A' for Active; 'I' for Inactive)
REMARK    1  A    between atoms: C_2  and  C_13
REMARK    2  A    between atoms: N_3  and  N_4
REMARK    3  A    between atoms: C_5  and  C_6
REMARK                            x       y       z     vdW  Elec       q    Type
REMARK                         _______ _______ _______ _____ _____    ______ ____
ROOT
ATOM      1  O   UNL     1       7.624   6.000  19.996  0.00  0.00    +0.000 OA
ATOM      2  C   UNL     1       7.470   5.862  18.780  0.00  0.00    +0.000 C 
ATOM      3  N   UNL     1       7.739   6.852  17.842  0.00  0.00    +0.000 N 
ATOM      4  H   UNL     1       7.662   6.654  16.848  0.00  0.00    +0.000 HD
ENDROOT
BRANCH   2   5
ATOM      5  C   UNL     1       6.830   4.597  18.186  0.00  0.00    +0.000 C 
ATOM      6  C   UNL     1       6.285   4.872  16.787  0.00  0.00    +0.000 C 
ATOM      7  O   UNL     1       5.159   5.758  16.820  0.00  0.00    +0.000 OA
ATOM      8  C   UNL     1       4.303   5.463  17.846  0.00  0.00    +0.000 A 
ATOM      9  C   UNL     1       3.072   6.113  17.836  0.00  0.00    +0.000 A 
ATOM     10  C   UNL     1       2.134   5.840  18.833  0.00  0.00    +0.000 A 
ATOM     11  C   UNL     1       2.426   4.908  19.830  0.00  0.00    +0.000 A 
ATOM     12  C   UNL     1       3.667   4.272  19.852  0.00  0.00    +0.000 A 
ATOM     13  C   UNL     1       4.616   4.575  18.878  0.00  0.00    +0.000 A 
ATOM     14  O   UNL     1       5.843   3.981  19.014  0.00  0.00    +0.000 OA
ENDBRANCH   2   5
BRANCH   3  15
ATOM     15  N   UNL     1       8.244   8.034  18.282  0.00  0.00    +0.000 NA
ATOM     16  C   UNL     1       7.981   9.102  17.603  0.00  0.00    +0.000 C 
BRANCH  16  17
ATOM     17  C   UNL     1       8.506  10.410  18.062  0.00  0.00    +0.000 A 
ATOM     18  C   UNL     1       8.060  11.595  17.460  0.00  0.00    +0.000 A 
ATOM     19  C   UNL     1       8.565  12.827  17.873  0.00  0.00    +0.000 A 
ATOM     20  C   UNL     1       9.522  12.878  18.885  0.00  0.00    +0.000 A 
ATOM     21  C   UNL     1       9.963  11.695  19.482  0.00  0.00    +0.000 A 
ATOM     22 CL   UNL     1      11.158  11.766  20.720  0.00  0.00    +0.000 Cl
ATOM     23  C   UNL     1       9.458  10.457  19.082  0.00  0.00    +0.000 A 
ENDBRANCH  16  17
ENDBRANCH   3  15
TORSDOF 3
ENDMDL
MODEL 9
REMARK VINA RESULT:      -7.5      5.147      7.033
REMARK  Name = 
REMARK  3 active torsions:
REMARK  status: ('A' for Active; 'I' for Inactive)
REMARK    1  A    between atoms: C_2  and  C_13
REMARK    2  A    between atoms: N_3  and  N_4
REMARK    3  A    between atoms: C_5  and  C_6
REMARK                            x       y       z     vdW  Elec       q    Type
REMARK                         _______ _______ _______ _____ _____    ______ ____
ROOT
ATOM      1  O   UNL     1       1.507   4.600  18.046  0.00  0.00    +0.000 OA
ATOM      2  C   UNL     1       2.375   4.226  18.838  0.00  0.00    +0.000 C 
ATOM      3  N   UNL     1       2.647   4.851  20.050  0.00  0.00    +0.000 N 
ATOM      4  H   UNL     1       3.324   4.453  20.694  0.00  0.00    +0.000 HD
ENDROOT
BRANCH   2   5
ATOM      5  C   UNL     1       3.343   3.084  18.494  0.00  0.00    +0.000 C 
ATOM      6  C   UNL     1       4.476   3.008  19.515  0.00  0.00    +0.000 C 
ATOM      7  O   UNL     1       5.348   4.142  19.425  0.00  0.00    +0.000 OA
ATOM      8  C   UNL     1       5.613   4.485  18.128  0.00  0.00    +0.000 A 
ATOM      9  C   UNL     1       6.620   5.425  17.925  0.00  0.00    +0.000 A 
ATOM     10  C   UNL     1       6.968   5.802  16.627  0.00  0.00    +0.000 A 
ATOM     11  C   UNL     1       6.316   5.227  15.535  0.00  0.00    +0.000 A 
ATOM     12  C   UNL     1       5.293   4.301  15.738  0.00  0.00    +0.000 A 
ATOM     13  C   UNL     1       4.921   3.956  17.035  0.00  0.00    +0.000 A 
ATOM     14  O   UNL     1       3.850   3.111  17.160  0.00  0.00    +0.000 OA
ENDBRANCH   2   5
BRANCH   3  15
ATOM     15  N   UNL     1       1.886   5.918  20.408  0.00  0.00    +0.000 NA
ATOM     16  C   UNL     1       2.288   7.098  20.068  0.00  0.00    +0.000 C 
BRANCH  16  17
ATOM     17  C   UNL     1       1.475   8.283  20.432  0.00  0.00    +0.000 A 
ATOM     18  C   UNL     1       1.087   8.487  21.763  0.00  0.00    +0.000 A 
ATOM     19  C   UNL     1       0.304   9.588  22.108  0.00  0.00    +0.000 A 
ATOM     20  C   UNL     1      -0.096  10.487  21.121  0.00  0.00    +0.000 A 
ATOM     21  C   UNL     1       0.293  10.281  19.796  0.00  0.00    +0.000 A 
ATOM     22 CL   UNL     1      -0.222  11.387  18.581  0.00  0.00    +0.000 Cl
ATOM     23  C   UNL     1       1.082   9.186  19.442  0.00  0.00    +0.000 A 
ENDBRANCH  16  17
ENDBRANCH   3  15
TORSDOF 3
ENDMDL
