MODEL 1
REMARK VINA RESULT:      -8.0      0.000      0.000
REMARK  Name = 
REMARK  5 active torsions:
REMARK  status: ('A' for Active; 'I' for Inactive)
REMARK    1  A    between atoms: C_2  and  C_3
REMARK    2  A    between atoms: C_3  and  S_4
REMARK    3  A    between atoms: S_4  and  C_5
REMARK    4  A    between atoms: C_8  and  C_9
REMARK    5  A    between atoms: N_16  and  C_17
REMARK                            x       y       z     vdW  Elec       q    Type
REMARK                         _______ _______ _______ _____ _____    ______ ____
ROOT
ATOM      1  C   UNL     1       3.742   4.237  18.604  0.00  0.00    +0.000 C 
ENDROOT
BRANCH   1   3
ATOM      2  O   UNL     1       1.620   5.070  17.917  0.00  0.00    +0.000 OA
ATOM      3  C   UNL     1       2.696   5.334  18.453  0.00  0.00    +0.000 C 
ATOM      4  N   UNL     1       3.032   6.560  19.001  0.00  0.00    +0.000 N 
ATOM      5  H   UNL     1       4.008   6.679  19.250  0.00  0.00    +0.000 HD
BRANCH   4   6
ATOM      6  C   UNL     1       2.216   7.710  19.066  0.00  0.00    +0.000 A 
ATOM      7  C   UNL     1       1.923   8.514  17.959  0.00  0.00    +0.000 A 
ATOM      8  C   UNL     1       1.131   9.659  18.102  0.00  0.00    +0.000 A 
ATOM      9  C   UNL     1       0.631   9.996  19.352  0.00  0.00    +0.000 A 
ATOM     10  F   UNL     1      -0.108  11.105  19.493  0.00  0.00    +0.000 F 
ATOM     11  C   UNL     1       0.887   9.198  20.458  0.00  0.00    +0.000 A 
ATOM     12  C   UNL     1       1.672   8.049  20.313  0.00  0.00    +0.000 A 
ENDBRANCH   4   6
ENDBRANCH   1   3
BRANCH   1  13
ATOM     13  S   UNL     1       5.312   4.812  19.314  0.00  0.00    +0.000 S 
BRANCH  13  14
ATOM     14  C   UNL     1       6.147   5.268  17.856  0.00  0.00    +0.000 A 
ATOM     15  N   UNL     1       7.068   6.207  17.782  0.00  0.00    +0.000 NA
ATOM     16  N   UNL     1       7.502   6.236  16.472  0.00  0.00    +0.000 NA
ATOM     17  C   UNL     1       6.813   5.310  15.830  0.00  0.00    +0.000 A 
ATOM     18  O   UNL     1       5.918   4.665  16.648  0.00  0.00    +0.000 OA
BRANCH  17  19
ATOM     19  C   UNL     1       6.910   4.870  14.441  0.00  0.00    +0.000 A 
ATOM     20  C   UNL     1       6.113   3.830  13.966  0.00  0.00    +0.000 A 
ATOM     21  C   UNL     1       6.197   3.474  12.621  0.00  0.00    +0.000 A 
ATOM     22  C   UNL     1       7.075   4.163  11.790  0.00  0.00    +0.000 A 
ATOM     23  C   UNL     1       7.843   5.174  12.343  0.00  0.00    +0.000 A 
ATOM     24  N   UNL     1       7.778   5.543  13.644  0.00  0.00    +0.000 NA
ENDBRANCH  17  19
ENDBRANCH  13  14
ENDBRANCH   1  13
TORSDOF 5
ENDMDL
MODEL 2
REMARK VINA RESULT:      -7.9      3.005      3.688
REMARK  Name = 
REMARK  5 active torsions:
REMARK  status: ('A' for Active; 'I' for Inactive)
REMARK    1  A    between atoms: C_2  and  C_3
REMARK    2  A    between atoms: C_3  and  S_4
REMARK    3  A    between atoms: S_4  and  C_5
REMARK    4  A    between atoms: C_8  and  C_9
REMARK    5  A    between atoms: N_16  and  C_17
REMARK                            x       y       z     vdW  Elec       q    Type
REMARK                         _______ _______ _______ _____ _____    ______ ____
ROOT
ATOM      1  C   UNL     1       2.371   3.628  21.405  0.00  0.00    +0.000 C 
ENDROOT
BRANCH   1   3
ATOM      2  O   UNL     1       0.573   4.663  20.236  0.00  0.00    +0.000 OA
ATOM      3  C   UNL     1       1.734   4.775  20.630  0.00  0.00    +0.000 C 
ATOM      4  N   UNL     1       2.520   5.904  20.482  0.00  0.00    +0.000 N 
ATOM      5  H   UNL     1       3.503   5.789  20.700  0.00  0.00    +0.000 HD
BRANCH   4   6
ATOM      6  C   UNL     1       2.143   7.124  19.880  0.00  0.00    +0.000 A 
ATOM      7  C   UNL     1       2.455   7.464  18.558  0.00  0.00    +0.000 A 
ATOM      8  C   UNL     1       2.076   8.706  18.036  0.00  0.00    +0.000 A 
ATOM      9  C   UNL     1       1.382   9.604  18.835  0.00  0.00    +0.000 A 
ATOM     10  F   UNL     1       1.040  10.802  18.342  0.00  0.00    +0.000 F 
ATOM     11  C   UNL     1       1.039   9.276  20.139  0.00  0.00    +0.000 A 
ATOM     12  C   UNL     1       1.411   8.032  20.659  0.00  0.00    +0.000 A 
ENDBRANCH   4   6
ENDBRANCH   1   3
BRANCH   1  13
ATOM     13  S   UNL     1       2.789   2.189  20.377  0.00  0.00    +0.000 S 
BRANCH  13  14
ATOM     14  C   UNL     1       3.761   2.967  19.159  0.00  0.00    +0.000 A 
ATOM     15  N   UNL     1       3.697   2.708  17.870  0.00  0.00    +0.000 NA
ATOM     16  N   UNL     1       4.594   3.552  17.249  0.00  0.00    +0.000 NA
ATOM     17  C   UNL     1       5.151   4.273  18.205  0.00  0.00    +0.000 A 
ATOM     18  O   UNL     1       4.678   3.941  19.451  0.00  0.00    +0.000 OA
BRANCH  17  19
ATOM     19  C   UNL     1       6.122   5.360  18.109  0.00  0.00    +0.000 A 
ATOM     20  C   UNL     1       5.938   6.401  17.200  0.00  0.00    +0.000 A 
ATOM     21  C   UNL     1       6.858   7.447  17.174  0.00  0.00    +0.000 A 
ATOM     22  C   UNL     1       7.937   7.423  18.052  0.00  0.00    +0.000 A 
ATOM     23  C   UNL     1       8.057   6.345  18.914  0.00  0.00    +0.000 A 
ATOM     24  N   UNL     1       7.176   5.319  18.963  0.00  0.00    +0.000 NA
ENDBRANCH  17  19
ENDBRANCH  13  14
ENDBRANCH   1  13
TORSDOF 5
ENDMDL
MODEL 3
REMARK VINA RESULT:      -7.8      4.043      4.319
REMARK  Name = 
REMARK  5 active torsions:
REMARK  status: ('A' for Active; 'I' for Inactive)
REMARK    1  A    between atoms: C_2  and  C_3
REMARK    2  A    between atoms: C_3  and  S_4
REMARK    3  A    between atoms: S_4  and  C_5
REMARK    4  A    between atoms: C_8  and  C_9
REMARK    5  A    between atoms: N_16  and  C_17
REMARK                            x       y       z     vdW  Elec       q    Type
REMARK                         _______ _______ _______ _____ _____    ______ ____
ROOT
ATOM      1  C   UNL     1       7.434   5.385  19.421  0.00  0.00    +0.000 C 
ENDROOT
BRANCH   1   3
ATOM      2  O   UNL     1       5.136   5.921  19.746  0.00  0.00    +0.000 OA
ATOM      3  C   UNL     1       5.947   5.049  19.432  0.00  0.00    +0.000 C 
ATOM      4  N   UNL     1       5.621   3.770  19.019  0.00  0.00    +0.000 N 
ATOM      5  H   UNL     1       6.392   3.115  18.961  0.00  0.00    +0.000 HD
BRANCH   4   6
ATOM      6  C   UNL     1       4.323   3.236  18.863  0.00  0.00    +0.000 A 
ATOM      7  C   UNL     1       3.722   3.012  17.618  0.00  0.00    +0.000 A 
ATOM      8  C   UNL     1       2.419   2.510  17.539  0.00  0.00    +0.000 A 
ATOM      9  C   UNL     1       1.719   2.228  18.704  0.00  0.00    +0.000 A 
ATOM     10  F   UNL     1       0.463   1.769  18.627  0.00  0.00    +0.000 F 
ATOM     11  C   UNL     1       2.306   2.418  19.947  0.00  0.00    +0.000 A 
ATOM     12  C   UNL     1       3.611   2.913  20.027  0.00  0.00    +0.000 A 
ENDBRANCH   4   6
ENDBRANCH   1   3
BRANCH   1  13
ATOM     13  S   UNL     1       7.850   6.846  18.426  0.00  0.00    +0.000 S 
BRANCH  13  14
ATOM     14  C   UNL     1       6.931   6.498  16.989  0.00  0.00    +0.000 A 
ATOM     15  N   UNL     1       5.813   7.105  16.648  0.00  0.00    +0.000 NA
ATOM     16  N   UNL     1       5.423   6.569  15.437  0.00  0.00    +0.000 NA
ATOM     17  C   UNL     1       6.331   5.665  15.119  0.00  0.00    +0.000 A 
ATOM     18  O   UNL     1       7.314   5.556  16.072  0.00  0.00    +0.000 OA
BRANCH  17  19
ATOM     19  C   UNL     1       6.448   4.842  13.919  0.00  0.00    +0.000 A 
ATOM     20  C   UNL     1       5.500   3.860  13.633  0.00  0.00    +0.000 A 
ATOM     21  C   UNL     1       5.617   3.131  12.451  0.00  0.00    +0.000 A 
ATOM     22  C   UNL     1       6.677   3.398  11.591  0.00  0.00    +0.000 A 
ATOM     23  C   UNL     1       7.585   4.380  11.954  0.00  0.00    +0.000 A 
ATOM     24  N   UNL     1       7.492   5.106  13.093  0.00  0.00    +0.000 NA
ENDBRANCH  17  19
ENDBRANCH  13  14
ENDBRANCH   1  13
TORSDOF 5
ENDMDL
MODEL 4
REMARK VINA RESULT:      -7.7      3.078      3.799
REMARK  Name = 
REMARK  5 active torsions:
REMARK  status: ('A' for Active; 'I' for Inactive)
REMARK    1  A    between atoms: C_2  and  C_3
REMARK    2  A    between atoms: C_3  and  S_4
REMARK    3  A    between atoms: S_4  and  C_5
REMARK    4  A    between atoms: C_8  and  C_9
REMARK    5  A    between atoms: N_16  and  C_17
REMARK                            x       y       z     vdW  Elec       q    Type
REMARK                         _______ _______ _______ _____ _____    ______ ____
ROOT
ATOM      1  C   UNL     1       2.294   3.730  21.457  0.00  0.00    +0.000 C 
ENDROOT
BRANCH   1   3
ATOM      2  O   UNL     1       0.521   4.754  20.240  0.00  0.00    +0.000 OA
ATOM      3  C   UNL     1       1.653   4.890  20.704  0.00  0.00    +0.000 C 
ATOM      4  N   UNL     1       2.398   6.055  20.656  0.00  0.00    +0.000 N 
ATOM      5  H   UNL     1       3.372   5.967  20.924  0.00  0.00    +0.000 HD
BRANCH   4   6
ATOM      6  C   UNL     1       2.004   7.288  20.094  0.00  0.00    +0.000 A 
ATOM      7  C   UNL     1       1.296   8.269  20.798  0.00  0.00    +0.000 A 
ATOM      8  C   UNL     1       0.910   9.457  20.168  0.00  0.00    +0.000 A 
ATOM      9  C   UNL     1       1.236   9.665  18.835  0.00  0.00    +0.000 A 
ATOM     10  F   UNL     1       0.846  10.792  18.226  0.00  0.00    +0.000 F 
ATOM     11  C   UNL     1       1.961   8.717  18.125  0.00  0.00    +0.000 A 
ATOM     12  C   UNL     1       2.354   7.533  18.758  0.00  0.00    +0.000 A 
ENDBRANCH   4   6
ENDBRANCH   1   3
BRANCH   1  13
ATOM     13  S   UNL     1       2.658   2.288  20.413  0.00  0.00    +0.000 S 
BRANCH  13  14
ATOM     14  C   UNL     1       3.655   3.044  19.202  0.00  0.00    +0.000 A 
ATOM     15  N   UNL     1       3.662   2.715  17.926  0.00  0.00    +0.000 NA
ATOM     16  N   UNL     1       4.554   3.565  17.302  0.00  0.00    +0.000 NA
ATOM     17  C   UNL     1       5.035   4.356  18.243  0.00  0.00    +0.000 A 
ATOM     18  O   UNL     1       4.518   4.069  19.482  0.00  0.00    +0.000 OA
BRANCH  17  19
ATOM     19  C   UNL     1       5.965   5.477  18.134  0.00  0.00    +0.000 A 
ATOM     20  C   UNL     1       7.177   5.468  18.822  0.00  0.00    +0.000 A 
ATOM     21  C   UNL     1       8.060   6.532  18.651  0.00  0.00    +0.000 A 
ATOM     22  C   UNL     1       7.708   7.577  17.802  0.00  0.00    +0.000 A 
ATOM     23  C   UNL     1       6.479   7.518  17.166  0.00  0.00    +0.000 A 
ATOM     24  N   UNL     1       5.605   6.495  17.310  0.00  0.00    +0.000 NA
ENDBRANCH  17  19
ENDBRANCH  13  14
ENDBRANCH   1  13
TORSDOF 5
ENDMDL
MODEL 5
REMARK VINA RESULT:      -7.7      4.737      6.679
REMARK  Name = 
REMARK  5 active torsions:
REMARK  status: ('A' for Active; 'I' for Inactive)
REMARK    1  A    between atoms: C_2  and  C_3
REMARK    2  A    between atoms: C_3  and  S_4
REMARK    3  A    between atoms: S_4  and  C_5
REMARK    4  A    between atoms: C_8  and  C_9
REMARK    5  A    between atoms: N_16  and  C_17
REMARK                            x       y       z     vdW  Elec       q    Type
REMARK                         _______ _______ _______ _____ _____    ______ ____
ROOT
ATOM      1  C   UNL     1       7.609   4.655  17.663  0.00  0.00    +0.000 C 
ENDROOT
BRANCH   1   3
ATOM      2  O   UNL     1       5.628   4.535  16.348  0.00  0.00    +0.000 OA
ATOM      3  C   UNL     1       6.128   4.360  17.459  0.00  0.00    +0.000 C 
ATOM      4  N   UNL     1       5.464   3.849  18.559  0.00  0.00    +0.000 N 
ATOM      5  H   UNL     1       5.953   3.924  19.444  0.00  0.00    +0.000 HD
BRANCH   4   6
ATOM      6  C   UNL     1       4.119   3.421  18.613  0.00  0.00    +0.000 A 
ATOM      7  C   UNL     1       3.736   2.075  18.652  0.00  0.00    +0.000 A 
ATOM      8  C   UNL     1       2.382   1.723  18.672  0.00  0.00    +0.000 A 
ATOM      9  C   UNL     1       1.413   2.717  18.657  0.00  0.00    +0.000 A 
ATOM     10  F   UNL     1       0.117   2.378  18.653  0.00  0.00    +0.000 F 
ATOM     11  C   UNL     1       1.772   4.057  18.645  0.00  0.00    +0.000 A 
ATOM     12  C   UNL     1       3.125   4.410  18.633  0.00  0.00    +0.000 A 
ENDBRANCH   4   6
ENDBRANCH   1   3
BRANCH   1  13
ATOM     13  S   UNL     1       7.964   5.638  19.149  0.00  0.00    +0.000 S 
BRANCH  13  14
ATOM     14  C   UNL     1       8.036   7.228  18.442  0.00  0.00    +0.000 A 
ATOM     15  N   UNL     1       7.424   7.583  17.331  0.00  0.00    +0.000 NA
ATOM     16  N   UNL     1       7.702   8.920  17.133  0.00  0.00    +0.000 NA
ATOM     17  C   UNL     1       8.472   9.293  18.139  0.00  0.00    +0.000 A 
ATOM     18  O   UNL     1       8.738   8.260  19.003  0.00  0.00    +0.000 OA
BRANCH  17  19
ATOM     19  C   UNL     1       9.008  10.612  18.463  0.00  0.00    +0.000 A 
ATOM     20  C   UNL     1       9.972  10.764  19.458  0.00  0.00    +0.000 A 
ATOM     21  C   UNL     1      10.499  12.032  19.703  0.00  0.00    +0.000 A 
ATOM     22  C   UNL     1      10.045  13.111  18.951  0.00  0.00    +0.000 A 
ATOM     23  C   UNL     1       9.074  12.879  17.991  0.00  0.00    +0.000 A 
ATOM     24  N   UNL     1       8.550  11.659  17.729  0.00  0.00    +0.000 NA
ENDBRANCH  17  19
ENDBRANCH  13  14
ENDBRANCH   1  13
TORSDOF 5
ENDMDL
MODEL 6
REMARK VINA RESULT:      -7.7      5.058      7.501
REMARK  Name = 
REMARK  5 active torsions:
REMARK  status: ('A' for Active; 'I' for Inactive)
REMARK    1  A    between atoms: C_2  and  C_3
REMARK    2  A    between atoms: C_3  and  S_4
REMARK    3  A    between atoms: S_4  and  C_5
REMARK    4  A    between atoms: C_8  and  C_9
REMARK    5  A    between atoms: N_16  and  C_17
REMARK                            x       y       z     vdW  Elec       q    Type
REMARK                         _______ _______ _______ _____ _____    ______ ____
ROOT
ATOM      1  C   UNL     1       6.771   7.624  17.198  0.00  0.00    +0.000 C 
ENDROOT
BRANCH   1   3
ATOM      2  O   UNL     1       8.573   7.441  18.744  0.00  0.00    +0.000 OA
ATOM      3  C   UNL     1       7.892   8.200  18.055  0.00  0.00    +0.000 C 
ATOM      4  N   UNL     1       8.092   9.564  17.937  0.00  0.00    +0.000 N 
ATOM      5  H   UNL     1       7.353  10.080  17.474  0.00  0.00    +0.000 HD
BRANCH   4   6
ATOM      6  C   UNL     1       9.106  10.327  18.556  0.00  0.00    +0.000 A 
ATOM      7  C   UNL     1       9.199  10.512  19.941  0.00  0.00    +0.000 A 
ATOM      8  C   UNL     1      10.214  11.308  20.484  0.00  0.00    +0.000 A 
ATOM      9  C   UNL     1      11.137  11.914  19.643  0.00  0.00    +0.000 A 
ATOM     10  F   UNL     1      12.094  12.694  20.162  0.00  0.00    +0.000 F 
ATOM     11  C   UNL     1      11.078  11.722  18.270  0.00  0.00    +0.000 A 
ATOM     12  C   UNL     1      10.069  10.920  17.727  0.00  0.00    +0.000 A 
ENDBRANCH   4   6
ENDBRANCH   1   3
BRANCH   1  13
ATOM     13  S   UNL     1       7.094   5.938  16.603  0.00  0.00    +0.000 S 
BRANCH  13  14
ATOM     14  C   UNL     1       6.174   5.031  17.771  0.00  0.00    +0.000 A 
ATOM     15  N   UNL     1       6.683   4.449  18.838  0.00  0.00    +0.000 NA
ATOM     16  N   UNL     1       5.629   3.870  19.515  0.00  0.00    +0.000 NA
ATOM     17  C   UNL     1       4.543   4.135  18.812  0.00  0.00    +0.000 A 
ATOM     18  O   UNL     1       4.819   4.858  17.678  0.00  0.00    +0.000 OA
BRANCH  17  19
ATOM     19  C   UNL     1       3.147   3.817  19.097  0.00  0.00    +0.000 A 
ATOM     20  C   UNL     1       2.463   2.868  18.340  0.00  0.00    +0.000 A 
ATOM     21  C   UNL     1       1.147   2.553  18.675  0.00  0.00    +0.000 A 
ATOM     22  C   UNL     1       0.550   3.197  19.755  0.00  0.00    +0.000 A 
ATOM     23  C   UNL     1       1.293   4.139  20.448  0.00  0.00    +0.000 A 
ATOM     24  N   UNL     1       2.573   4.460  20.146  0.00  0.00    +0.000 NA
ENDBRANCH  17  19
ENDBRANCH  13  14
ENDBRANCH   1  13
TORSDOF 5
ENDMDL
MODEL 7
REMARK VINA RESULT:      -7.5      2.195      3.205
REMARK  Name = 
REMARK  5 active torsions:
REMARK  status: ('A' for Active; 'I' for Inactive)
REMARK    1  A    between atoms: C_2  and  C_3
REMARK    2  A    between atoms: C_3  and  S_4
REMARK    3  A    between atoms: S_4  and  C_5
REMARK    4  A    between atoms: C_8  and  C_9
REMARK    5  A    between atoms: N_16  and  C_17
REMARK                            x       y       z     vdW  Elec       q    Type
REMARK                         _______ _______ _______ _____ _____    ______ ____
ROOT
ATOM      1  C   UNL     1       2.379   3.925  21.427  0.00  0.00    +0.000 C 
ENDROOT
BRANCH   1   3
ATOM      2  O   UNL     1       0.497   4.989  20.430  0.00  0.00    +0.000 OA
ATOM      3  C   UNL     1       1.696   5.074  20.696  0.00  0.00    +0.000 C 
ATOM      4  N   UNL     1       2.493   6.175  20.436  0.00  0.00    +0.000 N 
ATOM      5  H   UNL     1       3.490   6.034  20.552  0.00  0.00    +0.000 HD
BRANCH   4   6
ATOM      6  C   UNL     1       2.088   7.392  19.847  0.00  0.00    +0.000 A 
ATOM      7  C   UNL     1       2.368   7.741  18.520  0.00  0.00    +0.000 A 
ATOM      8  C   UNL     1       1.963   8.980  18.011  0.00  0.00    +0.000 A 
ATOM      9  C   UNL     1       1.274   9.866  18.827  0.00  0.00    +0.000 A 
ATOM     10  F   UNL     1       0.907  11.060  18.345  0.00  0.00    +0.000 F 
ATOM     11  C   UNL     1       0.962   9.529  20.137  0.00  0.00    +0.000 A 
ATOM     12  C   UNL     1       1.360   8.288  20.644  0.00  0.00    +0.000 A 
ENDBRANCH   4   6
ENDBRANCH   1   3
BRANCH   1  13
ATOM     13  S   UNL     1       2.192   2.316  20.607  0.00  0.00    +0.000 S 
BRANCH  13  14
ATOM     14  C   UNL     1       2.658   2.753  18.987  0.00  0.00    +0.000 A 
ATOM     15  N   UNL     1       1.840   2.789  17.955  0.00  0.00    +0.000 NA
ATOM     16  N   UNL     1       2.585   3.212  16.872  0.00  0.00    +0.000 NA
ATOM     17  C   UNL     1       3.814   3.403  17.316  0.00  0.00    +0.000 A 
ATOM     18  O   UNL     1       3.936   3.113  18.653  0.00  0.00    +0.000 OA
BRANCH  17  19
ATOM     19  C   UNL     1       4.991   3.906  16.615  0.00  0.00    +0.000 A 
ATOM     20  C   UNL     1       5.067   3.856  15.224  0.00  0.00    +0.000 A 
ATOM     21  C   UNL     1       6.185   4.394  14.587  0.00  0.00    +0.000 A 
ATOM     22  C   UNL     1       7.195   4.963  15.357  0.00  0.00    +0.000 A 
ATOM     23  C   UNL     1       7.050   4.961  16.734  0.00  0.00    +0.000 A 
ATOM     24  N   UNL     1       5.974   4.450  17.377  0.00  0.00    +0.000 NA
ENDBRANCH  17  19
ENDBRANCH  13  14
ENDBRANCH   1  13
TORSDOF 5
ENDMDL
MODEL 8
REMARK VINA RESULT:      -7.5      3.819      7.425
REMARK  Name = 
REMARK  5 active torsions:
REMARK  status: ('A' for Active; 'I' for Inactive)
REMARK    1  A    between atoms: C_2  and  C_3
REMARK    2  A    between atoms: C_3  and  S_4
REMARK    3  A    between atoms: S_4  and  C_5
REMARK    4  A    between atoms: C_8  and  C_9
REMARK    5  A    between atoms: N_16  and  C_17
REMARK                            x       y       z     vdW  Elec       q    Type
REMARK                         _______ _______ _______ _____ _____    ______ ____
ROOT
ATOM      1  C   UNL     1       7.395   7.538  17.430  0.00  0.00    +0.000 C 
ENDROOT
BRANCH   1   3
ATOM      2  O   UNL     1       5.525   7.086  16.026  0.00  0.00    +0.000 OA
ATOM      3  C   UNL     1       6.680   6.776  16.321  0.00  0.00    +0.000 C 
ATOM      4  N   UNL     1       7.433   5.810  15.678  0.00  0.00    +0.000 N 
ATOM      5  H   UNL     1       8.297   5.546  16.138  0.00  0.00    +0.000 HD
BRANCH   4   6
ATOM      6  C   UNL     1       7.037   5.024  14.575  0.00  0.00    +0.000 A 
ATOM      7  C   UNL     1       7.672   5.064  13.328  0.00  0.00    +0.000 A 
ATOM      8  C   UNL     1       7.206   4.279  12.267  0.00  0.00    +0.000 A 
ATOM      9  C   UNL     1       6.107   3.452  12.456  0.00  0.00    +0.000 A 
ATOM     10  F   UNL     1       5.647   2.719  11.434  0.00  0.00    +0.000 F 
ATOM     11  C   UNL     1       5.479   3.377  13.692  0.00  0.00    +0.000 A 
ATOM     12  C   UNL     1       5.950   4.155  14.754  0.00  0.00    +0.000 A 
ENDBRANCH   4   6
ENDBRANCH   1   3
BRANCH   1  13
ATOM     13  S   UNL     1       7.915   6.493  18.822  0.00  0.00    +0.000 S 
BRANCH  13  14
ATOM     14  C   UNL     1       6.638   5.310  18.796  0.00  0.00    +0.000 A 
ATOM     15  N   UNL     1       6.782   4.059  18.408  0.00  0.00    +0.000 NA
ATOM     16  N   UNL     1       5.554   3.449  18.570  0.00  0.00    +0.000 NA
ATOM     17  C   UNL     1       4.739   4.371  19.046  0.00  0.00    +0.000 A 
ATOM     18  O   UNL     1       5.359   5.587  19.199  0.00  0.00    +0.000 OA
BRANCH  17  19
ATOM     19  C   UNL     1       3.342   4.259  19.457  0.00  0.00    +0.000 A 
ATOM     20  C   UNL     1       2.539   3.226  18.978  0.00  0.00    +0.000 A 
ATOM     21  C   UNL     1       1.226   3.122  19.434  0.00  0.00    +0.000 A 
ATOM     22  C   UNL     1       0.751   4.053  20.353  0.00  0.00    +0.000 A 
ATOM     23  C   UNL     1       1.608   5.059  20.769  0.00  0.00    +0.000 A 
ATOM     24  N   UNL     1       2.888   5.180  20.346  0.00  0.00    +0.000 NA
ENDBRANCH  17  19
ENDBRANCH  13  14
ENDBRANCH   1  13
TORSDOF 5
ENDMDL
MODEL 9
REMARK VINA RESULT:      -7.5      2.232      3.412
REMARK  Name = 
REMARK  5 active torsions:
REMARK  status: ('A' for Active; 'I' for Inactive)
REMARK    1  A    between atoms: C_2  and  C_3
REMARK    2  A    between atoms: C_3  and  S_4
REMARK    3  A    between atoms: S_4  and  C_5
REMARK    4  A    between atoms: C_8  and  C_9
REMARK    5  A    between atoms: N_16  and  C_17
REMARK                            x       y       z     vdW  Elec       q    Type
REMARK                         _______ _______ _______ _____ _____    ______ ____
ROOT
ATOM      1  C   UNL     1       2.289   3.653  21.458  0.00  0.00    +0.000 C 
ENDROOT
BRANCH   1   3
ATOM      2  O   UNL     1       0.452   4.779  20.442  0.00  0.00    +0.000 OA
ATOM      3  C   UNL     1       1.644   4.835  20.744  0.00  0.00    +0.000 C 
ATOM      4  N   UNL     1       2.466   5.930  20.540  0.00  0.00    +0.000 N 
ATOM      5  H   UNL     1       3.457   5.769  20.679  0.00  0.00    +0.000 HD
BRANCH   4   6
ATOM      6  C   UNL     1       2.098   7.171  19.977  0.00  0.00    +0.000 A 
ATOM      7  C   UNL     1       1.395   8.160  20.676  0.00  0.00    +0.000 A 
ATOM      8  C   UNL     1       1.035   9.355  20.045  0.00  0.00    +0.000 A 
ATOM      9  C   UNL     1       1.381   9.563  18.717  0.00  0.00    +0.000 A 
ATOM     10  F   UNL     1       1.016  10.698  18.107  0.00  0.00    +0.000 F 
ATOM     11  C   UNL     1       2.101   8.606  18.014  0.00  0.00    +0.000 A 
ATOM     12  C   UNL     1       2.468   7.415  18.647  0.00  0.00    +0.000 A 
ENDBRANCH   4   6
ENDBRANCH   1   3
BRANCH   1  13
ATOM     13  S   UNL     1       2.197   2.094  20.531  0.00  0.00    +0.000 S 
BRANCH  13  14
ATOM     14  C   UNL     1       2.641   2.665  18.947  0.00  0.00    +0.000 A 
ATOM     15  N   UNL     1       1.832   2.698  17.908  0.00  0.00    +0.000 NA
ATOM     16  N   UNL     1       2.549   3.244  16.862  0.00  0.00    +0.000 NA
ATOM     17  C   UNL     1       3.754   3.507  17.334  0.00  0.00    +0.000 A 
ATOM     18  O   UNL     1       3.888   3.148  18.653  0.00  0.00    +0.000 OA
BRANCH  17  19
ATOM     19  C   UNL     1       4.892   4.147  16.681  0.00  0.00    +0.000 A 
ATOM     20  C   UNL     1       5.488   3.569  15.561  0.00  0.00    +0.000 A 
ATOM     21  C   UNL     1       6.539   4.236  14.933  0.00  0.00    +0.000 A 
ATOM     22  C   UNL     1       6.968   5.457  15.443  0.00  0.00    +0.000 A 
ATOM     23  C   UNL     1       6.333   5.957  16.568  0.00  0.00    +0.000 A 
ATOM     24  N   UNL     1       5.308   5.333  17.194  0.00  0.00    +0.000 NA
ENDBRANCH  17  19
ENDBRANCH  13  14
ENDBRANCH   1  13
TORSDOF 5
ENDMDL
