MODEL 1
REMARK VINA RESULT:      -6.2      0.000      0.000
REMARK  Name = 
REMARK  5 active torsions:
REMARK  status: ('A' for Active; 'I' for Inactive)
REMARK    1  A    between atoms: C_1  and  C_2
REMARK    2  A    between atoms: C_9  and  C_10
REMARK    3  A    between atoms: C_9  and  C_11
REMARK    4  A    between atoms: C_13  and  C_14
REMARK    5  A    between atoms: C_13  and  C_15
REMARK                            x       y       z     vdW  Elec       q    Type
REMARK                         _______ _______ _______ _____ _____    ______ ____
ROOT
ATOM      1  C   UNL     1       6.570   7.263  17.286  0.00  0.00    +0.000 C 
ATOM      2  C   UNL     1       5.897   6.040  17.805  0.00  0.00    +0.000 A 
ATOM      3  N   UNL     1       6.617   4.895  18.023  0.00  0.00    +0.000 NA
ATOM      4  N   UNL     1       6.025   3.771  18.509  0.00  0.00    +0.000 NA
ATOM      5  C   UNL     1       4.723   3.827  18.789  0.00  0.00    +0.000 A 
ATOM      6  C   UNL     1       3.970   4.952  18.588  0.00  0.00    +0.000 A 
ATOM      7  N   UNL     1       4.536   6.080  18.075  0.00  0.00    +0.000 N 
ATOM      8  O   UNL     1       3.839   7.120  17.854  0.00  0.00    +0.000 OA
ATOM      9  C   UNL     1       2.554   4.732  18.977  0.00  0.00    +0.000 C 
ATOM     10  C   UNL     1       2.004   5.764  19.959  0.00  0.00    +0.000 C 
ATOM     11  C   UNL     1       1.625   4.592  17.772  0.00  0.00    +0.000 C 
ATOM     12  O   UNL     1       2.613   3.437  19.671  0.00  0.00    +0.000 OA
ATOM     13  C   UNL     1       3.855   2.740  19.340  0.00  0.00    +0.000 C 
ATOM     14  C   UNL     1       4.438   2.120  20.609  0.00  0.00    +0.000 C 
ATOM     15  C   UNL     1       3.549   1.651  18.312  0.00  0.00    +0.000 C 
ENDROOT
TORSDOF 0
ENDMDL
MODEL 2
REMARK VINA RESULT:      -6.2      2.675      4.388
REMARK  Name = 
REMARK  5 active torsions:
REMARK  status: ('A' for Active; 'I' for Inactive)
REMARK    1  A    between atoms: C_1  and  C_2
REMARK    2  A    between atoms: C_9  and  C_10
REMARK    3  A    between atoms: C_9  and  C_11
REMARK    4  A    between atoms: C_13  and  C_14
REMARK    5  A    between atoms: C_13  and  C_15
REMARK                            x       y       z     vdW  Elec       q    Type
REMARK                         _______ _______ _______ _____ _____    ______ ____
ROOT
ATOM      1  C   UNL     1       5.885   3.636  13.248  0.00  0.00    +0.000 C 
ATOM      2  C   UNL     1       6.246   4.422  14.460  0.00  0.00    +0.000 A 
ATOM      3  N   UNL     1       7.411   5.142  14.495  0.00  0.00    +0.000 NA
ATOM      4  N   UNL     1       7.755   5.877  15.587  0.00  0.00    +0.000 NA
ATOM      5  C   UNL     1       6.906   5.893  16.615  0.00  0.00    +0.000 A 
ATOM      6  C   UNL     1       5.733   5.190  16.618  0.00  0.00    +0.000 A 
ATOM      7  N   UNL     1       5.383   4.424  15.547  0.00  0.00    +0.000 N 
ATOM      8  O   UNL     1       4.310   3.742  15.552  0.00  0.00    +0.000 OA
ATOM      9  C   UNL     1       4.989   5.383  17.889  0.00  0.00    +0.000 C 
ATOM     10  C   UNL     1       3.543   5.838  17.709  0.00  0.00    +0.000 C 
ATOM     11  C   UNL     1       5.055   4.160  18.803  0.00  0.00    +0.000 C 
ATOM     12  O   UNL     1       5.731   6.480  18.527  0.00  0.00    +0.000 OA
ATOM     13  C   UNL     1       7.049   6.627  17.911  0.00  0.00    +0.000 C 
ATOM     14  C   UNL     1       7.345   8.112  17.705  0.00  0.00    +0.000 C 
ATOM     15  C   UNL     1       8.096   6.003  18.832  0.00  0.00    +0.000 C 
ENDROOT
TORSDOF 0
ENDMDL
MODEL 3
REMARK VINA RESULT:      -5.9      1.421      1.553
REMARK  Name = 
REMARK  5 active torsions:
REMARK  status: ('A' for Active; 'I' for Inactive)
REMARK    1  A    between atoms: C_1  and  C_2
REMARK    2  A    between atoms: C_9  and  C_10
REMARK    3  A    between atoms: C_9  and  C_11
REMARK    4  A    between atoms: C_13  and  C_14
REMARK    5  A    between atoms: C_13  and  C_15
REMARK                            x       y       z     vdW  Elec       q    Type
REMARK                         _______ _______ _______ _____ _____    ______ ____
ROOT
ATOM      1  C   UNL     1       7.142   5.447  17.937  0.00  0.00    +0.000 C 
ATOM      2  C   UNL     1       5.902   4.859  18.517  0.00  0.00    +0.000 A 
ATOM      3  N   UNL     1       5.936   3.628  19.117  0.00  0.00    +0.000 NA
ATOM      4  N   UNL     1       4.819   3.078  19.664  0.00  0.00    +0.000 NA
ATOM      5  C   UNL     1       3.693   3.790  19.620  0.00  0.00    +0.000 A 
ATOM      6  C   UNL     1       3.618   5.023  19.032  0.00  0.00    +0.000 A 
ATOM      7  N   UNL     1       4.718   5.580  18.452  0.00  0.00    +0.000 N 
ATOM      8  O   UNL     1       4.652   6.712  17.876  0.00  0.00    +0.000 OA
ATOM      9  C   UNL     1       2.245   5.583  19.120  0.00  0.00    +0.000 C 
ATOM     10  C   UNL     1       2.173   6.983  19.725  0.00  0.00    +0.000 C 
ATOM     11  C   UNL     1       1.503   5.539  17.784  0.00  0.00    +0.000 C 
ATOM     12  O   UNL     1       1.584   4.655  20.050  0.00  0.00    +0.000 OA
ATOM     13  C   UNL     1       2.348   3.413  20.158  0.00  0.00    +0.000 C 
ATOM     14  C   UNL     1       2.409   2.986  21.623  0.00  0.00    +0.000 C 
ATOM     15  C   UNL     1       1.657   2.336  19.323  0.00  0.00    +0.000 C 
ENDROOT
TORSDOF 0
ENDMDL
MODEL 4
REMARK VINA RESULT:      -5.9      2.076      3.329
REMARK  Name = 
REMARK  5 active torsions:
REMARK  status: ('A' for Active; 'I' for Inactive)
REMARK    1  A    between atoms: C_1  and  C_2
REMARK    2  A    between atoms: C_9  and  C_10
REMARK    3  A    between atoms: C_9  and  C_11
REMARK    4  A    between atoms: C_13  and  C_14
REMARK    5  A    between atoms: C_13  and  C_15
REMARK                            x       y       z     vdW  Elec       q    Type
REMARK                         _______ _______ _______ _____ _____    ______ ____
ROOT
ATOM      1  C   UNL     1       2.582   8.521  17.971  0.00  0.00    +0.000 C 
ATOM      2  C   UNL     1       2.861   7.068  18.137  0.00  0.00    +0.000 A 
ATOM      3  N   UNL     1       2.071   6.302  18.953  0.00  0.00    +0.000 NA
ATOM      4  N   UNL     1       2.299   4.970  19.109  0.00  0.00    +0.000 NA
ATOM      5  C   UNL     1       3.304   4.428  18.421  0.00  0.00    +0.000 A 
ATOM      6  C   UNL     1       4.114   5.159  17.594  0.00  0.00    +0.000 A 
ATOM      7  N   UNL     1       3.921   6.499  17.446  0.00  0.00    +0.000 N 
ATOM      8  O   UNL     1       4.688   7.193  16.705  0.00  0.00    +0.000 OA
ATOM      9  C   UNL     1       5.153   4.306  16.962  0.00  0.00    +0.000 C 
ATOM     10  C   UNL     1       5.209   4.405  15.440  0.00  0.00    +0.000 C 
ATOM     11  C   UNL     1       6.541   4.523  17.564  0.00  0.00    +0.000 C 
ATOM     12  O   UNL     1       4.703   2.949  17.309  0.00  0.00    +0.000 OA
ATOM     13  C   UNL     1       3.745   2.998  18.412  0.00  0.00    +0.000 C 
ATOM     14  C   UNL     1       2.592   2.039  18.120  0.00  0.00    +0.000 C 
ATOM     15  C   UNL     1       4.457   2.591  19.701  0.00  0.00    +0.000 C 
ENDROOT
TORSDOF 0
ENDMDL
MODEL 5
REMARK VINA RESULT:      -5.8      1.818      3.241
REMARK  Name = 
REMARK  5 active torsions:
REMARK  status: ('A' for Active; 'I' for Inactive)
REMARK    1  A    between atoms: C_1  and  C_2
REMARK    2  A    between atoms: C_9  and  C_10
REMARK    3  A    between atoms: C_9  and  C_11
REMARK    4  A    between atoms: C_13  and  C_14
REMARK    5  A    between atoms: C_13  and  C_15
REMARK                            x       y       z     vdW  Elec       q    Type
REMARK                         _______ _______ _______ _____ _____    ______ ____
ROOT
ATOM      1  C   UNL     1       5.049   6.740  16.894  0.00  0.00    +0.000 C 
ATOM      2  C   UNL     1       4.196   5.934  17.811  0.00  0.00    +0.000 A 
ATOM      3  N   UNL     1       3.157   6.522  18.482  0.00  0.00    +0.000 NA
ATOM      4  N   UNL     1       2.357   5.803  19.315  0.00  0.00    +0.000 NA
ATOM      5  C   UNL     1       2.605   4.498  19.438  0.00  0.00    +0.000 A 
ATOM      6  C   UNL     1       3.631   3.874  18.784  0.00  0.00    +0.000 A 
ATOM      7  N   UNL     1       4.461   4.581  17.968  0.00  0.00    +0.000 N 
ATOM      8  O   UNL     1       5.438   4.017  17.379  0.00  0.00    +0.000 OA
ATOM      9  C   UNL     1       3.680   2.425  19.108  0.00  0.00    +0.000 C 
ATOM     10  C   UNL     1       3.684   1.507  17.889  0.00  0.00    +0.000 C 
ATOM     11  C   UNL     1       4.829   2.070  20.051  0.00  0.00    +0.000 C 
ATOM     12  O   UNL     1       2.411   2.219  19.824  0.00  0.00    +0.000 OA
ATOM     13  C   UNL     1       1.868   3.499  20.274  0.00  0.00    +0.000 C 
ATOM     14  C   UNL     1       0.362   3.526  20.015  0.00  0.00    +0.000 C 
ATOM     15  C   UNL     1       2.149   3.656  21.768  0.00  0.00    +0.000 C 
ENDROOT
TORSDOF 0
ENDMDL
MODEL 6
REMARK VINA RESULT:      -5.8      2.237      4.509
REMARK  Name = 
REMARK  5 active torsions:
REMARK  status: ('A' for Active; 'I' for Inactive)
REMARK    1  A    between atoms: C_1  and  C_2
REMARK    2  A    between atoms: C_9  and  C_10
REMARK    3  A    between atoms: C_9  and  C_11
REMARK    4  A    between atoms: C_13  and  C_14
REMARK    5  A    between atoms: C_13  and  C_15
REMARK                            x       y       z     vdW  Elec       q    Type
REMARK                         _______ _______ _______ _____ _____    ______ ____
ROOT
ATOM      1  C   UNL     1       1.930   3.808  18.955  0.00  0.00    +0.000 C 
ATOM      2  C   UNL     1       3.271   4.416  18.732  0.00  0.00    +0.000 A 
ATOM      3  N   UNL     1       3.924   5.045  19.760  0.00  0.00    +0.000 NA
ATOM      4  N   UNL     1       5.155   5.596  19.583  0.00  0.00    +0.000 NA
ATOM      5  C   UNL     1       5.718   5.481  18.380  0.00  0.00    +0.000 A 
ATOM      6  C   UNL     1       5.100   4.857  17.330  0.00  0.00    +0.000 A 
ATOM      7  N   UNL     1       3.855   4.325  17.477  0.00  0.00    +0.000 N 
ATOM      8  O   UNL     1       3.259   3.771  16.499  0.00  0.00    +0.000 OA
ATOM      9  C   UNL     1       5.949   4.881  16.111  0.00  0.00    +0.000 C 
ATOM     10  C   UNL     1       6.180   3.511  15.477  0.00  0.00    +0.000 C 
ATOM     11  C   UNL     1       5.451   5.878  15.064  0.00  0.00    +0.000 C 
ATOM     12  O   UNL     1       7.238   5.360  16.632  0.00  0.00    +0.000 OA
ATOM     13  C   UNL     1       7.057   5.985  17.941  0.00  0.00    +0.000 C 
ATOM     14  C   UNL     1       8.179   5.534  18.874  0.00  0.00    +0.000 C 
ATOM     15  C   UNL     1       7.089   7.503  17.770  0.00  0.00    +0.000 C 
ENDROOT
TORSDOF 0
ENDMDL
MODEL 7
REMARK VINA RESULT:      -5.6      2.121      3.435
REMARK  Name = 
REMARK  5 active torsions:
REMARK  status: ('A' for Active; 'I' for Inactive)
REMARK    1  A    between atoms: C_1  and  C_2
REMARK    2  A    between atoms: C_9  and  C_10
REMARK    3  A    between atoms: C_9  and  C_11
REMARK    4  A    between atoms: C_13  and  C_14
REMARK    5  A    between atoms: C_13  and  C_15
REMARK                            x       y       z     vdW  Elec       q    Type
REMARK                         _______ _______ _______ _____ _____    ______ ____
ROOT
ATOM      1  C   UNL     1       1.896   8.177  18.858  0.00  0.00    +0.000 C 
ATOM      2  C   UNL     1       2.875   7.247  18.230  0.00  0.00    +0.000 A 
ATOM      3  N   UNL     1       3.833   7.727  17.377  0.00  0.00    +0.000 NA
ATOM      4  N   UNL     1       4.746   6.898  16.802  0.00  0.00    +0.000 NA
ATOM      5  C   UNL     1       4.693   5.604  17.118  0.00  0.00    +0.000 A 
ATOM      6  C   UNL     1       3.754   5.087  17.968  0.00  0.00    +0.000 A 
ATOM      7  N   UNL     1       2.813   5.894  18.531  0.00  0.00    +0.000 N 
ATOM      8  O   UNL     1       1.916   5.419  19.298  0.00  0.00    +0.000 OA
ATOM      9  C   UNL     1       3.924   3.621  18.135  0.00  0.00    +0.000 C 
ATOM     10  C   UNL     1       4.026   3.159  19.586  0.00  0.00    +0.000 C 
ATOM     11  C   UNL     1       2.858   2.815  17.391  0.00  0.00    +0.000 C 
ATOM     12  O   UNL     1       5.223   3.377  17.491  0.00  0.00    +0.000 OA
ATOM     13  C   UNL     1       5.585   4.504  16.634  0.00  0.00    +0.000 C 
ATOM     14  C   UNL     1       7.065   4.830  16.830  0.00  0.00    +0.000 C 
ATOM     15  C   UNL     1       5.317   4.123  15.179  0.00  0.00    +0.000 C 
ENDROOT
TORSDOF 0
ENDMDL
MODEL 8
REMARK VINA RESULT:      -5.5      1.956      3.943
REMARK  Name = 
REMARK  5 active torsions:
REMARK  status: ('A' for Active; 'I' for Inactive)
REMARK    1  A    between atoms: C_1  and  C_2
REMARK    2  A    between atoms: C_9  and  C_10
REMARK    3  A    between atoms: C_9  and  C_11
REMARK    4  A    between atoms: C_13  and  C_14
REMARK    5  A    between atoms: C_13  and  C_15
REMARK                            x       y       z     vdW  Elec       q    Type
REMARK                         _______ _______ _______ _____ _____    ______ ____
ROOT
ATOM      1  C   UNL     1       2.000   2.249  21.943  0.00  0.00    +0.000 C 
ATOM      2  C   UNL     1       2.807   2.890  20.869  0.00  0.00    +0.000 A 
ATOM      3  N   UNL     1       4.071   2.440  20.591  0.00  0.00    +0.000 NA
ATOM      4  N   UNL     1       4.821   3.003  19.606  0.00  0.00    +0.000 NA
ATOM      5  C   UNL     1       4.274   3.993  18.900  0.00  0.00    +0.000 A 
ATOM      6  C   UNL     1       3.015   4.469  19.144  0.00  0.00    +0.000 A 
ATOM      7  N   UNL     1       2.258   3.940  20.146  0.00  0.00    +0.000 N 
ATOM      8  O   UNL     1       1.098   4.396  20.401  0.00  0.00    +0.000 OA
ATOM      9  C   UNL     1       2.664   5.575  18.217  0.00  0.00    +0.000 C 
ATOM     10  C   UNL     1       1.350   5.375  17.466  0.00  0.00    +0.000 C 
ATOM     11  C   UNL     1       2.690   6.945  18.895  0.00  0.00    +0.000 C 
ATOM     12  O   UNL     1       3.757   5.522  17.234  0.00  0.00    +0.000 OA
ATOM     13  C   UNL     1       4.884   4.758  17.767  0.00  0.00    +0.000 C 
ATOM     14  C   UNL     1       5.430   3.839  16.676  0.00  0.00    +0.000 C 
ATOM     15  C   UNL     1       5.966   5.733  18.228  0.00  0.00    +0.000 C 
ENDROOT
TORSDOF 0
ENDMDL
MODEL 9
REMARK VINA RESULT:      -5.5      1.931      3.330
REMARK  Name = 
REMARK  5 active torsions:
REMARK  status: ('A' for Active; 'I' for Inactive)
REMARK    1  A    between atoms: C_1  and  C_2
REMARK    2  A    between atoms: C_9  and  C_10
REMARK    3  A    between atoms: C_9  and  C_11
REMARK    4  A    between atoms: C_13  and  C_14
REMARK    5  A    between atoms: C_13  and  C_15
REMARK                            x       y       z     vdW  Elec       q    Type
REMARK                         _______ _______ _______ _____ _____    ______ ____
ROOT
ATOM      1  C   UNL     1       1.905   8.107  19.785  0.00  0.00    +0.000 C 
ATOM      2  C   UNL     1       2.322   6.682  19.666  0.00  0.00    +0.000 A 
ATOM      3  N   UNL     1       1.711   5.718  20.424  0.00  0.00    +0.000 NA
ATOM      4  N   UNL     1       2.068   4.409  20.322  0.00  0.00    +0.000 NA
ATOM      5  C   UNL     1       3.016   4.092  19.441  0.00  0.00    +0.000 A 
ATOM      6  C   UNL     1       3.648   5.025  18.664  0.00  0.00    +0.000 A 
ATOM      7  N   UNL     1       3.327   6.344  18.771  0.00  0.00    +0.000 N 
ATOM      8  O   UNL     1       3.930   7.223  18.077  0.00  0.00    +0.000 OA
ATOM      9  C   UNL     1       4.663   4.396  17.781  0.00  0.00    +0.000 C 
ATOM     10  C   UNL     1       4.512   4.744  16.302  0.00  0.00    +0.000 C 
ATOM     11  C   UNL     1       6.095   4.657  18.247  0.00  0.00    +0.000 C 
ATOM     12  O   UNL     1       4.377   2.963  17.939  0.00  0.00    +0.000 OA
ATOM     13  C   UNL     1       3.569   2.735  19.136  0.00  0.00    +0.000 C 
ATOM     14  C   UNL     1       2.472   1.721  18.817  0.00  0.00    +0.000 C 
ATOM     15  C   UNL     1       4.474   2.202  20.246  0.00  0.00    +0.000 C 
ENDROOT
TORSDOF 0
ENDMDL
