MODEL 1
REMARK VINA RESULT:      -8.7      0.000      0.000
REMARK  Name = 
REMARK  7 active torsions:
REMARK  status: ('A' for Active; 'I' for Inactive)
REMARK    1  A    between atoms: C_1  and  C_2
REMARK    2  A    between atoms: C_17  and  C_18
REMARK    3  A    between atoms: C_19  and  C_20
REMARK    4  A    between atoms: C_20  and  C_21
REMARK    5  A    between atoms: C_21  and  C_22
REMARK    6  A    between atoms: N_24  and  C_25
REMARK    7  A    between atoms: C_25  and  C_26
REMARK                            x       y       z     vdW  Elec       q    Type
REMARK                         _______ _______ _______ _____ _____    ______ ____
ROOT
ATOM      1  C   UNL     1       2.042   3.399  21.273  0.00  0.00    +0.000 C 
ATOM      2  C   UNL     1       2.198   4.726  20.621  0.00  0.00    +0.000 A 
ATOM      3  N   UNL     1       1.731   5.820  21.226  0.00  0.00    +0.000 NA
ATOM      4  N   UNL     1       1.895   6.833  20.328  0.00  0.00    +0.000 N 
ATOM      5  C   UNL     1       1.318   8.116  20.594  0.00  0.00    +0.000 A 
ATOM      6  C   UNL     1       0.714   8.368  21.812  0.00  0.00    +0.000 A 
ATOM      7  C   UNL     1       0.093   9.605  22.019  0.00  0.00    +0.000 A 
ATOM      8  C   UNL     1       0.063  10.569  21.018  0.00  0.00    +0.000 A 
ATOM      9  N   UNL     1      -0.619  11.752  21.158  0.00  0.00    +0.000 N 
ATOM     10  C   UNL     1      -0.882  12.421  22.431  0.00  0.00    +0.000 C 
ATOM     11  C   UNL     1      -2.362  12.831  22.471  0.00  0.00    +0.000 C 
ATOM     12  O   UNL     1      -2.700  13.669  21.352  0.00  0.00    +0.000 OA
ATOM     13  C   UNL     1      -2.444  12.988  20.109  0.00  0.00    +0.000 C 
ATOM     14  C   UNL     1      -0.967  12.559  19.981  0.00  0.00    +0.000 C 
ATOM     15  N   UNL     1       0.677  10.280  19.853  0.00  0.00    +0.000 NA
ATOM     16  N   UNL     1       1.310   9.063  19.641  0.00  0.00    +0.000 NA
ATOM     17  C   UNL     1       2.606   6.397  19.214  0.00  0.00    +0.000 A 
ATOM     18  C   UNL     1       3.041   7.258  18.079  0.00  0.00    +0.000 C 
ATOM     19  C   UNL     1       2.792   5.027  19.368  0.00  0.00    +0.000 A 
ENDROOT
BRANCH  19  20
ATOM     20  C   UNL     1       3.422   4.068  18.399  0.00  0.00    +0.000 C 
BRANCH  20  21
ATOM     21  C   UNL     1       4.846   3.659  18.776  0.00  0.00    +0.000 C 
BRANCH  21  22
ATOM     22  C   UNL     1       5.886   4.440  18.001  0.00  0.00    +0.000 C 
ATOM     23  O   UNL     1       7.083   4.418  18.260  0.00  0.00    +0.000 OA
ATOM     24  N   UNL     1       5.345   5.174  16.968  0.00  0.00    +0.000 N 
ATOM     25  H   UNL     1       4.384   5.007  16.695  0.00  0.00    +0.000 HD
BRANCH  24  26
ATOM     26  C   UNL     1       6.193   5.890  16.044  0.00  0.00    +0.000 C 
BRANCH  26  27
ATOM     27  C   UNL     1       6.366   5.125  14.757  0.00  0.00    +0.000 A 
ATOM     28  C   UNL     1       7.479   5.370  13.937  0.00  0.00    +0.000 A 
ATOM     29  C   UNL     1       7.655   4.654  12.753  0.00  0.00    +0.000 A 
ATOM     30  C   UNL     1       6.714   3.702  12.381  0.00  0.00    +0.000 A 
ATOM     31  F   UNL     1       6.889   3.010  11.247  0.00  0.00    +0.000 F 
ATOM     32  C   UNL     1       5.594   3.458  13.166  0.00  0.00    +0.000 A 
ATOM     33  C   UNL     1       5.416   4.169  14.352  0.00  0.00    +0.000 A 
ENDBRANCH  26  27
ENDBRANCH  24  26
ENDBRANCH  21  22
ENDBRANCH  20  21
ENDBRANCH  19  20
TORSDOF 5
ENDMDL
MODEL 2
REMARK VINA RESULT:      -8.7      0.902      1.236
REMARK  Name = 
REMARK  7 active torsions:
REMARK  status: ('A' for Active; 'I' for Inactive)
REMARK    1  A    between atoms: C_1  and  C_2
REMARK    2  A    between atoms: C_17  and  C_18
REMARK    3  A    between atoms: C_19  and  C_20
REMARK    4  A    between atoms: C_20  and  C_21
REMARK    5  A    between atoms: C_21  and  C_22
REMARK    6  A    between atoms: N_24  and  C_25
REMARK    7  A    between atoms: C_25  and  C_26
REMARK                            x       y       z     vdW  Elec       q    Type
REMARK                         _______ _______ _______ _____ _____    ______ ____
ROOT
ATOM      1  C   UNL     1       1.256   3.314  21.010  0.00  0.00    +0.000 C 
ATOM      2  C   UNL     1       1.706   4.575  20.364  0.00  0.00    +0.000 A 
ATOM      3  N   UNL     1       1.402   5.749  20.918  0.00  0.00    +0.000 NA
ATOM      4  N   UNL     1       1.823   6.695  20.030  0.00  0.00    +0.000 N 
ATOM      5  C   UNL     1       1.472   8.066  20.235  0.00  0.00    +0.000 A 
ATOM      6  C   UNL     1       0.827   8.453  21.395  0.00  0.00    +0.000 A 
ATOM      7  C   UNL     1       0.430   9.788  21.540  0.00  0.00    +0.000 A 
ATOM      8  C   UNL     1       0.661  10.717  20.532  0.00  0.00    +0.000 A 
ATOM      9  N   UNL     1       0.199  12.009  20.605  0.00  0.00    +0.000 N 
ATOM     10  C   UNL     1      -0.039  12.743  21.846  0.00  0.00    +0.000 C 
ATOM     11  C   UNL     1      -1.416  13.419  21.756  0.00  0.00    +0.000 C 
ATOM     12  O   UNL     1      -1.501  14.278  20.606  0.00  0.00    +0.000 OA
ATOM     13  C   UNL     1      -1.274  13.533  19.395  0.00  0.00    +0.000 C 
ATOM     14  C   UNL     1       0.104  12.838  19.397  0.00  0.00    +0.000 C 
ATOM     15  N   UNL     1       1.305  10.294  19.426  0.00  0.00    +0.000 NA
ATOM     16  N   UNL     1       1.718   8.977  19.278  0.00  0.00    +0.000 NA
ATOM     17  C   UNL     1       2.530   6.110  18.983  0.00  0.00    +0.000 A 
ATOM     18  C   UNL     1       3.208   6.850  17.883  0.00  0.00    +0.000 C 
ATOM     19  C   UNL     1       2.447   4.733  19.164  0.00  0.00    +0.000 A 
ENDROOT
BRANCH  19  20
ATOM     20  C   UNL     1       2.967   3.652  18.259  0.00  0.00    +0.000 C 
BRANCH  20  21
ATOM     21  C   UNL     1       4.307   3.068  18.705  0.00  0.00    +0.000 C 
BRANCH  21  22
ATOM     22  C   UNL     1       5.467   3.975  18.353  0.00  0.00    +0.000 C 
ATOM     23  O   UNL     1       6.110   4.607  19.183  0.00  0.00    +0.000 OA
ATOM     24  N   UNL     1       5.730   4.009  17.001  0.00  0.00    +0.000 N 
ATOM     25  H   UNL     1       5.286   3.331  16.395  0.00  0.00    +0.000 HD
BRANCH  24  26
ATOM     26  C   UNL     1       6.873   4.726  16.486  0.00  0.00    +0.000 C 
BRANCH  26  27
ATOM     27  C   UNL     1       6.951   4.621  14.985  0.00  0.00    +0.000 A 
ATOM     28  C   UNL     1       6.101   3.740  14.296  0.00  0.00    +0.000 A 
ATOM     29  C   UNL     1       6.154   3.649  12.906  0.00  0.00    +0.000 A 
ATOM     30  C   UNL     1       7.064   4.429  12.202  0.00  0.00    +0.000 A 
ATOM     31  F   UNL     1       7.109   4.347  10.866  0.00  0.00    +0.000 F 
ATOM     32  C   UNL     1       7.929   5.292  12.864  0.00  0.00    +0.000 A 
ATOM     33  C   UNL     1       7.877   5.388  14.254  0.00  0.00    +0.000 A 
ENDBRANCH  26  27
ENDBRANCH  24  26
ENDBRANCH  21  22
ENDBRANCH  20  21
ENDBRANCH  19  20
TORSDOF 5
ENDMDL
MODEL 3
REMARK VINA RESULT:      -8.6      3.460      9.757
REMARK  Name = 
REMARK  7 active torsions:
REMARK  status: ('A' for Active; 'I' for Inactive)
REMARK    1  A    between atoms: C_1  and  C_2
REMARK    2  A    between atoms: C_17  and  C_18
REMARK    3  A    between atoms: C_19  and  C_20
REMARK    4  A    between atoms: C_20  and  C_21
REMARK    5  A    between atoms: C_21  and  C_22
REMARK    6  A    between atoms: N_24  and  C_25
REMARK    7  A    between atoms: C_25  and  C_26
REMARK                            x       y       z     vdW  Elec       q    Type
REMARK                         _______ _______ _______ _____ _____    ______ ____
ROOT
ATOM      1  C   UNL     1      -0.487  13.090  18.236  0.00  0.00    +0.000 C 
ATOM      2  C   UNL     1       0.048  12.055  19.159  0.00  0.00    +0.000 A 
ATOM      3  N   UNL     1       0.726  11.016  18.667  0.00  0.00    +0.000 NA
ATOM      4  N   UNL     1       0.952  10.190  19.729  0.00  0.00    +0.000 N 
ATOM      5  C   UNL     1       1.495   8.885  19.508  0.00  0.00    +0.000 A 
ATOM      6  C   UNL     1       1.914   8.510  18.246  0.00  0.00    +0.000 A 
ATOM      7  C   UNL     1       2.372   7.203  18.042  0.00  0.00    +0.000 A 
ATOM      8  C   UNL     1       2.396   6.281  19.082  0.00  0.00    +0.000 A 
ATOM      9  N   UNL     1       2.750   4.968  18.891  0.00  0.00    +0.000 N 
ATOM     10  C   UNL     1       3.653   4.488  17.846  0.00  0.00    +0.000 C 
ATOM     11  C   UNL     1       3.009   3.271  17.166  0.00  0.00    +0.000 C 
ATOM     12  O   UNL     1       2.708   2.239  18.122  0.00  0.00    +0.000 OA
ATOM     13  C   UNL     1       1.809   2.730  19.135  0.00  0.00    +0.000 C 
ATOM     14  C   UNL     1       2.394   3.946  19.883  0.00  0.00    +0.000 C 
ATOM     15  N   UNL     1       1.989   6.699  20.297  0.00  0.00    +0.000 NA
ATOM     16  N   UNL     1       1.548   7.997  20.515  0.00  0.00    +0.000 NA
ATOM     17  C   UNL     1       0.544  10.789  20.917  0.00  0.00    +0.000 A 
ATOM     18  C   UNL     1       0.722  10.211  22.278  0.00  0.00    +0.000 C 
ATOM     19  C   UNL     1      -0.068  11.990  20.571  0.00  0.00    +0.000 A 
ENDROOT
BRANCH  19  20
ATOM     20  C   UNL     1      -0.758  12.967  21.479  0.00  0.00    +0.000 C 
BRANCH  20  21
ATOM     21  C   UNL     1      -2.157  12.527  21.908  0.00  0.00    +0.000 C 
BRANCH  21  22
ATOM     22  C   UNL     1      -3.205  12.873  20.871  0.00  0.00    +0.000 C 
ATOM     23  O   UNL     1      -3.721  13.979  20.771  0.00  0.00    +0.000 OA
ATOM     24  N   UNL     1      -3.511  11.814  20.044  0.00  0.00    +0.000 N 
ATOM     25  H   UNL     1      -2.923  10.990  20.060  0.00  0.00    +0.000 HD
BRANCH  24  26
ATOM     26  C   UNL     1      -4.401  11.985  18.920  0.00  0.00    +0.000 C 
BRANCH  26  27
ATOM     27  C   UNL     1      -3.860  11.306  17.688  0.00  0.00    +0.000 A 
ATOM     28  C   UNL     1      -2.829  10.359  17.803  0.00  0.00    +0.000 A 
ATOM     29  C   UNL     1      -2.333   9.713  16.670  0.00  0.00    +0.000 A 
ATOM     30  C   UNL     1      -2.858  10.021  15.421  0.00  0.00    +0.000 A 
ATOM     31  F   UNL     1      -2.387   9.395  14.334  0.00  0.00    +0.000 F 
ATOM     32  C   UNL     1      -3.864  10.971  15.281  0.00  0.00    +0.000 A 
ATOM     33  C   UNL     1      -4.364  11.616  16.411  0.00  0.00    +0.000 A 
ENDBRANCH  26  27
ENDBRANCH  24  26
ENDBRANCH  21  22
ENDBRANCH  20  21
ENDBRANCH  19  20
TORSDOF 5
ENDMDL
MODEL 4
REMARK VINA RESULT:      -8.6      2.505      3.225
REMARK  Name = 
REMARK  7 active torsions:
REMARK  status: ('A' for Active; 'I' for Inactive)
REMARK    1  A    between atoms: C_1  and  C_2
REMARK    2  A    between atoms: C_17  and  C_18
REMARK    3  A    between atoms: C_19  and  C_20
REMARK    4  A    between atoms: C_20  and  C_21
REMARK    5  A    between atoms: C_21  and  C_22
REMARK    6  A    between atoms: N_24  and  C_25
REMARK    7  A    between atoms: C_25  and  C_26
REMARK                            x       y       z     vdW  Elec       q    Type
REMARK                         _______ _______ _______ _____ _____    ______ ____
ROOT
ATOM      1  C   UNL     1       1.471   2.553  21.214  0.00  0.00    +0.000 C 
ATOM      2  C   UNL     1       2.019   3.837  20.701  0.00  0.00    +0.000 A 
ATOM      3  N   UNL     1       1.448   4.989  21.056  0.00  0.00    +0.000 NA
ATOM      4  N   UNL     1       2.077   5.951  20.321  0.00  0.00    +0.000 N 
ATOM      5  C   UNL     1       1.569   7.289  20.323  0.00  0.00    +0.000 A 
ATOM      6  C   UNL     1       0.532   7.638  21.167  0.00  0.00    +0.000 A 
ATOM      7  C   UNL     1       0.005   8.933  21.097  0.00  0.00    +0.000 A 
ATOM      8  C   UNL     1       0.499   9.860  20.186  0.00  0.00    +0.000 A 
ATOM      9  N   UNL     1      -0.059  11.105  20.029  0.00  0.00    +0.000 N 
ATOM     10  C   UNL     1      -0.773  11.839  21.071  0.00  0.00    +0.000 C 
ATOM     11  C   UNL     1      -2.081  12.384  20.476  0.00  0.00    +0.000 C 
ATOM     12  O   UNL     1      -1.826  13.209  19.326  0.00  0.00    +0.000 OA
ATOM     13  C   UNL     1      -1.132  12.463  18.308  0.00  0.00    +0.000 C 
ATOM     14  C   UNL     1       0.208  11.898  18.821  0.00  0.00    +0.000 C 
ATOM     15  N   UNL     1       1.520   9.475  19.394  0.00  0.00    +0.000 NA
ATOM     16  N   UNL     1       2.061   8.199  19.465  0.00  0.00    +0.000 NA
ATOM     17  C   UNL     1       3.148   5.413  19.615  0.00  0.00    +0.000 A 
ATOM     18  C   UNL     1       4.108   6.190  18.781  0.00  0.00    +0.000 C 
ATOM     19  C   UNL     1       3.117   4.038  19.825  0.00  0.00    +0.000 A 
ENDROOT
BRANCH  19  20
ATOM     20  C   UNL     1       4.003   2.992  19.213  0.00  0.00    +0.000 C 
BRANCH  20  21
ATOM     21  C   UNL     1       3.633   2.639  17.772  0.00  0.00    +0.000 C 
BRANCH  21  22
ATOM     22  C   UNL     1       4.340   3.527  16.770  0.00  0.00    +0.000 C 
ATOM     23  O   UNL     1       3.755   4.272  15.994  0.00  0.00    +0.000 OA
ATOM     24  N   UNL     1       5.712   3.415  16.828  0.00  0.00    +0.000 N 
ATOM     25  H   UNL     1       6.134   2.925  17.607  0.00  0.00    +0.000 HD
BRANCH  24  26
ATOM     26  C   UNL     1       6.560   4.270  16.031  0.00  0.00    +0.000 C 
BRANCH  26  27
ATOM     27  C   UNL     1       7.103   5.413  16.848  0.00  0.00    +0.000 A 
ATOM     28  C   UNL     1       7.637   5.174  18.125  0.00  0.00    +0.000 A 
ATOM     29  C   UNL     1       8.158   6.224  18.881  0.00  0.00    +0.000 A 
ATOM     30  C   UNL     1       8.136   7.515  18.368  0.00  0.00    +0.000 A 
ATOM     31  F   UNL     1       8.644   8.521  19.092  0.00  0.00    +0.000 F 
ATOM     32  C   UNL     1       7.593   7.778  17.116  0.00  0.00    +0.000 A 
ATOM     33  C   UNL     1       7.074   6.731  16.356  0.00  0.00    +0.000 A 
ENDBRANCH  26  27
ENDBRANCH  24  26
ENDBRANCH  21  22
ENDBRANCH  20  21
ENDBRANCH  19  20
TORSDOF 5
ENDMDL
MODEL 5
REMARK VINA RESULT:      -8.5      0.660      1.073
REMARK  Name = 
REMARK  7 active torsions:
REMARK  status: ('A' for Active; 'I' for Inactive)
REMARK    1  A    between atoms: C_1  and  C_2
REMARK    2  A    between atoms: C_17  and  C_18
REMARK    3  A    between atoms: C_19  and  C_20
REMARK    4  A    between atoms: C_20  and  C_21
REMARK    5  A    between atoms: C_21  and  C_22
REMARK    6  A    between atoms: N_24  and  C_25
REMARK    7  A    between atoms: C_25  and  C_26
REMARK                            x       y       z     vdW  Elec       q    Type
REMARK                         _______ _______ _______ _____ _____    ______ ____
ROOT
ATOM      1  C   UNL     1       2.291   3.759  20.851  0.00  0.00    +0.000 C 
ATOM      2  C   UNL     1       2.347   5.159  20.354  0.00  0.00    +0.000 A 
ATOM      3  N   UNL     1       1.715   6.124  21.023  0.00  0.00    +0.000 NA
ATOM      4  N   UNL     1       1.833   7.243  20.251  0.00  0.00    +0.000 N 
ATOM      5  C   UNL     1       1.097   8.421  20.593  0.00  0.00    +0.000 A 
ATOM      6  C   UNL     1       0.376   8.473  21.771  0.00  0.00    +0.000 A 
ATOM      7  C   UNL     1      -0.394   9.609  22.047  0.00  0.00    +0.000 A 
ATOM      8  C   UNL     1      -0.454  10.670  21.151  0.00  0.00    +0.000 A 
ATOM      9  N   UNL     1      -1.274  11.753  21.349  0.00  0.00    +0.000 N 
ATOM     10  C   UNL     1      -1.708  12.246  22.655  0.00  0.00    +0.000 C 
ATOM     11  C   UNL     1      -3.223  12.494  22.604  0.00  0.00    +0.000 C 
ATOM     12  O   UNL     1      -3.566  13.411  21.550  0.00  0.00    +0.000 OA
ATOM     13  C   UNL     1      -3.139  12.902  20.272  0.00  0.00    +0.000 C 
ATOM     14  C   UNL     1      -1.619  12.645  20.234  0.00  0.00    +0.000 C 
ATOM     15  N   UNL     1       0.277  10.576  20.022  0.00  0.00    +0.000 NA
ATOM     16  N   UNL     1       1.057   9.462  19.745  0.00  0.00    +0.000 NA
ATOM     17  C   UNL     1       2.673   7.008  19.166  0.00  0.00    +0.000 A 
ATOM     18  C   UNL     1       3.095   8.030  18.168  0.00  0.00    +0.000 C 
ATOM     19  C   UNL     1       2.999   5.656  19.196  0.00  0.00    +0.000 A 
ENDROOT
BRANCH  19  20
ATOM     20  C   UNL     1       3.806   4.881  18.195  0.00  0.00    +0.000 C 
BRANCH  20  21
ATOM     21  C   UNL     1       5.121   4.336  18.754  0.00  0.00    +0.000 C 
BRANCH  21  22
ATOM     22  C   UNL     1       6.301   4.683  17.871  0.00  0.00    +0.000 C 
ATOM     23  O   UNL     1       7.463   4.427  18.161  0.00  0.00    +0.000 OA
ATOM     24  N   UNL     1       5.929   5.311  16.702  0.00  0.00    +0.000 N 
ATOM     25  H   UNL     1       4.952   5.328  16.441  0.00  0.00    +0.000 HD
BRANCH  24  26
ATOM     26  C   UNL     1       6.905   5.614  15.681  0.00  0.00    +0.000 C 
BRANCH  26  27
ATOM     27  C   UNL     1       6.628   4.841  14.417  0.00  0.00    +0.000 A 
ATOM     28  C   UNL     1       5.481   4.037  14.321  0.00  0.00    +0.000 A 
ATOM     29  C   UNL     1       5.208   3.332  13.149  0.00  0.00    +0.000 A 
ATOM     30  C   UNL     1       6.086   3.420  12.076  0.00  0.00    +0.000 A 
ATOM     31  F   UNL     1       5.818   2.749  10.948  0.00  0.00    +0.000 F 
ATOM     32  C   UNL     1       7.238   4.193  12.156  0.00  0.00    +0.000 A 
ATOM     33  C   UNL     1       7.514   4.901  13.325  0.00  0.00    +0.000 A 
ENDBRANCH  26  27
ENDBRANCH  24  26
ENDBRANCH  21  22
ENDBRANCH  20  21
ENDBRANCH  19  20
TORSDOF 5
ENDMDL
MODEL 6
REMARK VINA RESULT:      -8.5      3.094      9.631
REMARK  Name = 
REMARK  7 active torsions:
REMARK  status: ('A' for Active; 'I' for Inactive)
REMARK    1  A    between atoms: C_1  and  C_2
REMARK    2  A    between atoms: C_17  and  C_18
REMARK    3  A    between atoms: C_19  and  C_20
REMARK    4  A    between atoms: C_20  and  C_21
REMARK    5  A    between atoms: C_21  and  C_22
REMARK    6  A    between atoms: N_24  and  C_25
REMARK    7  A    between atoms: C_25  and  C_26
REMARK                            x       y       z     vdW  Elec       q    Type
REMARK                         _______ _______ _______ _____ _____    ______ ____
ROOT
ATOM      1  C   UNL     1      -0.133   9.541  23.546  0.00  0.00    +0.000 C 
ATOM      2  C   UNL     1       0.279   9.639  22.120  0.00  0.00    +0.000 A 
ATOM      3  N   UNL     1       0.742   8.559  21.490  0.00  0.00    +0.000 NA
ATOM      4  N   UNL     1       1.161   8.999  20.268  0.00  0.00    +0.000 N 
ATOM      5  C   UNL     1       1.892   8.118  19.410  0.00  0.00    +0.000 A 
ATOM      6  C   UNL     1       2.057   6.790  19.754  0.00  0.00    +0.000 A 
ATOM      7  C   UNL     1       2.838   5.967  18.934  0.00  0.00    +0.000 A 
ATOM      8  C   UNL     1       3.456   6.469  17.795  0.00  0.00    +0.000 A 
ATOM      9  N   UNL     1       4.304   5.712  17.025  0.00  0.00    +0.000 N 
ATOM     10  C   UNL     1       4.242   4.257  16.895  0.00  0.00    +0.000 C 
ATOM     11  C   UNL     1       5.660   3.691  17.064  0.00  0.00    +0.000 C 
ATOM     12  O   UNL     1       6.569   4.270  16.111  0.00  0.00    +0.000 OA
ATOM     13  C   UNL     1       6.623   5.701  16.263  0.00  0.00    +0.000 C 
ATOM     14  C   UNL     1       5.235   6.351  16.086  0.00  0.00    +0.000 C 
ATOM     15  N   UNL     1       3.254   7.768  17.495  0.00  0.00    +0.000 NA
ATOM     16  N   UNL     1       2.468   8.590  18.292  0.00  0.00    +0.000 NA
ATOM     17  C   UNL     1       0.817  10.334  20.080  0.00  0.00    +0.000 A 
ATOM     18  C   UNL     1       1.040  11.112  18.828  0.00  0.00    +0.000 C 
ATOM     19  C   UNL     1       0.266  10.780  21.277  0.00  0.00    +0.000 A 
ENDROOT
BRANCH  19  20
ATOM     20  C   UNL     1      -0.182  12.170  21.624  0.00  0.00    +0.000 C 
BRANCH  20  21
ATOM     21  C   UNL     1      -1.682  12.283  21.897  0.00  0.00    +0.000 C 
BRANCH  21  22
ATOM     22  C   UNL     1      -2.440  12.809  20.696  0.00  0.00    +0.000 C 
ATOM     23  O   UNL     1      -2.129  13.827  20.090  0.00  0.00    +0.000 OA
ATOM     24  N   UNL     1      -3.514  12.017  20.351  0.00  0.00    +0.000 N 
ATOM     25  H   UNL     1      -3.607  11.102  20.774  0.00  0.00    +0.000 HD
BRANCH  24  26
ATOM     26  C   UNL     1      -4.286  12.292  19.163  0.00  0.00    +0.000 C 
BRANCH  26  27
ATOM     27  C   UNL     1      -3.779  11.496  17.987  0.00  0.00    +0.000 A 
ATOM     28  C   UNL     1      -2.661  10.660  18.134  0.00  0.00    +0.000 A 
ATOM     29  C   UNL     1      -2.196   9.906  17.057  0.00  0.00    +0.000 A 
ATOM     30  C   UNL     1      -2.839   9.997  15.828  0.00  0.00    +0.000 A 
ATOM     31  F   UNL     1      -2.397   9.266  14.796  0.00  0.00    +0.000 F 
ATOM     32  C   UNL     1      -3.935  10.834  15.654  0.00  0.00    +0.000 A 
ATOM     33  C   UNL     1      -4.405  11.587  16.730  0.00  0.00    +0.000 A 
ENDBRANCH  26  27
ENDBRANCH  24  26
ENDBRANCH  21  22
ENDBRANCH  20  21
ENDBRANCH  19  20
TORSDOF 5
ENDMDL
MODEL 7
REMARK VINA RESULT:      -8.4      3.592      9.960
REMARK  Name = 
REMARK  7 active torsions:
REMARK  status: ('A' for Active; 'I' for Inactive)
REMARK    1  A    between atoms: C_1  and  C_2
REMARK    2  A    between atoms: C_17  and  C_18
REMARK    3  A    between atoms: C_19  and  C_20
REMARK    4  A    between atoms: C_20  and  C_21
REMARK    5  A    between atoms: C_21  and  C_22
REMARK    6  A    between atoms: N_24  and  C_25
REMARK    7  A    between atoms: C_25  and  C_26
REMARK                            x       y       z     vdW  Elec       q    Type
REMARK                         _______ _______ _______ _____ _____    ______ ____
ROOT
ATOM      1  C   UNL     1      -0.894  13.864  19.538  0.00  0.00    +0.000 C 
ATOM      2  C   UNL     1      -0.547  12.673  20.358  0.00  0.00    +0.000 A 
ATOM      3  N   UNL     1       0.266  11.740  19.858  0.00  0.00    +0.000 NA
ATOM      4  N   UNL     1       0.272  10.731  20.776  0.00  0.00    +0.000 N 
ATOM      5  C   UNL     1       0.901   9.486  20.456  0.00  0.00    +0.000 A 
ATOM      6  C   UNL     1       1.614   9.349  19.280  0.00  0.00    +0.000 A 
ATOM      7  C   UNL     1       2.157   8.100  18.956  0.00  0.00    +0.000 A 
ATOM      8  C   UNL     1       1.976   7.001  19.789  0.00  0.00    +0.000 A 
ATOM      9  N   UNL     1       2.414   5.744  19.451  0.00  0.00    +0.000 N 
ATOM     10  C   UNL     1       3.552   5.461  18.578  0.00  0.00    +0.000 C 
ATOM     11  C   UNL     1       3.130   4.394  17.558  0.00  0.00    +0.000 C 
ATOM     12  O   UNL     1       2.656   3.204  18.214  0.00  0.00    +0.000 OA
ATOM     13  C   UNL     1       1.529   3.504  19.060  0.00  0.00    +0.000 C 
ATOM     14  C   UNL     1       1.878   4.558  20.131  0.00  0.00    +0.000 C 
ATOM     15  N   UNL     1       1.284   7.189  20.930  0.00  0.00    +0.000 NA
ATOM     16  N   UNL     1       0.754   8.427  21.270  0.00  0.00    +0.000 NA
ATOM     17  C   UNL     1      -0.422  11.102  21.924  0.00  0.00    +0.000 A 
ATOM     18  C   UNL     1      -0.541  10.280  23.162  0.00  0.00    +0.000 C 
ATOM     19  C   UNL     1      -0.984  12.348  21.668  0.00  0.00    +0.000 A 
ENDROOT
BRANCH  19  20
ATOM     20  C   UNL     1      -1.901  13.145  22.551  0.00  0.00    +0.000 C 
BRANCH  20  21
ATOM     21  C   UNL     1      -3.368  12.729  22.448  0.00  0.00    +0.000 C 
BRANCH  21  22
ATOM     22  C   UNL     1      -4.008  13.212  21.163  0.00  0.00    +0.000 C 
ATOM     23  O   UNL     1      -4.117  14.394  20.863  0.00  0.00    +0.000 OA
ATOM     24  N   UNL     1      -4.447  12.180  20.362  0.00  0.00    +0.000 N 
ATOM     25  H   UNL     1      -4.165  11.233  20.579  0.00  0.00    +0.000 HD
BRANCH  24  26
ATOM     26  C   UNL     1      -4.977  12.441  19.044  0.00  0.00    +0.000 C 
BRANCH  26  27
ATOM     27  C   UNL     1      -4.241  11.649  17.994  0.00  0.00    +0.000 A 
ATOM     28  C   UNL     1      -3.024  11.022  18.311  0.00  0.00    +0.000 A 
ATOM     29  C   UNL     1      -2.344  10.273  17.351  0.00  0.00    +0.000 A 
ATOM     30  C   UNL     1      -2.872  10.159  16.070  0.00  0.00    +0.000 A 
ATOM     31  F   UNL     1      -2.223   9.432  15.151  0.00  0.00    +0.000 F 
ATOM     32  C   UNL     1      -4.063  10.788  15.729  0.00  0.00    +0.000 A 
ATOM     33  C   UNL     1      -4.748  11.535  16.687  0.00  0.00    +0.000 A 
ENDBRANCH  26  27
ENDBRANCH  24  26
ENDBRANCH  21  22
ENDBRANCH  20  21
ENDBRANCH  19  20
TORSDOF 5
ENDMDL
MODEL 8
REMARK VINA RESULT:      -8.3      1.396      1.810
REMARK  Name = 
REMARK  7 active torsions:
REMARK  status: ('A' for Active; 'I' for Inactive)
REMARK    1  A    between atoms: C_1  and  C_2
REMARK    2  A    between atoms: C_17  and  C_18
REMARK    3  A    between atoms: C_19  and  C_20
REMARK    4  A    between atoms: C_20  and  C_21
REMARK    5  A    between atoms: C_21  and  C_22
REMARK    6  A    between atoms: N_24  and  C_25
REMARK    7  A    between atoms: C_25  and  C_26
REMARK                            x       y       z     vdW  Elec       q    Type
REMARK                         _______ _______ _______ _____ _____    ______ ____
ROOT
ATOM      1  C   UNL     1       2.501   4.949  20.742  0.00  0.00    +0.000 C 
ATOM      2  C   UNL     1       2.206   6.331  20.279  0.00  0.00    +0.000 A 
ATOM      3  N   UNL     1       1.590   7.186  21.097  0.00  0.00    +0.000 NA
ATOM      4  N   UNL     1       1.340   8.296  20.345  0.00  0.00    +0.000 N 
ATOM      5  C   UNL     1       0.513   9.338  20.872  0.00  0.00    +0.000 A 
ATOM      6  C   UNL     1       0.080   9.285  22.184  0.00  0.00    +0.000 A 
ATOM      7  C   UNL     1      -0.787  10.279  22.653  0.00  0.00    +0.000 A 
ATOM      8  C   UNL     1      -1.226  11.300  21.819  0.00  0.00    +0.000 A 
ATOM      9  N   UNL     1      -2.150  12.233  22.224  0.00  0.00    +0.000 N 
ATOM     10  C   UNL     1      -2.353  12.665  23.605  0.00  0.00    +0.000 C 
ATOM     11  C   UNL     1      -3.860  12.652  23.904  0.00  0.00    +0.000 C 
ATOM     12  O   UNL     1      -4.582  13.483  22.977  0.00  0.00    +0.000 OA
ATOM     13  C   UNL     1      -4.376  13.033  21.624  0.00  0.00    +0.000 C 
ATOM     14  C   UNL     1      -2.883  13.037  21.237  0.00  0.00    +0.000 C 
ATOM     15  N   UNL     1      -0.765  11.315  20.553  0.00  0.00    +0.000 NA
ATOM     16  N   UNL     1       0.108  10.345  20.080  0.00  0.00    +0.000 NA
ATOM     17  C   UNL     1       1.939   8.191  19.093  0.00  0.00    +0.000 A 
ATOM     18  C   UNL     1       1.946   9.254  18.049  0.00  0.00    +0.000 C 
ATOM     19  C   UNL     1       2.486   6.914  19.016  0.00  0.00    +0.000 A 
ENDROOT
BRANCH  19  20
ATOM     20  C   UNL     1       3.164   6.271  17.840  0.00  0.00    +0.000 C 
BRANCH  20  21
ATOM     21  C   UNL     1       4.473   6.950  17.438  0.00  0.00    +0.000 C 
BRANCH  21  22
ATOM     22  C   UNL     1       5.555   5.945  17.104  0.00  0.00    +0.000 C 
ATOM     23  O   UNL     1       5.823   4.978  17.807  0.00  0.00    +0.000 OA
ATOM     24  N   UNL     1       6.203   6.228  15.921  0.00  0.00    +0.000 N 
ATOM     25  H   UNL     1       5.816   6.929  15.302  0.00  0.00    +0.000 HD
BRANCH  24  26
ATOM     26  C   UNL     1       7.185   5.318  15.379  0.00  0.00    +0.000 C 
BRANCH  26  27
ATOM     27  C   UNL     1       6.640   4.575  14.187  0.00  0.00    +0.000 A 
ATOM     28  C   UNL     1       7.423   4.428  13.031  0.00  0.00    +0.000 A 
ATOM     29  C   UNL     1       6.933   3.728  11.929  0.00  0.00    +0.000 A 
ATOM     30  C   UNL     1       5.655   3.183  11.976  0.00  0.00    +0.000 A 
ATOM     31  F   UNL     1       5.189   2.503  10.921  0.00  0.00    +0.000 F 
ATOM     32  C   UNL     1       4.854   3.334  13.102  0.00  0.00    +0.000 A 
ATOM     33  C   UNL     1       5.342   4.032  14.206  0.00  0.00    +0.000 A 
ENDBRANCH  26  27
ENDBRANCH  24  26
ENDBRANCH  21  22
ENDBRANCH  20  21
ENDBRANCH  19  20
TORSDOF 5
ENDMDL
MODEL 9
REMARK VINA RESULT:      -8.3      2.523      3.221
REMARK  Name = 
REMARK  7 active torsions:
REMARK  status: ('A' for Active; 'I' for Inactive)
REMARK    1  A    between atoms: C_1  and  C_2
REMARK    2  A    between atoms: C_17  and  C_18
REMARK    3  A    between atoms: C_19  and  C_20
REMARK    4  A    between atoms: C_20  and  C_21
REMARK    5  A    between atoms: C_21  and  C_22
REMARK    6  A    between atoms: N_24  and  C_25
REMARK    7  A    between atoms: C_25  and  C_26
REMARK                            x       y       z     vdW  Elec       q    Type
REMARK                         _______ _______ _______ _____ _____    ______ ____
ROOT
ATOM      1  C   UNL     1       2.104   2.877  21.489  0.00  0.00    +0.000 C 
ATOM      2  C   UNL     1       2.387   4.124  20.731  0.00  0.00    +0.000 A 
ATOM      3  N   UNL     1       1.934   5.293  21.186  0.00  0.00    +0.000 NA
ATOM      4  N   UNL     1       2.227   6.203  20.214  0.00  0.00    +0.000 N 
ATOM      5  C   UNL     1       1.703   7.532  20.305  0.00  0.00    +0.000 A 
ATOM      6  C   UNL     1       1.016   7.932  21.436  0.00  0.00    +0.000 A 
ATOM      7  C   UNL     1       0.450   9.211  21.469  0.00  0.00    +0.000 A 
ATOM      8  C   UNL     1       0.556  10.072  20.383  0.00  0.00    +0.000 A 
ATOM      9  N   UNL     1      -0.068  11.294  20.350  0.00  0.00    +0.000 N 
ATOM     10  C   UNL     1      -0.397  12.098  21.526  0.00  0.00    +0.000 C 
ATOM     11  C   UNL     1      -1.850  12.580  21.397  0.00  0.00    +0.000 C 
ATOM     12  O   UNL     1      -2.048  13.318  20.178  0.00  0.00    +0.000 OA
ATOM     13  C   UNL     1      -1.729  12.504  19.033  0.00  0.00    +0.000 C 
ATOM     14  C   UNL     1      -0.273  11.996  19.076  0.00  0.00    +0.000 C 
ATOM     15  N   UNL     1       1.247   9.640  19.309  0.00  0.00    +0.000 NA
ATOM     16  N   UNL     1       1.827   8.379  19.270  0.00  0.00    +0.000 NA
ATOM     17  C   UNL     1       3.002   5.625  19.212  0.00  0.00    +0.000 A 
ATOM     18  C   UNL     1       3.576   6.348  18.043  0.00  0.00    +0.000 C 
ATOM     19  C   UNL     1       3.098   4.270  19.512  0.00  0.00    +0.000 A 
ENDROOT
BRANCH  19  20
ATOM     20  C   UNL     1       3.751   3.191  18.697  0.00  0.00    +0.000 C 
BRANCH  20  21
ATOM     21  C   UNL     1       3.402   3.245  17.210  0.00  0.00    +0.000 C 
BRANCH  21  22
ATOM     22  C   UNL     1       4.548   3.778  16.376  0.00  0.00    +0.000 C 
ATOM     23  O   UNL     1       4.409   4.247  15.254  0.00  0.00    +0.000 OA
ATOM     24  N   UNL     1       5.765   3.686  17.017  0.00  0.00    +0.000 N 
ATOM     25  H   UNL     1       5.787   3.461  18.003  0.00  0.00    +0.000 HD
BRANCH  24  26
ATOM     26  C   UNL     1       6.956   4.251  16.427  0.00  0.00    +0.000 C 
BRANCH  26  27
ATOM     27  C   UNL     1       7.404   5.481  17.174  0.00  0.00    +0.000 A 
ATOM     28  C   UNL     1       7.341   6.740  16.556  0.00  0.00    +0.000 A 
ATOM     29  C   UNL     1       7.737   7.886  17.246  0.00  0.00    +0.000 A 
ATOM     30  C   UNL     1       8.207   7.774  18.549  0.00  0.00    +0.000 A 
ATOM     31  F   UNL     1       8.579   8.876  19.213  0.00  0.00    +0.000 F 
ATOM     32  C   UNL     1       8.297   6.535  19.172  0.00  0.00    +0.000 A 
ATOM     33  C   UNL     1       7.900   5.388  18.487  0.00  0.00    +0.000 A 
ENDBRANCH  26  27
ENDBRANCH  24  26
ENDBRANCH  21  22
ENDBRANCH  20  21
ENDBRANCH  19  20
TORSDOF 5
ENDMDL
