MODEL 1
REMARK VINA RESULT:      -7.7      0.000      0.000
REMARK  Name = 
REMARK  3 active torsions:
REMARK  status: ('A' for Active; 'I' for Inactive)
REMARK    1  A    between atoms: C_2  and  C_18
REMARK    2  A    between atoms: N_3  and  N_4
REMARK    3  A    between atoms: C_5  and  C_6
REMARK                            x       y       z     vdW  Elec       q    Type
REMARK                         _______ _______ _______ _____ _____    ______ ____
ROOT
ATOM      1  C   UNL     1       6.685   6.326  17.917  0.00  0.00    +0.000 A 
ATOM      2  C   UNL     1       5.490   6.144  17.323  0.00  0.00    +0.000 A 
ATOM      3 CL   UNL     1       4.939   7.172  16.031  0.00  0.00    +0.000 Cl
ATOM      4  C   UNL     1       4.613   5.026  17.716  0.00  0.00    +0.000 A 
ATOM      5  C   UNL     1       3.331   4.783  17.198  0.00  0.00    +0.000 A 
ATOM      6  C   UNL     1       2.567   3.691  17.639  0.00  0.00    +0.000 A 
ATOM      7  C   UNL     1       3.073   2.820  18.601  0.00  0.00    +0.000 A 
ATOM      8  C   UNL     1       4.343   3.037  19.119  0.00  0.00    +0.000 A 
ATOM      9  C   UNL     1       5.087   4.131  18.671  0.00  0.00    +0.000 A 
ATOM     10  O   UNL     1       6.348   4.301  19.258  0.00  0.00    +0.000 OA
ATOM     11  C   UNL     1       7.127   5.419  19.006  0.00  0.00    +0.000 A 
ATOM     12  O   UNL     1       8.109   5.641  19.703  0.00  0.00    +0.000 OA
ENDROOT
BRANCH   1  14
ATOM     13  N   UNL     1       7.717   8.512  18.221  0.00  0.00    +0.000 NA
ATOM     14  C   UNL     1       7.578   7.448  17.502  0.00  0.00    +0.000 C 
BRANCH  13  17
ATOM     15  O   UNL     1       9.090  10.151  19.913  0.00  0.00    +0.000 OA
ATOM     16  C   UNL     1       9.181  10.315  18.696  0.00  0.00    +0.000 C 
ATOM     17  N   UNL     1       8.534   9.506  17.763  0.00  0.00    +0.000 N 
ATOM     18  H   UNL     1       8.643   9.695  16.772  0.00  0.00    +0.000 HD
BRANCH  16  19
ATOM     19  C   UNL     1       9.996  11.371  18.135  0.00  0.00    +0.000 A 
ATOM     20  C   UNL     1      11.374  11.476  18.062  0.00  0.00    +0.000 A 
ATOM     21  C   UNL     1      11.665  12.700  17.423  0.00  0.00    +0.000 A 
ATOM     22  C   UNL     1      10.450  13.279  17.148  0.00  0.00    +0.000 A 
ATOM     23  O   UNL     1       9.428  12.484  17.568  0.00  0.00    +0.000 OA
ENDBRANCH  16  19
ENDBRANCH  13  17
ENDBRANCH   1  14
TORSDOF 3
ENDMDL
MODEL 2
REMARK VINA RESULT:      -7.7      1.505      1.570
REMARK  Name = 
REMARK  3 active torsions:
REMARK  status: ('A' for Active; 'I' for Inactive)
REMARK    1  A    between atoms: C_2  and  C_18
REMARK    2  A    between atoms: N_3  and  N_4
REMARK    3  A    between atoms: C_5  and  C_6
REMARK                            x       y       z     vdW  Elec       q    Type
REMARK                         _______ _______ _______ _____ _____    ______ ____
ROOT
ATOM      1  C   UNL     1       5.577   6.145  17.041  0.00  0.00    +0.000 A 
ATOM      2  C   UNL     1       4.280   6.161  17.402  0.00  0.00    +0.000 A 
ATOM      3 CL   UNL     1       3.397   7.649  17.597  0.00  0.00    +0.000 Cl
ATOM      4  C   UNL     1       3.537   4.904  17.604  0.00  0.00    +0.000 A 
ATOM      5  C   UNL     1       2.203   4.813  18.033  0.00  0.00    +0.000 A 
ATOM      6  C   UNL     1       1.581   3.567  18.202  0.00  0.00    +0.000 A 
ATOM      7  C   UNL     1       2.277   2.390  17.939  0.00  0.00    +0.000 A 
ATOM      8  C   UNL     1       3.595   2.458  17.505  0.00  0.00    +0.000 A 
ATOM      9  C   UNL     1       4.199   3.708  17.347  0.00  0.00    +0.000 A 
ATOM     10  O   UNL     1       5.537   3.696  16.932  0.00  0.00    +0.000 OA
ATOM     11  C   UNL     1       6.293   4.856  16.870  0.00  0.00    +0.000 A 
ATOM     12  O   UNL     1       7.507   4.779  16.725  0.00  0.00    +0.000 OA
ENDROOT
BRANCH   1  14
ATOM     13  N   UNL     1       7.128   7.905  17.703  0.00  0.00    +0.000 NA
ATOM     14  C   UNL     1       6.321   7.421  16.818  0.00  0.00    +0.000 C 
BRANCH  13  17
ATOM     15  O   UNL     1       8.998   8.963  19.381  0.00  0.00    +0.000 OA
ATOM     16  C   UNL     1       8.681   9.571  18.359  0.00  0.00    +0.000 C 
ATOM     17  N   UNL     1       7.754   9.089  17.437  0.00  0.00    +0.000 N 
ATOM     18  H   UNL     1       7.528   9.640  16.615  0.00  0.00    +0.000 HD
BRANCH  16  19
ATOM     19  C   UNL     1       9.271  10.850  18.028  0.00  0.00    +0.000 A 
ATOM     20  C   UNL     1      10.605  11.205  17.930  0.00  0.00    +0.000 A 
ATOM     21  C   UNL     1      10.648  12.572  17.581  0.00  0.00    +0.000 A 
ATOM     22  C   UNL     1       9.338  12.979  17.492  0.00  0.00    +0.000 A 
ATOM     23  O   UNL     1       8.491  11.946  17.755  0.00  0.00    +0.000 OA
ENDBRANCH  16  19
ENDBRANCH  13  17
ENDBRANCH   1  14
TORSDOF 3
ENDMDL
MODEL 3
REMARK VINA RESULT:      -7.1      5.288      7.148
REMARK  Name = 
REMARK  3 active torsions:
REMARK  status: ('A' for Active; 'I' for Inactive)
REMARK    1  A    between atoms: C_2  and  C_18
REMARK    2  A    between atoms: N_3  and  N_4
REMARK    3  A    between atoms: C_5  and  C_6
REMARK                            x       y       z     vdW  Elec       q    Type
REMARK                         _______ _______ _______ _____ _____    ______ ____
ROOT
ATOM      1  C   UNL     1       2.135   7.691  19.053  0.00  0.00    +0.000 A 
ATOM      2  C   UNL     1       1.683   8.959  19.096  0.00  0.00    +0.000 A 
ATOM      3 CL   UNL     1       1.855  10.044  17.746  0.00  0.00    +0.000 Cl
ATOM      4  C   UNL     1       0.976   9.468  20.285  0.00  0.00    +0.000 A 
ATOM      5  C   UNL     1       0.516  10.785  20.450  0.00  0.00    +0.000 A 
ATOM      6  C   UNL     1      -0.145  11.178  21.624  0.00  0.00    +0.000 A 
ATOM      7  C   UNL     1      -0.363  10.263  22.650  0.00  0.00    +0.000 A 
ATOM      8  C   UNL     1       0.075   8.953  22.503  0.00  0.00    +0.000 A 
ATOM      9  C   UNL     1       0.735   8.581  21.330  0.00  0.00    +0.000 A 
ATOM     10  O   UNL     1       1.171   7.251  21.265  0.00  0.00    +0.000 OA
ATOM     11  C   UNL     1       1.957   6.790  20.219  0.00  0.00    +0.000 A 
ATOM     12  O   UNL     1       2.503   5.698  20.311  0.00  0.00    +0.000 OA
ENDROOT
BRANCH   1  14
ATOM     13  N   UNL     1       4.120   7.077  17.780  0.00  0.00    +0.000 NA
ATOM     14  C   UNL     1       2.833   7.173  17.839  0.00  0.00    +0.000 C 
BRANCH  13  17
ATOM     15  O   UNL     1       5.454   4.702  17.672  0.00  0.00    +0.000 OA
ATOM     16  C   UNL     1       5.373   5.403  16.663  0.00  0.00    +0.000 C 
ATOM     17  N   UNL     1       4.688   6.616  16.626  0.00  0.00    +0.000 N 
ATOM     18  H   UNL     1       4.661   7.153  15.766  0.00  0.00    +0.000 HD
BRANCH  16  19
ATOM     19  C   UNL     1       5.982   5.001  15.413  0.00  0.00    +0.000 A 
ATOM     20  C   UNL     1       5.543   4.083  14.475  0.00  0.00    +0.000 A 
ATOM     21  C   UNL     1       6.500   4.058  13.438  0.00  0.00    +0.000 A 
ATOM     22  C   UNL     1       7.473   4.958  13.802  0.00  0.00    +0.000 A 
ATOM     23  O   UNL     1       7.171   5.542  14.994  0.00  0.00    +0.000 OA
ENDBRANCH  16  19
ENDBRANCH  13  17
ENDBRANCH   1  14
TORSDOF 3
ENDMDL
MODEL 4
REMARK VINA RESULT:      -7.0      5.246      7.064
REMARK  Name = 
REMARK  3 active torsions:
REMARK  status: ('A' for Active; 'I' for Inactive)
REMARK    1  A    between atoms: C_2  and  C_18
REMARK    2  A    between atoms: N_3  and  N_4
REMARK    3  A    between atoms: C_5  and  C_6
REMARK                            x       y       z     vdW  Elec       q    Type
REMARK                         _______ _______ _______ _____ _____    ______ ____
ROOT
ATOM      1  C   UNL     1       2.281   6.899  19.161  0.00  0.00    +0.000 A 
ATOM      2  C   UNL     1       1.952   8.192  18.982  0.00  0.00    +0.000 A 
ATOM      3 CL   UNL     1       2.292   9.032  17.496  0.00  0.00    +0.000 Cl
ATOM      4  C   UNL     1       1.241   8.943  20.033  0.00  0.00    +0.000 A 
ATOM      5  C   UNL     1       0.904  10.304  19.967  0.00  0.00    +0.000 A 
ATOM      6  C   UNL     1       0.229  10.935  21.024  0.00  0.00    +0.000 A 
ATOM      7  C   UNL     1      -0.126  10.215  22.162  0.00  0.00    +0.000 A 
ATOM      8  C   UNL     1       0.191   8.865  22.243  0.00  0.00    +0.000 A 
ATOM      9  C   UNL     1       0.866   8.256  21.184  0.00  0.00    +0.000 A 
ATOM     10  O   UNL     1       1.175   6.899  21.349  0.00  0.00    +0.000 OA
ATOM     11  C   UNL     1       1.962   6.212  20.437  0.00  0.00    +0.000 A 
ATOM     12  O   UNL     1       2.394   5.104  20.727  0.00  0.00    +0.000 OA
ENDROOT
BRANCH   1  14
ATOM     13  N   UNL     1       4.267   5.990  18.079  0.00  0.00    +0.000 NA
ATOM     14  C   UNL     1       2.983   6.137  18.085  0.00  0.00    +0.000 C 
BRANCH  13  17
ATOM     15  O   UNL     1       5.252   7.243  15.867  0.00  0.00    +0.000 OA
ATOM     16  C   UNL     1       5.296   6.016  15.944  0.00  0.00    +0.000 C 
ATOM     17  N   UNL     1       4.839   5.300  17.049  0.00  0.00    +0.000 N 
ATOM     18  H   UNL     1       4.895   4.286  17.050  0.00  0.00    +0.000 HD
BRANCH  16  19
ATOM     19  C   UNL     1       5.851   5.212  14.876  0.00  0.00    +0.000 A 
ATOM     20  C   UNL     1       5.317   4.106  14.238  0.00  0.00    +0.000 A 
ATOM     21  C   UNL     1       6.257   3.690  13.270  0.00  0.00    +0.000 A 
ATOM     22  C   UNL     1       7.316   4.560  13.375  0.00  0.00    +0.000 A 
ATOM     23  O   UNL     1       7.083   5.492  14.340  0.00  0.00    +0.000 OA
ENDBRANCH  16  19
ENDBRANCH  13  17
ENDBRANCH   1  14
TORSDOF 3
ENDMDL
MODEL 5
REMARK VINA RESULT:      -7.0      7.657      9.769
REMARK  Name = 
REMARK  3 active torsions:
REMARK  status: ('A' for Active; 'I' for Inactive)
REMARK    1  A    between atoms: C_2  and  C_18
REMARK    2  A    between atoms: N_3  and  N_4
REMARK    3  A    between atoms: C_5  and  C_6
REMARK                            x       y       z     vdW  Elec       q    Type
REMARK                         _______ _______ _______ _____ _____    ______ ____
ROOT
ATOM      1  C   UNL     1      -0.092   9.744  21.517  0.00  0.00    +0.000 A 
ATOM      2  C   UNL     1      -0.647  10.598  20.636  0.00  0.00    +0.000 A 
ATOM      3 CL   UNL     1      -0.752  10.230  18.938  0.00  0.00    +0.000 Cl
ATOM      4  C   UNL     1      -1.236  11.872  21.088  0.00  0.00    +0.000 A 
ATOM      5  C   UNL     1      -1.788  12.851  20.247  0.00  0.00    +0.000 A 
ATOM      6  C   UNL     1      -2.322  14.038  20.772  0.00  0.00    +0.000 A 
ATOM      7  C   UNL     1      -2.321  14.264  22.145  0.00  0.00    +0.000 A 
ATOM      8  C   UNL     1      -1.788  13.304  22.996  0.00  0.00    +0.000 A 
ATOM      9  C   UNL     1      -1.257  12.131  22.455  0.00  0.00    +0.000 A 
ATOM     10  O   UNL     1      -0.714  11.221  23.372  0.00  0.00    +0.000 OA
ATOM     11  C   UNL     1      -0.033  10.086  22.960  0.00  0.00    +0.000 A 
ATOM     12  O   UNL     1       0.617   9.443  23.775  0.00  0.00    +0.000 OA
ENDROOT
BRANCH   1  14
ATOM     13  N   UNL     1       1.694   8.357  20.607  0.00  0.00    +0.000 NA
ATOM     14  C   UNL     1       0.487   8.446  21.057  0.00  0.00    +0.000 C 
BRANCH  13  17
ATOM     15  O   UNL     1       2.574   7.946  18.060  0.00  0.00    +0.000 OA
ATOM     16  C   UNL     1       2.554   7.009  18.858  0.00  0.00    +0.000 C 
ATOM     17  N   UNL     1       2.144   7.139  20.183  0.00  0.00    +0.000 N 
ATOM     18  H   UNL     1       2.143   6.327  20.792  0.00  0.00    +0.000 HD
BRANCH  16  19
ATOM     19  C   UNL     1       2.978   5.680  18.472  0.00  0.00    +0.000 A 
ATOM     20  C   UNL     1       2.245   4.652  17.904  0.00  0.00    +0.000 A 
ATOM     21  C   UNL     1       3.124   3.563  17.726  0.00  0.00    +0.000 A 
ATOM     22  C   UNL     1       4.344   3.982  18.200  0.00  0.00    +0.000 A 
ATOM     23  O   UNL     1       4.273   5.265  18.651  0.00  0.00    +0.000 OA
ENDBRANCH  16  19
ENDBRANCH  13  17
ENDBRANCH   1  14
TORSDOF 3
ENDMDL
MODEL 6
REMARK VINA RESULT:      -7.0      6.162      7.750
REMARK  Name = 
REMARK  3 active torsions:
REMARK  status: ('A' for Active; 'I' for Inactive)
REMARK    1  A    between atoms: C_2  and  C_18
REMARK    2  A    between atoms: N_3  and  N_4
REMARK    3  A    between atoms: C_5  and  C_6
REMARK                            x       y       z     vdW  Elec       q    Type
REMARK                         _______ _______ _______ _____ _____    ______ ____
ROOT
ATOM      1  C   UNL     1       2.463   6.629  19.546  0.00  0.00    +0.000 A 
ATOM      2  C   UNL     1       3.027   7.035  18.393  0.00  0.00    +0.000 A 
ATOM      3 CL   UNL     1       2.595   8.543  17.638  0.00  0.00    +0.000 Cl
ATOM      4  C   UNL     1       4.077   6.231  17.741  0.00  0.00    +0.000 A 
ATOM      5  C   UNL     1       4.686   6.538  16.514  0.00  0.00    +0.000 A 
ATOM      6  C   UNL     1       5.676   5.706  15.969  0.00  0.00    +0.000 A 
ATOM      7  C   UNL     1       6.080   4.557  16.644  0.00  0.00    +0.000 A 
ATOM      8  C   UNL     1       5.497   4.240  17.864  0.00  0.00    +0.000 A 
ATOM      9  C   UNL     1       4.510   5.077  18.388  0.00  0.00    +0.000 A 
ATOM     10  O   UNL     1       3.949   4.679  19.609  0.00  0.00    +0.000 OA
ATOM     11  C   UNL     1       2.868   5.343  20.168  0.00  0.00    +0.000 A 
ATOM     12  O   UNL     1       2.268   4.836  21.108  0.00  0.00    +0.000 OA
ENDROOT
BRANCH   1  14
ATOM     13  N   UNL     1       1.713   8.401  21.041  0.00  0.00    +0.000 NA
ATOM     14  C   UNL     1       1.414   7.456  20.213  0.00  0.00    +0.000 C 
BRANCH  13  17
ATOM     15  O   UNL     1       0.893  10.828  20.106  0.00  0.00    +0.000 OA
ATOM     16  C   UNL     1       0.356  10.344  21.102  0.00  0.00    +0.000 C 
ATOM     17  N   UNL     1       0.696   9.099  21.628  0.00  0.00    +0.000 N 
ATOM     18  H   UNL     1       0.221   8.756  22.457  0.00  0.00    +0.000 HD
BRANCH  16  19
ATOM     19  C   UNL     1      -0.701  11.041  21.803  0.00  0.00    +0.000 A 
ATOM     20  C   UNL     1      -1.179  10.851  23.088  0.00  0.00    +0.000 A 
ATOM     21  C   UNL     1      -2.217  11.787  23.289  0.00  0.00    +0.000 A 
ATOM     22  C   UNL     1      -2.321  12.492  22.113  0.00  0.00    +0.000 A 
ATOM     23  O   UNL     1      -1.405  12.055  21.205  0.00  0.00    +0.000 OA
ENDBRANCH  16  19
ENDBRANCH  13  17
ENDBRANCH   1  14
TORSDOF 3
ENDMDL
MODEL 7
REMARK VINA RESULT:      -7.0      1.844      2.347
REMARK  Name = 
REMARK  3 active torsions:
REMARK  status: ('A' for Active; 'I' for Inactive)
REMARK    1  A    between atoms: C_2  and  C_18
REMARK    2  A    between atoms: N_3  and  N_4
REMARK    3  A    between atoms: C_5  and  C_6
REMARK                            x       y       z     vdW  Elec       q    Type
REMARK                         _______ _______ _______ _____ _____    ______ ____
ROOT
ATOM      1  C   UNL     1       6.434   6.569  17.352  0.00  0.00    +0.000 A 
ATOM      2  C   UNL     1       6.478   5.703  18.382  0.00  0.00    +0.000 A 
ATOM      3 CL   UNL     1       7.746   5.753  19.573  0.00  0.00    +0.000 Cl
ATOM      4  C   UNL     1       5.418   4.696  18.568  0.00  0.00    +0.000 A 
ATOM      5  C   UNL     1       5.400   3.715  19.573  0.00  0.00    +0.000 A 
ATOM      6  C   UNL     1       4.346   2.794  19.667  0.00  0.00    +0.000 A 
ATOM      7  C   UNL     1       3.288   2.839  18.763  0.00  0.00    +0.000 A 
ATOM      8  C   UNL     1       3.281   3.807  17.767  0.00  0.00    +0.000 A 
ATOM      9  C   UNL     1       4.341   4.713  17.686  0.00  0.00    +0.000 A 
ATOM     10  O   UNL     1       4.278   5.643  16.640  0.00  0.00    +0.000 OA
ATOM     11  C   UNL     1       5.328   6.505  16.364  0.00  0.00    +0.000 A 
ATOM     12  O   UNL     1       5.330   7.137  15.315  0.00  0.00    +0.000 OA
ENDROOT
BRANCH   1  14
ATOM     13  N   UNL     1       7.552   8.660  17.916  0.00  0.00    +0.000 NA
ATOM     14  C   UNL     1       7.500   7.600  17.179  0.00  0.00    +0.000 C 
BRANCH  13  17
ATOM     15  O   UNL     1       8.817   9.977  19.941  0.00  0.00    +0.000 OA
ATOM     16  C   UNL     1       9.122  10.216  18.773  0.00  0.00    +0.000 C 
ATOM     17  N   UNL     1       8.544   9.569  17.682  0.00  0.00    +0.000 N 
ATOM     18  H   UNL     1       8.833   9.814  16.740  0.00  0.00    +0.000 HD
BRANCH  16  19
ATOM     19  C   UNL     1      10.136  11.194  18.442  0.00  0.00    +0.000 A 
ATOM     20  C   UNL     1      10.123  12.182  17.473  0.00  0.00    +0.000 A 
ATOM     21  C   UNL     1      11.355  12.866  17.560  0.00  0.00    +0.000 A 
ATOM     22  C   UNL     1      12.054  12.255  18.573  0.00  0.00    +0.000 A 
ATOM     23  O   UNL     1      11.327  11.243  19.122  0.00  0.00    +0.000 OA
ENDBRANCH  16  19
ENDBRANCH  13  17
ENDBRANCH   1  14
TORSDOF 3
ENDMDL
MODEL 8
REMARK VINA RESULT:      -7.0      5.830      7.640
REMARK  Name = 
REMARK  3 active torsions:
REMARK  status: ('A' for Active; 'I' for Inactive)
REMARK    1  A    between atoms: C_2  and  C_18
REMARK    2  A    between atoms: N_3  and  N_4
REMARK    3  A    between atoms: C_5  and  C_6
REMARK                            x       y       z     vdW  Elec       q    Type
REMARK                         _______ _______ _______ _____ _____    ______ ____
ROOT
ATOM      1  C   UNL     1       1.672   8.593  19.053  0.00  0.00    +0.000 A 
ATOM      2  C   UNL     1       1.183   8.267  20.264  0.00  0.00    +0.000 A 
ATOM      3 CL   UNL     1       1.298   6.650  20.898  0.00  0.00    +0.000 Cl
ATOM      4  C   UNL     1       0.565   9.288  21.130  0.00  0.00    +0.000 A 
ATOM      5  C   UNL     1      -0.021   9.041  22.381  0.00  0.00    +0.000 A 
ATOM      6  C   UNL     1      -0.590  10.080  23.132  0.00  0.00    +0.000 A 
ATOM      7  C   UNL     1      -0.578  11.386  22.650  0.00  0.00    +0.000 A 
ATOM      8  C   UNL     1       0.006  11.654  21.418  0.00  0.00    +0.000 A 
ATOM      9  C   UNL     1       0.563  10.606  20.683  0.00  0.00    +0.000 A 
ATOM     10  O   UNL     1       1.110  10.949  19.439  0.00  0.00    +0.000 OA
ATOM     11  C   UNL     1       1.568   9.986  18.552  0.00  0.00    +0.000 A 
ATOM     12  O   UNL     1       1.825  10.304  17.397  0.00  0.00    +0.000 OA
ENDROOT
BRANCH   1  14
ATOM     13  N   UNL     1       3.589   7.536  17.983  0.00  0.00    +0.000 NA
ATOM     14  C   UNL     1       2.314   7.559  18.188  0.00  0.00    +0.000 C 
BRANCH  13  17
ATOM     15  O   UNL     1       6.251   7.379  17.415  0.00  0.00    +0.000 OA
ATOM     16  C   UNL     1       5.470   6.578  16.903  0.00  0.00    +0.000 C 
ATOM     17  N   UNL     1       4.100   6.572  17.161  0.00  0.00    +0.000 N 
ATOM     18  H   UNL     1       3.505   5.890  16.702  0.00  0.00    +0.000 HD
BRANCH  16  19
ATOM     19  C   UNL     1       5.929   5.554  15.990  0.00  0.00    +0.000 A 
ATOM     20  C   UNL     1       5.511   4.241  15.858  0.00  0.00    +0.000 A 
ATOM     21  C   UNL     1       6.277   3.663  14.823  0.00  0.00    +0.000 A 
ATOM     22  C   UNL     1       7.126   4.651  14.385  0.00  0.00    +0.000 A 
ATOM     23  O   UNL     1       6.924   5.805  15.079  0.00  0.00    +0.000 OA
ENDBRANCH  16  19
ENDBRANCH  13  17
ENDBRANCH   1  14
TORSDOF 3
ENDMDL
MODEL 9
REMARK VINA RESULT:      -6.9      5.431      7.208
REMARK  Name = 
REMARK  3 active torsions:
REMARK  status: ('A' for Active; 'I' for Inactive)
REMARK    1  A    between atoms: C_2  and  C_18
REMARK    2  A    between atoms: N_3  and  N_4
REMARK    3  A    between atoms: C_5  and  C_6
REMARK                            x       y       z     vdW  Elec       q    Type
REMARK                         _______ _______ _______ _____ _____    ______ ____
ROOT
ATOM      1  C   UNL     1       3.342   5.538  18.732  0.00  0.00    +0.000 A 
ATOM      2  C   UNL     1       3.867   6.180  17.672  0.00  0.00    +0.000 A 
ATOM      3 CL   UNL     1       3.648   7.890  17.429  0.00  0.00    +0.000 Cl
ATOM      4  C   UNL     1       4.696   5.460  16.687  0.00  0.00    +0.000 A 
ATOM      5  C   UNL     1       5.241   6.024  15.523  0.00  0.00    +0.000 A 
ATOM      6  C   UNL     1       6.016   5.255  14.641  0.00  0.00    +0.000 A 
ATOM      7  C   UNL     1       6.265   3.911  14.910  0.00  0.00    +0.000 A 
ATOM      8  C   UNL     1       5.742   3.337  16.062  0.00  0.00    +0.000 A 
ATOM      9  C   UNL     1       4.970   4.117  16.925  0.00  0.00    +0.000 A 
ATOM     10  O   UNL     1       4.456   3.462  18.052  0.00  0.00    +0.000 OA
ATOM     11  C   UNL     1       3.563   4.082  18.913  0.00  0.00    +0.000 A 
ATOM     12  O   UNL     1       2.965   3.413  19.747  0.00  0.00    +0.000 OA
ENDROOT
BRANCH   1  14
ATOM     13  N   UNL     1       2.174   7.508  19.564  0.00  0.00    +0.000 NA
ATOM     14  C   UNL     1       2.520   6.276  19.737  0.00  0.00    +0.000 C 
BRANCH  13  17
ATOM     15  O   UNL     1       0.978   9.927  19.170  0.00  0.00    +0.000 OA
ATOM     16  C   UNL     1       0.882   9.369  20.263  0.00  0.00    +0.000 C 
ATOM     17  N   UNL     1       1.440   8.122  20.539  0.00  0.00    +0.000 N 
ATOM     18  H   UNL     1       1.333   7.716  21.463  0.00  0.00    +0.000 HD
BRANCH  16  19
ATOM     19  C   UNL     1       0.155   9.975  21.358  0.00  0.00    +0.000 A 
ATOM     20  C   UNL     1      -0.358   9.391  22.503  0.00  0.00    +0.000 A 
ATOM     21  C   UNL     1      -0.980  10.415  23.249  0.00  0.00    +0.000 A 
ATOM     22  C   UNL     1      -0.819  11.566  22.516  0.00  0.00    +0.000 A 
ATOM     23  O   UNL     1      -0.129  11.317  21.369  0.00  0.00    +0.000 OA
ENDBRANCH  16  19
ENDBRANCH  13  17
ENDBRANCH   1  14
TORSDOF 3
ENDMDL
