MODEL 1
REMARK VINA RESULT:      -8.1      0.000      0.000
REMARK  Name = 
REMARK  9 active torsions:
REMARK  status: ('A' for Active; 'I' for Inactive)
REMARK    1  A    between atoms: C_1  and  C_2
REMARK    2  A    between atoms: C_2  and  C_3
REMARK    3  A    between atoms: C_2  and  C_4
REMARK    4  A    between atoms: C_4  and  C_5
REMARK    5  A    between atoms: C_5  and  N_6
REMARK    6  A    between atoms: C_5  and  C_17
REMARK    7  A    between atoms: N_9  and  C_10
REMARK    8  A    between atoms: C_14  and  O_15
REMARK    9  A    between atoms: N_19  and  O_20
REMARK                            x       y       z     vdW  Elec       q    Type
REMARK                         _______ _______ _______ _____ _____    ______ ____
ROOT
ATOM      1  N   UNL     1       5.774   4.020  16.520  0.00  0.00    +0.000 N 
ATOM      2  C   UNL     1       4.731   4.116  17.414  0.00  0.00    +0.000 C 
ATOM      3  O   UNL     1       4.177   5.180  17.656  0.00  0.00    +0.000 OA
ATOM      4  N   UNL     1       4.399   2.900  17.980  0.00  0.00    +0.000 N 
ATOM      5  H   UNL     1       6.305   3.165  16.543  0.00  0.00    +0.000 HD
ATOM      6  H   UNL     1       5.183   2.321  18.237  0.00  0.00    +0.000 HD
ENDROOT
BRANCH   4   7
ATOM      7  C   UNL     1       3.239   2.753  18.786  0.00  0.00    +0.000 A 
ATOM      8  C   UNL     1       1.979   2.537  18.218  0.00  0.00    +0.000 A 
ATOM      9  C   UNL     1       0.835   2.493  19.023  0.00  0.00    +0.000 A 
ATOM     10  C   UNL     1       0.945   2.664  20.402  0.00  0.00    +0.000 A 
ATOM     11  C   UNL     1       2.206   2.820  20.967  0.00  0.00    +0.000 A 
ATOM     12  C   UNL     1       3.357   2.834  20.177  0.00  0.00    +0.000 A 
BRANCH  11  13
ATOM     13  O   UNL     1       2.358   2.995  22.312  0.00  0.00    +0.000 OA
ATOM     14  H   UNL     1       2.420   3.948  22.495  0.00  0.00    +0.000 HD
ENDBRANCH  11  13
ENDBRANCH   4   7
BRANCH   1  15
ATOM     15  C   UNL     1       6.378   5.145  15.770  0.00  0.00    +0.000 C 
BRANCH  15  16
ATOM     16  C   UNL     1       6.732   4.692  14.348  0.00  0.00    +0.000 C 
ATOM     17  O   UNL     1       7.493   5.326  13.618  0.00  0.00    +0.000 OA
ATOM     18  N   UNL     1       6.165   3.510  13.942  0.00  0.00    +0.000 N 
ATOM     19  H   UNL     1       5.564   2.925  14.526  0.00  0.00    +0.000 HD
BRANCH  18  20
ATOM     20  O   UNL     1       6.500   3.053  12.652  0.00  0.00    +0.000 OA
ATOM     21  H   UNL     1       6.099   3.737  12.075  0.00  0.00    +0.000 HD
ENDBRANCH  18  20
ENDBRANCH  15  16
BRANCH  15  22
ATOM     22  C   UNL     1       7.566   5.849  16.466  0.00  0.00    +0.000 C 
BRANCH  22  24
ATOM     23  C   UNL     1       7.762   6.000  19.030  0.00  0.00    +0.000 C 
ATOM     24  C   UNL     1       7.242   6.647  17.752  0.00  0.00    +0.000 C 
ATOM     25  C   UNL     1       7.831   8.062  17.639  0.00  0.00    +0.000 C 
ENDBRANCH  22  24
ENDBRANCH  15  22
ENDBRANCH   1  15
TORSDOF 7
ENDMDL
MODEL 2
REMARK VINA RESULT:      -8.0      1.960      3.381
REMARK  Name = 
REMARK  9 active torsions:
REMARK  status: ('A' for Active; 'I' for Inactive)
REMARK    1  A    between atoms: C_1  and  C_2
REMARK    2  A    between atoms: C_2  and  C_3
REMARK    3  A    between atoms: C_2  and  C_4
REMARK    4  A    between atoms: C_4  and  C_5
REMARK    5  A    between atoms: C_5  and  N_6
REMARK    6  A    between atoms: C_5  and  C_17
REMARK    7  A    between atoms: N_9  and  C_10
REMARK    8  A    between atoms: C_14  and  O_15
REMARK    9  A    between atoms: N_19  and  O_20
REMARK                            x       y       z     vdW  Elec       q    Type
REMARK                         _______ _______ _______ _____ _____    ______ ____
ROOT
ATOM      1  N   UNL     1       5.549   2.958  16.259  0.00  0.00    +0.000 N 
ATOM      2  C   UNL     1       4.636   3.370  17.203  0.00  0.00    +0.000 C 
ATOM      3  O   UNL     1       4.405   4.554  17.411  0.00  0.00    +0.000 OA
ATOM      4  N   UNL     1       4.032   2.316  17.859  0.00  0.00    +0.000 N 
ATOM      5  H   UNL     1       5.834   1.992  16.303  0.00  0.00    +0.000 HD
ATOM      6  H   UNL     1       4.648   1.557  18.106  0.00  0.00    +0.000 HD
ENDROOT
BRANCH   4   7
ATOM      7  C   UNL     1       2.935   2.522  18.736  0.00  0.00    +0.000 A 
ATOM      8  C   UNL     1       1.629   2.656  18.252  0.00  0.00    +0.000 A 
ATOM      9  C   UNL     1       0.575   2.957  19.123  0.00  0.00    +0.000 A 
ATOM     10  C   UNL     1       0.822   3.126  20.484  0.00  0.00    +0.000 A 
ATOM     11  C   UNL     1       2.112   2.934  20.968  0.00  0.00    +0.000 A 
ATOM     12  C   UNL     1       3.164   2.602  20.113  0.00  0.00    +0.000 A 
BRANCH  11  13
ATOM     13  O   UNL     1       2.397   3.093  22.294  0.00  0.00    +0.000 OA
ATOM     14  H   UNL     1       1.722   3.671  22.688  0.00  0.00    +0.000 HD
ENDBRANCH  11  13
ENDBRANCH   4   7
BRANCH   1  15
ATOM     15  C   UNL     1       6.378   3.844  15.410  0.00  0.00    +0.000 C 
BRANCH  15  16
ATOM     16  C   UNL     1       6.956   4.985  16.256  0.00  0.00    +0.000 C 
ATOM     17  O   UNL     1       7.812   4.804  17.121  0.00  0.00    +0.000 OA
ATOM     18  N   UNL     1       6.477   6.239  15.968  0.00  0.00    +0.000 N 
ATOM     19  H   UNL     1       5.802   6.446  15.230  0.00  0.00    +0.000 HD
BRANCH  18  20
ATOM     20  O   UNL     1       7.015   7.310  16.708  0.00  0.00    +0.000 OA
ATOM     21  H   UNL     1       6.255   7.924  16.776  0.00  0.00    +0.000 HD
ENDBRANCH  18  20
ENDBRANCH  15  16
BRANCH  15  22
ATOM     22  C   UNL     1       5.694   4.365  14.124  0.00  0.00    +0.000 C 
BRANCH  22  24
ATOM     23  C   UNL     1       4.703   3.406  11.948  0.00  0.00    +0.000 C 
ATOM     24  C   UNL     1       5.937   3.551  12.829  0.00  0.00    +0.000 C 
ATOM     25  C   UNL     1       7.056   4.213  12.010  0.00  0.00    +0.000 C 
ENDBRANCH  22  24
ENDBRANCH  15  22
ENDBRANCH   1  15
TORSDOF 7
ENDMDL
MODEL 3
REMARK VINA RESULT:      -7.8      2.104      3.756
REMARK  Name = 
REMARK  9 active torsions:
REMARK  status: ('A' for Active; 'I' for Inactive)
REMARK    1  A    between atoms: C_1  and  C_2
REMARK    2  A    between atoms: C_2  and  C_3
REMARK    3  A    between atoms: C_2  and  C_4
REMARK    4  A    between atoms: C_4  and  C_5
REMARK    5  A    between atoms: C_5  and  N_6
REMARK    6  A    between atoms: C_5  and  C_17
REMARK    7  A    between atoms: N_9  and  C_10
REMARK    8  A    between atoms: C_14  and  O_15
REMARK    9  A    between atoms: N_19  and  O_20
REMARK                            x       y       z     vdW  Elec       q    Type
REMARK                         _______ _______ _______ _____ _____    ______ ____
ROOT
ATOM      1  N   UNL     1       5.899   3.447  16.219  0.00  0.00    +0.000 N 
ATOM      2  C   UNL     1       4.835   4.000  16.896  0.00  0.00    +0.000 C 
ATOM      3  O   UNL     1       4.209   4.955  16.456  0.00  0.00    +0.000 OA
ATOM      4  N   UNL     1       4.570   3.359  18.090  0.00  0.00    +0.000 N 
ATOM      5  H   UNL     1       6.484   2.817  16.743  0.00  0.00    +0.000 HD
ATOM      6  H   UNL     1       5.385   3.105  18.627  0.00  0.00    +0.000 HD
ENDROOT
BRANCH   4   7
ATOM      7  C   UNL     1       3.407   3.658  18.848  0.00  0.00    +0.000 A 
ATOM      8  C   UNL     1       3.418   4.641  19.844  0.00  0.00    +0.000 A 
ATOM      9  C   UNL     1       2.291   4.853  20.646  0.00  0.00    +0.000 A 
ATOM     10  C   UNL     1       1.145   4.081  20.456  0.00  0.00    +0.000 A 
ATOM     11  C   UNL     1       1.120   3.146  19.427  0.00  0.00    +0.000 A 
ATOM     12  C   UNL     1       2.228   2.949  18.601  0.00  0.00    +0.000 A 
BRANCH  11  13
ATOM     13  O   UNL     1       0.020   2.367  19.211  0.00  0.00    +0.000 OA
ATOM     14  H   UNL     1      -0.141   1.831  20.006  0.00  0.00    +0.000 HD
ENDBRANCH  11  13
ENDBRANCH   4   7
BRANCH   1  15
ATOM     15  C   UNL     1       6.444   3.921  14.926  0.00  0.00    +0.000 C 
BRANCH  15  16
ATOM     16  C   UNL     1       7.278   5.190  15.147  0.00  0.00    +0.000 C 
ATOM     17  O   UNL     1       8.051   5.634  14.298  0.00  0.00    +0.000 OA
ATOM     18  N   UNL     1       7.087   5.825  16.348  0.00  0.00    +0.000 N 
ATOM     19  H   UNL     1       6.425   5.523  17.065  0.00  0.00    +0.000 HD
BRANCH  18  20
ATOM     20  O   UNL     1       7.816   7.011  16.563  0.00  0.00    +0.000 OA
ATOM     21  H   UNL     1       8.502   6.726  17.202  0.00  0.00    +0.000 HD
ENDBRANCH  18  20
ENDBRANCH  15  16
BRANCH  15  22
ATOM     22  C   UNL     1       5.409   4.099  13.791  0.00  0.00    +0.000 C 
BRANCH  22  24
ATOM     23  C   UNL     1       4.442   3.284  11.546  0.00  0.00    +0.000 C 
ATOM     24  C   UNL     1       5.601   3.216  12.533  0.00  0.00    +0.000 C 
ATOM     25  C   UNL     1       6.892   3.628  11.809  0.00  0.00    +0.000 C 
ENDBRANCH  22  24
ENDBRANCH  15  22
ENDBRANCH   1  15
TORSDOF 7
ENDMDL
MODEL 4
REMARK VINA RESULT:      -7.6      2.040      3.598
REMARK  Name = 
REMARK  9 active torsions:
REMARK  status: ('A' for Active; 'I' for Inactive)
REMARK    1  A    between atoms: C_1  and  C_2
REMARK    2  A    between atoms: C_2  and  C_3
REMARK    3  A    between atoms: C_2  and  C_4
REMARK    4  A    between atoms: C_4  and  C_5
REMARK    5  A    between atoms: C_5  and  N_6
REMARK    6  A    between atoms: C_5  and  C_17
REMARK    7  A    between atoms: N_9  and  C_10
REMARK    8  A    between atoms: C_14  and  O_15
REMARK    9  A    between atoms: N_19  and  O_20
REMARK                            x       y       z     vdW  Elec       q    Type
REMARK                         _______ _______ _______ _____ _____    ______ ____
ROOT
ATOM      1  N   UNL     1       5.853   3.265  15.975  0.00  0.00    +0.000 N 
ATOM      2  C   UNL     1       4.787   3.718  16.721  0.00  0.00    +0.000 C 
ATOM      3  O   UNL     1       4.077   4.642  16.346  0.00  0.00    +0.000 OA
ATOM      4  N   UNL     1       4.624   3.018  17.900  0.00  0.00    +0.000 N 
ATOM      5  H   UNL     1       6.504   2.659  16.448  0.00  0.00    +0.000 HD
ATOM      6  H   UNL     1       5.478   2.803  18.389  0.00  0.00    +0.000 HD
ENDROOT
BRANCH   4   7
ATOM      7  C   UNL     1       3.480   3.208  18.720  0.00  0.00    +0.000 A 
ATOM      8  C   UNL     1       2.339   2.411  18.576  0.00  0.00    +0.000 A 
ATOM      9  C   UNL     1       1.187   2.677  19.325  0.00  0.00    +0.000 A 
ATOM     10  C   UNL     1       1.170   3.743  20.223  0.00  0.00    +0.000 A 
ATOM     11  C   UNL     1       2.326   4.496  20.404  0.00  0.00    +0.000 A 
ATOM     12  C   UNL     1       3.490   4.218  19.685  0.00  0.00    +0.000 A 
BRANCH  11  13
ATOM     13  O   UNL     1       2.350   5.550  21.270  0.00  0.00    +0.000 OA
ATOM     14  H   UNL     1       3.273   5.828  21.394  0.00  0.00    +0.000 HD
ENDBRANCH  11  13
ENDBRANCH   4   7
BRANCH   1  15
ATOM     15  C   UNL     1       6.302   3.822  14.679  0.00  0.00    +0.000 C 
BRANCH  15  16
ATOM     16  C   UNL     1       7.150   5.078  14.918  0.00  0.00    +0.000 C 
ATOM     17  O   UNL     1       7.872   5.569  14.049  0.00  0.00    +0.000 OA
ATOM     18  N   UNL     1       7.034   5.646  16.162  0.00  0.00    +0.000 N 
ATOM     19  H   UNL     1       6.415   5.304  16.899  0.00  0.00    +0.000 HD
BRANCH  18  20
ATOM     20  O   UNL     1       7.776   6.820  16.397  0.00  0.00    +0.000 OA
ATOM     21  H   UNL     1       8.580   6.674  15.856  0.00  0.00    +0.000 HD
ENDBRANCH  18  20
ENDBRANCH  15  16
BRANCH  15  22
ATOM     22  C   UNL     1       5.188   4.067  13.635  0.00  0.00    +0.000 C 
BRANCH  22  24
ATOM     23  C   UNL     1       6.546   2.579  12.030  0.00  0.00    +0.000 C 
ATOM     24  C   UNL     1       5.516   3.692  12.169  0.00  0.00    +0.000 C 
ATOM     25  C   UNL     1       4.227   3.268  11.448  0.00  0.00    +0.000 C 
ENDBRANCH  22  24
ENDBRANCH  15  22
ENDBRANCH   1  15
TORSDOF 7
ENDMDL
MODEL 5
REMARK VINA RESULT:      -7.4      1.090      1.527
REMARK  Name = 
REMARK  9 active torsions:
REMARK  status: ('A' for Active; 'I' for Inactive)
REMARK    1  A    between atoms: C_1  and  C_2
REMARK    2  A    between atoms: C_2  and  C_3
REMARK    3  A    between atoms: C_2  and  C_4
REMARK    4  A    between atoms: C_4  and  C_5
REMARK    5  A    between atoms: C_5  and  N_6
REMARK    6  A    between atoms: C_5  and  C_17
REMARK    7  A    between atoms: N_9  and  C_10
REMARK    8  A    between atoms: C_14  and  O_15
REMARK    9  A    between atoms: N_19  and  O_20
REMARK                            x       y       z     vdW  Elec       q    Type
REMARK                         _______ _______ _______ _____ _____    ______ ____
ROOT
ATOM      1  N   UNL     1       6.009   4.272  16.736  0.00  0.00    +0.000 N 
ATOM      2  C   UNL     1       4.896   4.344  17.544  0.00  0.00    +0.000 C 
ATOM      3  O   UNL     1       4.192   5.344  17.595  0.00  0.00    +0.000 OA
ATOM      4  N   UNL     1       4.680   3.183  18.261  0.00  0.00    +0.000 N 
ATOM      5  H   UNL     1       6.643   3.510  16.915  0.00  0.00    +0.000 HD
ATOM      6  H   UNL     1       5.510   2.759  18.645  0.00  0.00    +0.000 HD
ENDROOT
BRANCH   4   7
ATOM      7  C   UNL     1       3.491   2.988  19.010  0.00  0.00    +0.000 A 
ATOM      8  C   UNL     1       3.464   3.171  20.397  0.00  0.00    +0.000 A 
ATOM      9  C   UNL     1       2.308   2.878  21.131  0.00  0.00    +0.000 A 
ATOM     10  C   UNL     1       1.172   2.400  20.481  0.00  0.00    +0.000 A 
ATOM     11  C   UNL     1       1.186   2.274  19.095  0.00  0.00    +0.000 A 
ATOM     12  C   UNL     1       2.322   2.594  18.351  0.00  0.00    +0.000 A 
BRANCH  11  13
ATOM     13  O   UNL     1       0.096   1.805  18.421  0.00  0.00    +0.000 OA
ATOM     14  H   UNL     1      -0.376   2.561  18.031  0.00  0.00    +0.000 HD
ENDBRANCH  11  13
ENDBRANCH   4   7
BRANCH   1  15
ATOM     15  C   UNL     1       6.519   5.356  15.866  0.00  0.00    +0.000 C 
BRANCH  15  16
ATOM     16  C   UNL     1       6.892   4.789  14.491  0.00  0.00    +0.000 C 
ATOM     17  O   UNL     1       7.771   5.281  13.784  0.00  0.00    +0.000 OA
ATOM     18  N   UNL     1       6.199   3.670  14.102  0.00  0.00    +0.000 N 
ATOM     19  H   UNL     1       5.494   3.198  14.671  0.00  0.00    +0.000 HD
BRANCH  18  20
ATOM     20  O   UNL     1       6.545   3.108  12.857  0.00  0.00    +0.000 OA
ATOM     21  H   UNL     1       5.851   2.427  12.732  0.00  0.00    +0.000 HD
ENDBRANCH  18  20
ENDBRANCH  15  16
BRANCH  15  22
ATOM     22  C   UNL     1       7.657   6.213  16.467  0.00  0.00    +0.000 C 
BRANCH  22  24
ATOM     23  C   UNL     1       7.911   6.164  19.030  0.00  0.00    +0.000 C 
ATOM     24  C   UNL     1       7.364   6.908  17.819  0.00  0.00    +0.000 C 
ATOM     25  C   UNL     1       7.951   8.328  17.803  0.00  0.00    +0.000 C 
ENDBRANCH  22  24
ENDBRANCH  15  22
ENDBRANCH   1  15
TORSDOF 7
ENDMDL
MODEL 6
REMARK VINA RESULT:      -7.4      2.180      3.669
REMARK  Name = 
REMARK  9 active torsions:
REMARK  status: ('A' for Active; 'I' for Inactive)
REMARK    1  A    between atoms: C_1  and  C_2
REMARK    2  A    between atoms: C_2  and  C_3
REMARK    3  A    between atoms: C_2  and  C_4
REMARK    4  A    between atoms: C_4  and  C_5
REMARK    5  A    between atoms: C_5  and  N_6
REMARK    6  A    between atoms: C_5  and  C_17
REMARK    7  A    between atoms: N_9  and  C_10
REMARK    8  A    between atoms: C_14  and  O_15
REMARK    9  A    between atoms: N_19  and  O_20
REMARK                            x       y       z     vdW  Elec       q    Type
REMARK                         _______ _______ _______ _____ _____    ______ ____
ROOT
ATOM      1  N   UNL     1       5.535   2.867  16.238  0.00  0.00    +0.000 N 
ATOM      2  C   UNL     1       4.826   3.313  17.332  0.00  0.00    +0.000 C 
ATOM      3  O   UNL     1       4.796   4.495  17.649  0.00  0.00    +0.000 OA
ATOM      4  N   UNL     1       4.173   2.295  17.997  0.00  0.00    +0.000 N 
ATOM      5  H   UNL     1       5.682   1.872  16.177  0.00  0.00    +0.000 HD
ATOM      6  H   UNL     1       4.703   1.444  18.100  0.00  0.00    +0.000 HD
ENDROOT
BRANCH   4   7
ATOM      7  C   UNL     1       3.246   2.567  19.038  0.00  0.00    +0.000 A 
ATOM      8  C   UNL     1       3.654   2.659  20.373  0.00  0.00    +0.000 A 
ATOM      9  C   UNL     1       2.713   2.830  21.394  0.00  0.00    +0.000 A 
ATOM     10  C   UNL     1       1.356   2.910  21.085  0.00  0.00    +0.000 A 
ATOM     11  C   UNL     1       0.961   2.876  19.752  0.00  0.00    +0.000 A 
ATOM     12  C   UNL     1       1.895   2.738  18.724  0.00  0.00    +0.000 A 
BRANCH  11  13
ATOM     13  O   UNL     1      -0.358   2.947  19.408  0.00  0.00    +0.000 OA
ATOM     14  H   UNL     1      -0.684   2.046  19.242  0.00  0.00    +0.000 HD
ENDBRANCH  11  13
ENDBRANCH   4   7
BRANCH   1  15
ATOM     15  C   UNL     1       6.357   3.706  15.337  0.00  0.00    +0.000 C 
BRANCH  15  16
ATOM     16  C   UNL     1       7.050   4.812  16.144  0.00  0.00    +0.000 C 
ATOM     17  O   UNL     1       7.985   4.589  16.912  0.00  0.00    +0.000 OA
ATOM     18  N   UNL     1       6.579   6.084  15.934  0.00  0.00    +0.000 N 
ATOM     19  H   UNL     1       5.838   6.326  15.274  0.00  0.00    +0.000 HD
BRANCH  18  20
ATOM     20  O   UNL     1       7.219   7.123  16.636  0.00  0.00    +0.000 OA
ATOM     21  H   UNL     1       7.227   7.851  15.979  0.00  0.00    +0.000 HD
ENDBRANCH  18  20
ENDBRANCH  15  16
BRANCH  15  22
ATOM     22  C   UNL     1       5.626   4.267  14.096  0.00  0.00    +0.000 C 
BRANCH  22  24
ATOM     23  C   UNL     1       4.613   3.505  11.853  0.00  0.00    +0.000 C 
ATOM     24  C   UNL     1       5.833   3.504  12.764  0.00  0.00    +0.000 C 
ATOM     25  C   UNL     1       7.021   4.115  12.003  0.00  0.00    +0.000 C 
ENDBRANCH  22  24
ENDBRANCH  15  22
ENDBRANCH   1  15
TORSDOF 7
ENDMDL
MODEL 7
REMARK VINA RESULT:      -7.3      2.123      3.368
REMARK  Name = 
REMARK  9 active torsions:
REMARK  status: ('A' for Active; 'I' for Inactive)
REMARK    1  A    between atoms: C_1  and  C_2
REMARK    2  A    between atoms: C_2  and  C_3
REMARK    3  A    between atoms: C_2  and  C_4
REMARK    4  A    between atoms: C_4  and  C_5
REMARK    5  A    between atoms: C_5  and  N_6
REMARK    6  A    between atoms: C_5  and  C_17
REMARK    7  A    between atoms: N_9  and  C_10
REMARK    8  A    between atoms: C_14  and  O_15
REMARK    9  A    between atoms: N_19  and  O_20
REMARK                            x       y       z     vdW  Elec       q    Type
REMARK                         _______ _______ _______ _____ _____    ______ ____
ROOT
ATOM      1  N   UNL     1       6.641   4.109  17.828  0.00  0.00    +0.000 N 
ATOM      2  C   UNL     1       5.314   4.149  18.194  0.00  0.00    +0.000 C 
ATOM      3  O   UNL     1       4.569   5.053  17.839  0.00  0.00    +0.000 OA
ATOM      4  N   UNL     1       4.944   3.075  18.979  0.00  0.00    +0.000 N 
ATOM      5  H   UNL     1       7.225   3.462  18.333  0.00  0.00    +0.000 HD
ATOM      6  H   UNL     1       5.615   2.811  19.683  0.00  0.00    +0.000 HD
ENDROOT
BRANCH   4   7
ATOM      7  C   UNL     1       3.584   2.835  19.309  0.00  0.00    +0.000 A 
ATOM      8  C   UNL     1       2.613   2.660  18.317  0.00  0.00    +0.000 A 
ATOM      9  C   UNL     1       1.263   2.523  18.660  0.00  0.00    +0.000 A 
ATOM     10  C   UNL     1       0.876   2.561  19.998  0.00  0.00    +0.000 A 
ATOM     11  C   UNL     1       1.852   2.677  20.983  0.00  0.00    +0.000 A 
ATOM     12  C   UNL     1       3.204   2.782  20.653  0.00  0.00    +0.000 A 
BRANCH  11  13
ATOM     13  O   UNL     1       1.515   2.723  22.305  0.00  0.00    +0.000 OA
ATOM     14  H   UNL     1       0.604   3.054  22.381  0.00  0.00    +0.000 HD
ENDBRANCH  11  13
ENDBRANCH   4   7
BRANCH   1  15
ATOM     15  C   UNL     1       7.346   5.124  17.012  0.00  0.00    +0.000 C 
BRANCH  15  16
ATOM     16  C   UNL     1       7.637   6.367  17.864  0.00  0.00    +0.000 C 
ATOM     17  O   UNL     1       7.904   6.303  19.064  0.00  0.00    +0.000 OA
ATOM     18  N   UNL     1       7.611   7.565  17.195  0.00  0.00    +0.000 N 
ATOM     19  H   UNL     1       7.441   7.665  16.193  0.00  0.00    +0.000 HD
BRANCH  18  20
ATOM     20  O   UNL     1       7.908   8.719  17.946  0.00  0.00    +0.000 OA
ATOM     21  H   UNL     1       7.020   9.018  18.236  0.00  0.00    +0.000 HD
ENDBRANCH  18  20
ENDBRANCH  15  16
BRANCH  15  22
ATOM     22  C   UNL     1       6.670   5.489  15.670  0.00  0.00    +0.000 C 
BRANCH  22  24
ATOM     23  C   UNL     1       5.501   3.967  13.951  0.00  0.00    +0.000 C 
ATOM     24  C   UNL     1       6.824   4.468  14.516  0.00  0.00    +0.000 C 
ATOM     25  C   UNL     1       7.640   5.101  13.378  0.00  0.00    +0.000 C 
ENDBRANCH  22  24
ENDBRANCH  15  22
ENDBRANCH   1  15
TORSDOF 7
ENDMDL
MODEL 8
REMARK VINA RESULT:      -7.3      2.431      3.671
REMARK  Name = 
REMARK  9 active torsions:
REMARK  status: ('A' for Active; 'I' for Inactive)
REMARK    1  A    between atoms: C_1  and  C_2
REMARK    2  A    between atoms: C_2  and  C_3
REMARK    3  A    between atoms: C_2  and  C_4
REMARK    4  A    between atoms: C_4  and  C_5
REMARK    5  A    between atoms: C_5  and  N_6
REMARK    6  A    between atoms: C_5  and  C_17
REMARK    7  A    between atoms: N_9  and  C_10
REMARK    8  A    between atoms: C_14  and  O_15
REMARK    9  A    between atoms: N_19  and  O_20
REMARK                            x       y       z     vdW  Elec       q    Type
REMARK                         _______ _______ _______ _____ _____    ______ ____
ROOT
ATOM      1  N   UNL     1       6.568   4.164  17.880  0.00  0.00    +0.000 N 
ATOM      2  C   UNL     1       5.291   4.350  18.361  0.00  0.00    +0.000 C 
ATOM      3  O   UNL     1       4.640   5.354  18.107  0.00  0.00    +0.000 OA
ATOM      4  N   UNL     1       4.853   3.294  19.136  0.00  0.00    +0.000 N 
ATOM      5  H   UNL     1       7.104   3.426  18.307  0.00  0.00    +0.000 HD
ATOM      6  H   UNL     1       5.540   2.916  19.769  0.00  0.00    +0.000 HD
ENDROOT
BRANCH   4   7
ATOM      7  C   UNL     1       3.505   3.209  19.575  0.00  0.00    +0.000 A 
ATOM      8  C   UNL     1       3.118   3.671  20.838  0.00  0.00    +0.000 A 
ATOM      9  C   UNL     1       1.807   3.488  21.290  0.00  0.00    +0.000 A 
ATOM     10  C   UNL     1       0.874   2.841  20.482  0.00  0.00    +0.000 A 
ATOM     11  C   UNL     1       1.248   2.436  19.205  0.00  0.00    +0.000 A 
ATOM     12  C   UNL     1       2.545   2.642  18.731  0.00  0.00    +0.000 A 
BRANCH  11  13
ATOM     13  O   UNL     1       0.366   1.796  18.383  0.00  0.00    +0.000 OA
ATOM     14  H   UNL     1      -0.379   1.473  18.919  0.00  0.00    +0.000 HD
ENDBRANCH  11  13
ENDBRANCH   4   7
BRANCH   1  15
ATOM     15  C   UNL     1       7.326   5.121  17.043  0.00  0.00    +0.000 C 
BRANCH  15  16
ATOM     16  C   UNL     1       7.668   6.372  17.862  0.00  0.00    +0.000 C 
ATOM     17  O   UNL     1       8.018   6.320  19.041  0.00  0.00    +0.000 OA
ATOM     18  N   UNL     1       7.588   7.565  17.187  0.00  0.00    +0.000 N 
ATOM     19  H   UNL     1       7.347   7.656  16.199  0.00  0.00    +0.000 HD
BRANCH  18  20
ATOM     20  O   UNL     1       7.929   8.726  17.907  0.00  0.00    +0.000 OA
ATOM     21  H   UNL     1       8.838   8.526  18.216  0.00  0.00    +0.000 HD
ENDBRANCH  18  20
ENDBRANCH  15  16
BRANCH  15  22
ATOM     22  C   UNL     1       6.678   5.479  15.685  0.00  0.00    +0.000 C 
BRANCH  22  24
ATOM     23  C   UNL     1       5.572   3.925  13.952  0.00  0.00    +0.000 C 
ATOM     24  C   UNL     1       6.874   4.462  14.533  0.00  0.00    +0.000 C 
ATOM     25  C   UNL     1       7.688   5.115  13.405  0.00  0.00    +0.000 C 
ENDBRANCH  22  24
ENDBRANCH  15  22
ENDBRANCH   1  15
TORSDOF 7
ENDMDL
MODEL 9
REMARK VINA RESULT:      -7.3      2.128      3.656
REMARK  Name = 
REMARK  9 active torsions:
REMARK  status: ('A' for Active; 'I' for Inactive)
REMARK    1  A    between atoms: C_1  and  C_2
REMARK    2  A    between atoms: C_2  and  C_3
REMARK    3  A    between atoms: C_2  and  C_4
REMARK    4  A    between atoms: C_4  and  C_5
REMARK    5  A    between atoms: C_5  and  N_6
REMARK    6  A    between atoms: C_5  and  C_17
REMARK    7  A    between atoms: N_9  and  C_10
REMARK    8  A    between atoms: C_14  and  O_15
REMARK    9  A    between atoms: N_19  and  O_20
REMARK                            x       y       z     vdW  Elec       q    Type
REMARK                         _______ _______ _______ _____ _____    ______ ____
ROOT
ATOM      1  N   UNL     1       5.940   3.657  16.627  0.00  0.00    +0.000 N 
ATOM      2  C   UNL     1       4.804   3.874  17.375  0.00  0.00    +0.000 C 
ATOM      3  O   UNL     1       3.984   4.732  17.078  0.00  0.00    +0.000 OA
ATOM      4  N   UNL     1       4.709   3.028  18.462  0.00  0.00    +0.000 N 
ATOM      5  H   UNL     1       6.656   3.092  17.056  0.00  0.00    +0.000 HD
ATOM      6  H   UNL     1       5.573   2.873  18.958  0.00  0.00    +0.000 HD
ENDROOT
BRANCH   4   7
ATOM      7  C   UNL     1       3.531   2.967  19.252  0.00  0.00    +0.000 A 
ATOM      8  C   UNL     1       3.568   3.179  20.634  0.00  0.00    +0.000 A 
ATOM      9  C   UNL     1       2.413   3.018  21.409  0.00  0.00    +0.000 A 
ATOM     10  C   UNL     1       1.214   2.644  20.804  0.00  0.00    +0.000 A 
ATOM     11  C   UNL     1       1.170   2.492  19.423  0.00  0.00    +0.000 A 
ATOM     12  C   UNL     1       2.308   2.681  18.637  0.00  0.00    +0.000 A 
BRANCH  11  13
ATOM     13  O   UNL     1       0.017   2.123  18.792  0.00  0.00    +0.000 OA
ATOM     14  H   UNL     1      -0.737   2.471  19.297  0.00  0.00    +0.000 HD
ENDBRANCH  11  13
ENDBRANCH   4   7
BRANCH   1  15
ATOM     15  C   UNL     1       6.340   4.414  15.420  0.00  0.00    +0.000 C 
BRANCH  15  16
ATOM     16  C   UNL     1       6.447   5.908  15.753  0.00  0.00    +0.000 C 
ATOM     17  O   UNL     1       5.625   6.737  15.364  0.00  0.00    +0.000 OA
ATOM     18  N   UNL     1       7.509   6.265  16.545  0.00  0.00    +0.000 N 
ATOM     19  H   UNL     1       8.191   5.610  16.931  0.00  0.00    +0.000 HD
BRANCH  18  20
ATOM     20  O   UNL     1       7.613   7.626  16.894  0.00  0.00    +0.000 OA
ATOM     21  H   UNL     1       7.399   8.078  16.052  0.00  0.00    +0.000 HD
ENDBRANCH  18  20
ENDBRANCH  15  16
BRANCH  15  22
ATOM     22  C   UNL     1       5.480   4.163  14.159  0.00  0.00    +0.000 C 
BRANCH  22  24
ATOM     23  C   UNL     1       5.264   3.090  11.827  0.00  0.00    +0.000 C 
ATOM     24  C   UNL     1       6.202   3.537  12.940  0.00  0.00    +0.000 C 
ATOM     25  C   UNL     1       7.208   4.547  12.366  0.00  0.00    +0.000 C 
ENDBRANCH  22  24
ENDBRANCH  15  22
ENDBRANCH   1  15
TORSDOF 7
ENDMDL
