MODEL 1
REMARK VINA RESULT:      -7.8      0.000      0.000
REMARK  Name = 
REMARK  11 active torsions:
REMARK  status: ('A' for Active; 'I' for Inactive)
REMARK    1  A    between atoms: C_1  and  O_2
REMARK    2  A    between atoms: O_2  and  C_3
REMARK    3  A    between atoms: C_6  and  C_7
REMARK    4  A    between atoms: C_8  and  C_9
REMARK    5  A    between atoms: C_9  and  C_11
REMARK    6  A    between atoms: C_14  and  O_15
REMARK    7  A    between atoms: O_15  and  C_16
REMARK    8  A    between atoms: C_16  and  C_17
REMARK    9  A    between atoms: C_17  and  O_19
REMARK   10  A    between atoms: C_21  and  O_22
REMARK   11  A    between atoms: C_24  and  O_25
REMARK                            x       y       z     vdW  Elec       q    Type
REMARK                         _______ _______ _______ _____ _____    ______ ____
ROOT
ATOM      1  C   UNL     1       6.860   6.694  17.022  0.00  0.00    +0.000 C 
ATOM      2  O   UNL     1       7.551   6.018  16.271  0.00  0.00    +0.000 OA
ENDROOT
BRANCH   1   3
ATOM      3  C   UNL     1       5.626   6.131  17.650  0.00  0.00    +0.000 A 
ATOM      4  C   UNL     1       4.434   6.861  17.524  0.00  0.00    +0.000 A 
ATOM      5  C   UNL     1       3.238   6.377  18.076  0.00  0.00    +0.000 A 
ATOM      6  C   UNL     1       3.227   5.166  18.769  0.00  0.00    +0.000 A 
ATOM      7  C   UNL     1       4.409   4.437  18.901  0.00  0.00    +0.000 A 
ATOM      8  C   UNL     1       5.601   4.922  18.361  0.00  0.00    +0.000 A 
BRANCH   8   9
ATOM      9  O   UNL     1       6.746   4.202  18.558  0.00  0.00    +0.000 OA
ATOM     10  H   UNL     1       7.050   3.813  17.720  0.00  0.00    +0.000 HD
ENDBRANCH   8   9
BRANCH   6  11
ATOM     11  O   UNL     1       2.121   4.573  19.315  0.00  0.00    +0.000 OA
BRANCH  11  12
ATOM     12  C   UNL     1       2.161   4.379  20.733  0.00  0.00    +0.000 C 
BRANCH  12  13
ATOM     13  C   UNL     1       1.743   2.951  21.048  0.00  0.00    +0.000 C 
ATOM     14  O   UNL     1       1.595   2.520  22.182  0.00  0.00    +0.000 OA
BRANCH  13  15
ATOM     15  O   UNL     1       1.535   2.190  19.946  0.00  0.00    +0.000 OA
ATOM     16  H   UNL     1       1.684   2.728  19.139  0.00  0.00    +0.000 HD
ENDBRANCH  13  15
ENDBRANCH  12  13
ENDBRANCH  11  12
ENDBRANCH   6  11
ENDBRANCH   1   3
BRANCH   1  18
ATOM     17  C   UNL     1       8.263   8.347  18.232  0.00  0.00    +0.000 C 
ATOM     18  C   UNL     1       7.236   8.078  17.411  0.00  0.00    +0.000 C 
BRANCH  17  22
ATOM     19  C   UNL     1       9.503  12.403  19.000  0.00  0.00    +0.000 A 
ATOM     20  C   UNL     1       8.829  12.054  17.823  0.00  0.00    +0.000 A 
ATOM     21  C   UNL     1       8.439  10.732  17.572  0.00  0.00    +0.000 A 
ATOM     22  C   UNL     1       8.712   9.725  18.501  0.00  0.00    +0.000 A 
ATOM     23  C   UNL     1       9.410  10.071  19.668  0.00  0.00    +0.000 A 
ATOM     24  C   UNL     1       9.792  11.395  19.921  0.00  0.00    +0.000 A 
BRANCH  19  26
ATOM     25  C   UNL     1       8.735  14.637  19.374  0.00  0.00    +0.000 C 
ATOM     26  O   UNL     1       9.795  13.738  19.081  0.00  0.00    +0.000 OA
ENDBRANCH  19  26
BRANCH  24  27
ATOM     27  O   UNL     1      10.445  11.659  21.095  0.00  0.00    +0.000 OA
ATOM     28  H   UNL     1      11.359  11.925  20.901  0.00  0.00    +0.000 HD
ENDBRANCH  24  27
ENDBRANCH  17  22
ENDBRANCH   1  18
TORSDOF 10
ENDMDL
MODEL 2
REMARK VINA RESULT:      -7.7      1.081      1.282
REMARK  Name = 
REMARK  11 active torsions:
REMARK  status: ('A' for Active; 'I' for Inactive)
REMARK    1  A    between atoms: C_1  and  O_2
REMARK    2  A    between atoms: O_2  and  C_3
REMARK    3  A    between atoms: C_6  and  C_7
REMARK    4  A    between atoms: C_8  and  C_9
REMARK    5  A    between atoms: C_9  and  C_11
REMARK    6  A    between atoms: C_14  and  O_15
REMARK    7  A    between atoms: O_15  and  C_16
REMARK    8  A    between atoms: C_16  and  C_17
REMARK    9  A    between atoms: C_17  and  O_19
REMARK   10  A    between atoms: C_21  and  O_22
REMARK   11  A    between atoms: C_24  and  O_25
REMARK                            x       y       z     vdW  Elec       q    Type
REMARK                         _______ _______ _______ _____ _____    ______ ____
ROOT
ATOM      1  C   UNL     1       7.086   7.000  17.110  0.00  0.00    +0.000 C 
ATOM      2  O   UNL     1       7.732   6.462  16.221  0.00  0.00    +0.000 OA
ENDROOT
BRANCH   1   3
ATOM      3  C   UNL     1       5.971   6.280  17.798  0.00  0.00    +0.000 A 
ATOM      4  C   UNL     1       4.673   6.440  17.289  0.00  0.00    +0.000 A 
ATOM      5  C   UNL     1       3.587   5.776  17.879  0.00  0.00    +0.000 A 
ATOM      6  C   UNL     1       3.789   4.956  18.991  0.00  0.00    +0.000 A 
ATOM      7  C   UNL     1       5.075   4.796  19.504  0.00  0.00    +0.000 A 
ATOM      8  C   UNL     1       6.156   5.463  18.924  0.00  0.00    +0.000 A 
BRANCH   8   9
ATOM      9  O   UNL     1       7.391   5.319  19.490  0.00  0.00    +0.000 OA
ATOM     10  H   UNL     1       7.745   4.432  19.308  0.00  0.00    +0.000 HD
ENDBRANCH   8   9
BRANCH   6  11
ATOM     11  O   UNL     1       2.820   4.227  19.626  0.00  0.00    +0.000 OA
BRANCH  11  12
ATOM     12  C   UNL     1       2.442   3.008  18.978  0.00  0.00    +0.000 C 
BRANCH  12  13
ATOM     13  C   UNL     1       0.966   2.748  19.237  0.00  0.00    +0.000 C 
ATOM     14  O   UNL     1       0.233   2.153  18.460  0.00  0.00    +0.000 OA
BRANCH  13  15
ATOM     15  O   UNL     1       0.530   3.228  20.427  0.00  0.00    +0.000 OA
ATOM     16  H   UNL     1       0.211   4.150  20.315  0.00  0.00    +0.000 HD
ENDBRANCH  13  15
ENDBRANCH  12  13
ENDBRANCH  11  12
ENDBRANCH   6  11
ENDBRANCH   1   3
BRANCH   1  18
ATOM     17  C   UNL     1       8.512   8.632  18.322  0.00  0.00    +0.000 C 
ATOM     18  C   UNL     1       7.408   8.363  17.608  0.00  0.00    +0.000 C 
BRANCH  17  22
ATOM     19  C   UNL     1       9.551  12.681  19.375  0.00  0.00    +0.000 A 
ATOM     20  C   UNL     1       9.073  12.355  18.099  0.00  0.00    +0.000 A 
ATOM     21  C   UNL     1       8.749  11.037  17.757  0.00  0.00    +0.000 A 
ATOM     22  C   UNL     1       8.892  10.007  18.692  0.00  0.00    +0.000 A 
ATOM     23  C   UNL     1       9.394  10.330  19.961  0.00  0.00    +0.000 A 
ATOM     24  C   UNL     1       9.710  11.652  20.304  0.00  0.00    +0.000 A 
BRANCH  19  26
ATOM     25  C   UNL     1      10.883  14.582  18.801  0.00  0.00    +0.000 C 
ATOM     26  O   UNL     1       9.805  14.016  19.533  0.00  0.00    +0.000 OA
ENDBRANCH  19  26
BRANCH  24  27
ATOM     27  O   UNL     1      10.169  11.891  21.571  0.00  0.00    +0.000 OA
ATOM     28  H   UNL     1      11.114  11.673  21.617  0.00  0.00    +0.000 HD
ENDBRANCH  24  27
ENDBRANCH  17  22
ENDBRANCH   1  18
TORSDOF 10
ENDMDL
MODEL 3
REMARK VINA RESULT:      -7.7      1.390      2.049
REMARK  Name = 
REMARK  11 active torsions:
REMARK  status: ('A' for Active; 'I' for Inactive)
REMARK    1  A    between atoms: C_1  and  O_2
REMARK    2  A    between atoms: O_2  and  C_3
REMARK    3  A    between atoms: C_6  and  C_7
REMARK    4  A    between atoms: C_8  and  C_9
REMARK    5  A    between atoms: C_9  and  C_11
REMARK    6  A    between atoms: C_14  and  O_15
REMARK    7  A    between atoms: O_15  and  C_16
REMARK    8  A    between atoms: C_16  and  C_17
REMARK    9  A    between atoms: C_17  and  O_19
REMARK   10  A    between atoms: C_21  and  O_22
REMARK   11  A    between atoms: C_24  and  O_25
REMARK                            x       y       z     vdW  Elec       q    Type
REMARK                         _______ _______ _______ _____ _____    ______ ____
ROOT
ATOM      1  C   UNL     1       7.152   7.097  17.128  0.00  0.00    +0.000 C 
ATOM      2  O   UNL     1       7.851   6.577  16.268  0.00  0.00    +0.000 OA
ENDROOT
BRANCH   1   3
ATOM      3  C   UNL     1       6.000   6.364  17.735  0.00  0.00    +0.000 A 
ATOM      4  C   UNL     1       4.721   6.595  17.205  0.00  0.00    +0.000 A 
ATOM      5  C   UNL     1       3.602   5.924  17.719  0.00  0.00    +0.000 A 
ATOM      6  C   UNL     1       3.750   5.024  18.776  0.00  0.00    +0.000 A 
ATOM      7  C   UNL     1       5.017   4.792  19.310  0.00  0.00    +0.000 A 
ATOM      8  C   UNL     1       6.131   5.466  18.806  0.00  0.00    +0.000 A 
BRANCH   8   9
ATOM      9  O   UNL     1       7.346   5.248  19.392  0.00  0.00    +0.000 OA
ATOM     10  H   UNL     1       7.504   4.295  19.498  0.00  0.00    +0.000 HD
ENDBRANCH   8   9
BRANCH   6  11
ATOM     11  O   UNL     1       2.745   4.281  19.333  0.00  0.00    +0.000 OA
BRANCH  11  12
ATOM     12  C   UNL     1       3.085   2.928  19.656  0.00  0.00    +0.000 C 
BRANCH  12  13
ATOM     13  C   UNL     1       2.988   2.080  18.397  0.00  0.00    +0.000 C 
ATOM     14  O   UNL     1       2.094   2.189  17.570  0.00  0.00    +0.000 OA
BRANCH  13  15
ATOM     15  O   UNL     1       4.000   1.189  18.264  0.00  0.00    +0.000 OA
ATOM     16  H   UNL     1       3.734   0.326  18.649  0.00  0.00    +0.000 HD
ENDBRANCH  13  15
ENDBRANCH  12  13
ENDBRANCH  11  12
ENDBRANCH   6  11
ENDBRANCH   1   3
BRANCH   1  18
ATOM     17  C   UNL     1       8.605   8.757  18.269  0.00  0.00    +0.000 C 
ATOM     18  C   UNL     1       7.443   8.450  17.671  0.00  0.00    +0.000 C 
BRANCH  17  22
ATOM     19  C   UNL     1       9.647  12.758  19.490  0.00  0.00    +0.000 A 
ATOM     20  C   UNL     1       9.819  11.662  20.346  0.00  0.00    +0.000 A 
ATOM     21  C   UNL     1       9.467  10.366  19.950  0.00  0.00    +0.000 A 
ATOM     22  C   UNL     1       8.936  10.134  18.678  0.00  0.00    +0.000 A 
ATOM     23  C   UNL     1       8.741  11.235  17.831  0.00  0.00    +0.000 A 
ATOM     24  C   UNL     1       9.102  12.530  18.225  0.00  0.00    +0.000 A 
BRANCH  19  26
ATOM     25  C   UNL     1      11.418  14.316  19.888  0.00  0.00    +0.000 C 
ATOM     26  O   UNL     1      10.055  13.943  20.039  0.00  0.00    +0.000 OA
ENDBRANCH  19  26
BRANCH  24  27
ATOM     27  O   UNL     1       8.906  13.549  17.332  0.00  0.00    +0.000 OA
ATOM     28  H   UNL     1       8.130  13.350  16.783  0.00  0.00    +0.000 HD
ENDBRANCH  24  27
ENDBRANCH  17  22
ENDBRANCH   1  18
TORSDOF 10
ENDMDL
MODEL 4
REMARK VINA RESULT:      -7.6      1.169      1.924
REMARK  Name = 
REMARK  11 active torsions:
REMARK  status: ('A' for Active; 'I' for Inactive)
REMARK    1  A    between atoms: C_1  and  O_2
REMARK    2  A    between atoms: O_2  and  C_3
REMARK    3  A    between atoms: C_6  and  C_7
REMARK    4  A    between atoms: C_8  and  C_9
REMARK    5  A    between atoms: C_9  and  C_11
REMARK    6  A    between atoms: C_14  and  O_15
REMARK    7  A    between atoms: O_15  and  C_16
REMARK    8  A    between atoms: C_16  and  C_17
REMARK    9  A    between atoms: C_17  and  O_19
REMARK   10  A    between atoms: C_21  and  O_22
REMARK   11  A    between atoms: C_24  and  O_25
REMARK                            x       y       z     vdW  Elec       q    Type
REMARK                         _______ _______ _______ _____ _____    ______ ____
ROOT
ATOM      1  C   UNL     1       6.940   6.762  17.052  0.00  0.00    +0.000 C 
ATOM      2  O   UNL     1       7.568   6.197  16.166  0.00  0.00    +0.000 OA
ENDROOT
BRANCH   1   3
ATOM      3  C   UNL     1       5.865   6.050  17.809  0.00  0.00    +0.000 A 
ATOM      4  C   UNL     1       4.593   6.642  17.857  0.00  0.00    +0.000 A 
ATOM      5  C   UNL     1       3.538   6.015  18.536  0.00  0.00    +0.000 A 
ATOM      6  C   UNL     1       3.749   4.797  19.184  0.00  0.00    +0.000 A 
ATOM      7  C   UNL     1       5.011   4.204  19.143  0.00  0.00    +0.000 A 
ATOM      8  C   UNL     1       6.065   4.832  18.475  0.00  0.00    +0.000 A 
BRANCH   8   9
ATOM      9  O   UNL     1       7.297   4.243  18.504  0.00  0.00    +0.000 OA
ATOM     10  H   UNL     1       7.828   4.531  17.742  0.00  0.00    +0.000 HD
ENDBRANCH   8   9
BRANCH   6  11
ATOM     11  O   UNL     1       2.793   4.071  19.842  0.00  0.00    +0.000 OA
BRANCH  11  12
ATOM     12  C   UNL     1       2.777   2.669  19.554  0.00  0.00    +0.000 C 
BRANCH  12  13
ATOM     13  C   UNL     1       1.853   2.417  18.372  0.00  0.00    +0.000 C 
ATOM     14  O   UNL     1       2.236   2.329  17.215  0.00  0.00    +0.000 OA
BRANCH  13  15
ATOM     15  O   UNL     1       0.550   2.284  18.721  0.00  0.00    +0.000 OA
ATOM     16  H   UNL     1       0.079   1.750  18.045  0.00  0.00    +0.000 HD
ENDBRANCH  13  15
ENDBRANCH  12  13
ENDBRANCH  11  12
ENDBRANCH   6  11
ENDBRANCH   1   3
BRANCH   1  18
ATOM     17  C   UNL     1       8.362   8.474  18.152  0.00  0.00    +0.000 C 
ATOM     18  C   UNL     1       7.248   8.152  17.476  0.00  0.00    +0.000 C 
BRANCH  17  22
ATOM     19  C   UNL     1       9.498  12.540  19.024  0.00  0.00    +0.000 A 
ATOM     20  C   UNL     1       9.853  11.482  19.871  0.00  0.00    +0.000 A 
ATOM     21  C   UNL     1       9.471  10.165  19.591  0.00  0.00    +0.000 A 
ATOM     22  C   UNL     1       8.724   9.872  18.447  0.00  0.00    +0.000 A 
ATOM     23  C   UNL     1       8.347  10.935  17.612  0.00  0.00    +0.000 A 
ATOM     24  C   UNL     1       8.737  12.252  17.890  0.00  0.00    +0.000 A 
BRANCH  19  26
ATOM     25  C   UNL     1       9.522  14.237  20.709  0.00  0.00    +0.000 C 
ATOM     26  O   UNL     1       9.965  13.754  19.449  0.00  0.00    +0.000 OA
ENDBRANCH  19  26
BRANCH  24  27
ATOM     27  O   UNL     1       8.353  13.231  17.014  0.00  0.00    +0.000 OA
ATOM     28  H   UNL     1       7.784  13.870  17.475  0.00  0.00    +0.000 HD
ENDBRANCH  24  27
ENDBRANCH  17  22
ENDBRANCH   1  18
TORSDOF 10
ENDMDL
MODEL 5
REMARK VINA RESULT:      -7.5      0.822      1.500
REMARK  Name = 
REMARK  11 active torsions:
REMARK  status: ('A' for Active; 'I' for Inactive)
REMARK    1  A    between atoms: C_1  and  O_2
REMARK    2  A    between atoms: O_2  and  C_3
REMARK    3  A    between atoms: C_6  and  C_7
REMARK    4  A    between atoms: C_8  and  C_9
REMARK    5  A    between atoms: C_9  and  C_11
REMARK    6  A    between atoms: C_14  and  O_15
REMARK    7  A    between atoms: O_15  and  C_16
REMARK    8  A    between atoms: C_16  and  C_17
REMARK    9  A    between atoms: C_17  and  O_19
REMARK   10  A    between atoms: C_21  and  O_22
REMARK   11  A    between atoms: C_24  and  O_25
REMARK                            x       y       z     vdW  Elec       q    Type
REMARK                         _______ _______ _______ _____ _____    ______ ____
ROOT
ATOM      1  C   UNL     1       6.919   6.949  17.132  0.00  0.00    +0.000 C 
ATOM      2  O   UNL     1       7.585   6.492  16.213  0.00  0.00    +0.000 OA
ENDROOT
BRANCH   1   3
ATOM      3  C   UNL     1       5.789   6.171  17.727  0.00  0.00    +0.000 A 
ATOM      4  C   UNL     1       4.527   6.783  17.781  0.00  0.00    +0.000 A 
ATOM      5  C   UNL     1       3.424   6.099  18.311  0.00  0.00    +0.000 A 
ATOM      6  C   UNL     1       3.575   4.802  18.804  0.00  0.00    +0.000 A 
ATOM      7  C   UNL     1       4.827   4.189  18.756  0.00  0.00    +0.000 A 
ATOM      8  C   UNL     1       5.928   4.872  18.237  0.00  0.00    +0.000 A 
BRANCH   8   9
ATOM      9  O   UNL     1       7.147   4.254  18.257  0.00  0.00    +0.000 OA
ATOM     10  H   UNL     1       7.525   4.279  19.152  0.00  0.00    +0.000 HD
ENDBRANCH   8   9
BRANCH   6  11
ATOM     11  O   UNL     1       2.570   4.019  19.306  0.00  0.00    +0.000 OA
BRANCH  11  12
ATOM     12  C   UNL     1       2.127   4.357  20.625  0.00  0.00    +0.000 C 
BRANCH  12  13
ATOM     13  C   UNL     1       2.034   3.086  21.455  0.00  0.00    +0.000 C 
ATOM     14  O   UNL     1       3.000   2.525  21.951  0.00  0.00    +0.000 OA
BRANCH  13  15
ATOM     15  O   UNL     1       0.767   2.630  21.610  0.00  0.00    +0.000 OA
ATOM     16  H   UNL     1       0.786   1.694  21.905  0.00  0.00    +0.000 HD
ENDBRANCH  13  15
ENDBRANCH  12  13
ENDBRANCH  11  12
ENDBRANCH   6  11
ENDBRANCH   1   3
BRANCH   1  18
ATOM     17  C   UNL     1       8.480   8.732  17.873  0.00  0.00    +0.000 C 
ATOM     18  C   UNL     1       7.228   8.261  17.757  0.00  0.00    +0.000 C 
BRANCH  17  22
ATOM     19  C   UNL     1       9.387  12.683  19.338  0.00  0.00    +0.000 A 
ATOM     20  C   UNL     1       9.641  11.541  20.107  0.00  0.00    +0.000 A 
ATOM     21  C   UNL     1       9.333  10.260  19.633  0.00  0.00    +0.000 A 
ATOM     22  C   UNL     1       8.764  10.091  18.367  0.00  0.00    +0.000 A 
ATOM     23  C   UNL     1       8.487  11.237  17.607  0.00  0.00    +0.000 A 
ATOM     24  C   UNL     1       8.803  12.518  18.080  0.00  0.00    +0.000 A 
BRANCH  19  26
ATOM     25  C   UNL     1       8.739  14.680  20.483  0.00  0.00    +0.000 C 
ATOM     26  O   UNL     1       9.761  13.846  19.955  0.00  0.00    +0.000 OA
ENDBRANCH  19  26
BRANCH  24  27
ATOM     27  O   UNL     1       8.527  13.585  17.270  0.00  0.00    +0.000 OA
ATOM     28  H   UNL     1       8.958  14.379  17.626  0.00  0.00    +0.000 HD
ENDBRANCH  24  27
ENDBRANCH  17  22
ENDBRANCH   1  18
TORSDOF 10
ENDMDL
MODEL 6
REMARK VINA RESULT:      -7.5      1.147      1.995
REMARK  Name = 
REMARK  11 active torsions:
REMARK  status: ('A' for Active; 'I' for Inactive)
REMARK    1  A    between atoms: C_1  and  O_2
REMARK    2  A    between atoms: O_2  and  C_3
REMARK    3  A    between atoms: C_6  and  C_7
REMARK    4  A    between atoms: C_8  and  C_9
REMARK    5  A    between atoms: C_9  and  C_11
REMARK    6  A    between atoms: C_14  and  O_15
REMARK    7  A    between atoms: O_15  and  C_16
REMARK    8  A    between atoms: C_16  and  C_17
REMARK    9  A    between atoms: C_17  and  O_19
REMARK   10  A    between atoms: C_21  and  O_22
REMARK   11  A    between atoms: C_24  and  O_25
REMARK                            x       y       z     vdW  Elec       q    Type
REMARK                         _______ _______ _______ _____ _____    ______ ____
ROOT
ATOM      1  C   UNL     1       7.313   6.938  17.210  0.00  0.00    +0.000 C 
ATOM      2  O   UNL     1       7.831   6.542  16.174  0.00  0.00    +0.000 OA
ENDROOT
BRANCH   1   3
ATOM      3  C   UNL     1       6.068   6.305  17.741  0.00  0.00    +0.000 A 
ATOM      4  C   UNL     1       6.156   5.596  18.950  0.00  0.00    +0.000 A 
ATOM      5  C   UNL     1       5.019   4.995  19.509  0.00  0.00    +0.000 A 
ATOM      6  C   UNL     1       3.787   5.086  18.859  0.00  0.00    +0.000 A 
ATOM      7  C   UNL     1       3.693   5.785  17.656  0.00  0.00    +0.000 A 
ATOM      8  C   UNL     1       4.826   6.376  17.093  0.00  0.00    +0.000 A 
BRANCH   8   9
ATOM      9  O   UNL     1       4.700   7.008  15.887  0.00  0.00    +0.000 OA
ATOM     10  H   UNL     1       5.367   7.709  15.802  0.00  0.00    +0.000 HD
ENDBRANCH   8   9
BRANCH   6  11
ATOM     11  O   UNL     1       2.604   4.578  19.324  0.00  0.00    +0.000 OA
BRANCH  11  12
ATOM     12  C   UNL     1       2.353   4.779  20.719  0.00  0.00    +0.000 C 
BRANCH  12  13
ATOM     13  C   UNL     1       1.873   3.471  21.328  0.00  0.00    +0.000 C 
ATOM     14  O   UNL     1       2.503   2.837  22.163  0.00  0.00    +0.000 OA
BRANCH  13  15
ATOM     15  O   UNL     1       0.664   3.068  20.868  0.00  0.00    +0.000 OA
ATOM     16  H   UNL     1       0.316   2.347  21.436  0.00  0.00    +0.000 HD
ENDBRANCH  13  15
ENDBRANCH  12  13
ENDBRANCH  11  12
ENDBRANCH   6  11
ENDBRANCH   1   3
BRANCH   1  18
ATOM     17  C   UNL     1       8.316   9.189  17.519  0.00  0.00    +0.000 C 
ATOM     18  C   UNL     1       7.920   8.014  18.035  0.00  0.00    +0.000 C 
BRANCH  17  22
ATOM     19  C   UNL     1       9.760  12.393  20.015  0.00  0.00    +0.000 A 
ATOM     20  C   UNL     1       9.702  11.072  20.479  0.00  0.00    +0.000 A 
ATOM     21  C   UNL     1       9.219  10.036  19.670  0.00  0.00    +0.000 A 
ATOM     22  C   UNL     1       8.787  10.299  18.367  0.00  0.00    +0.000 A 
ATOM     23  C   UNL     1       8.822  11.625  17.912  0.00  0.00    +0.000 A 
ATOM     24  C   UNL     1       9.312  12.659  18.720  0.00  0.00    +0.000 A 
BRANCH  19  26
ATOM     25  C   UNL     1       9.377  13.808  21.905  0.00  0.00    +0.000 C 
ATOM     26  O   UNL     1      10.267  13.268  20.937  0.00  0.00    +0.000 OA
ENDBRANCH  19  26
BRANCH  24  27
ATOM     27  O   UNL     1       9.340  13.923  18.196  0.00  0.00    +0.000 OA
ATOM     28  H   UNL     1      10.258  14.240  18.167  0.00  0.00    +0.000 HD
ENDBRANCH  24  27
ENDBRANCH  17  22
ENDBRANCH   1  18
TORSDOF 10
ENDMDL
MODEL 7
REMARK VINA RESULT:      -7.4      1.199      1.866
REMARK  Name = 
REMARK  11 active torsions:
REMARK  status: ('A' for Active; 'I' for Inactive)
REMARK    1  A    between atoms: C_1  and  O_2
REMARK    2  A    between atoms: O_2  and  C_3
REMARK    3  A    between atoms: C_6  and  C_7
REMARK    4  A    between atoms: C_8  and  C_9
REMARK    5  A    between atoms: C_9  and  C_11
REMARK    6  A    between atoms: C_14  and  O_15
REMARK    7  A    between atoms: O_15  and  C_16
REMARK    8  A    between atoms: C_16  and  C_17
REMARK    9  A    between atoms: C_17  and  O_19
REMARK   10  A    between atoms: C_21  and  O_22
REMARK   11  A    between atoms: C_24  and  O_25
REMARK                            x       y       z     vdW  Elec       q    Type
REMARK                         _______ _______ _______ _____ _____    ______ ____
ROOT
ATOM      1  C   UNL     1       7.278   7.012  17.330  0.00  0.00    +0.000 C 
ATOM      2  O   UNL     1       7.744   6.637  16.262  0.00  0.00    +0.000 OA
ENDROOT
BRANCH   1   3
ATOM      3  C   UNL     1       6.099   6.326  17.940  0.00  0.00    +0.000 A 
ATOM      4  C   UNL     1       4.830   6.603  17.407  0.00  0.00    +0.000 A 
ATOM      5  C   UNL     1       3.686   5.977  17.924  0.00  0.00    +0.000 A 
ATOM      6  C   UNL     1       3.799   5.079  18.987  0.00  0.00    +0.000 A 
ATOM      7  C   UNL     1       5.057   4.802  19.523  0.00  0.00    +0.000 A 
ATOM      8  C   UNL     1       6.195   5.431  19.016  0.00  0.00    +0.000 A 
BRANCH   8   9
ATOM      9  O   UNL     1       7.401   5.170  19.604  0.00  0.00    +0.000 OA
ATOM     10  H   UNL     1       7.282   4.597  20.380  0.00  0.00    +0.000 HD
ENDBRANCH   8   9
BRANCH   6  11
ATOM     11  O   UNL     1       2.767   4.377  19.548  0.00  0.00    +0.000 OA
BRANCH  11  12
ATOM     12  C   UNL     1       1.610   4.215  18.720  0.00  0.00    +0.000 C 
BRANCH  12  13
ATOM     13  C   UNL     1       0.805   3.027  19.223  0.00  0.00    +0.000 C 
ATOM     14  O   UNL     1       0.332   2.167  18.493  0.00  0.00    +0.000 OA
BRANCH  13  15
ATOM     15  O   UNL     1       0.666   2.996  20.571  0.00  0.00    +0.000 OA
ATOM     16  H   UNL     1       1.535   2.819  20.989  0.00  0.00    +0.000 HD
ENDBRANCH  13  15
ENDBRANCH  12  13
ENDBRANCH  11  12
ENDBRANCH   6  11
ENDBRANCH   1   3
BRANCH   1  18
ATOM     17  C   UNL     1       8.359   9.237  17.548  0.00  0.00    +0.000 C 
ATOM     18  C   UNL     1       7.890   8.115  18.116  0.00  0.00    +0.000 C 
BRANCH  17  22
ATOM     19  C   UNL     1       9.824  12.542  19.897  0.00  0.00    +0.000 A 
ATOM     20  C   UNL     1       9.879  11.225  20.371  0.00  0.00    +0.000 A 
ATOM     21  C   UNL     1       9.390  10.155  19.610  0.00  0.00    +0.000 A 
ATOM     22  C   UNL     1       8.836  10.380  18.347  0.00  0.00    +0.000 A 
ATOM     23  C   UNL     1       8.758  11.702  17.883  0.00  0.00    +0.000 A 
ATOM     24  C   UNL     1       9.255  12.770  18.642  0.00  0.00    +0.000 A 
BRANCH  19  26
ATOM     25  C   UNL     1       9.563  13.860  21.875  0.00  0.00    +0.000 C 
ATOM     26  O   UNL     1      10.356  13.453  20.767  0.00  0.00    +0.000 OA
ENDBRANCH  19  26
BRANCH  24  27
ATOM     27  O   UNL     1       9.168  14.028  18.111  0.00  0.00    +0.000 OA
ATOM     28  H   UNL     1       9.740  14.087  17.328  0.00  0.00    +0.000 HD
ENDBRANCH  24  27
ENDBRANCH  17  22
ENDBRANCH   1  18
TORSDOF 10
ENDMDL
MODEL 8
REMARK VINA RESULT:      -7.4      3.734      4.733
REMARK  Name = 
REMARK  11 active torsions:
REMARK  status: ('A' for Active; 'I' for Inactive)
REMARK    1  A    between atoms: C_1  and  O_2
REMARK    2  A    between atoms: O_2  and  C_3
REMARK    3  A    between atoms: C_6  and  C_7
REMARK    4  A    between atoms: C_8  and  C_9
REMARK    5  A    between atoms: C_9  and  C_11
REMARK    6  A    between atoms: C_14  and  O_15
REMARK    7  A    between atoms: O_15  and  C_16
REMARK    8  A    between atoms: C_16  and  C_17
REMARK    9  A    between atoms: C_17  and  O_19
REMARK   10  A    between atoms: C_21  and  O_22
REMARK   11  A    between atoms: C_24  and  O_25
REMARK                            x       y       z     vdW  Elec       q    Type
REMARK                         _______ _______ _______ _____ _____    ______ ____
ROOT
ATOM      1  C   UNL     1       7.731   6.923  18.148  0.00  0.00    +0.000 C 
ATOM      2  O   UNL     1       7.987   6.360  19.204  0.00  0.00    +0.000 OA
ENDROOT
BRANCH   1   3
ATOM      3  C   UNL     1       7.048   6.199  17.033  0.00  0.00    +0.000 A 
ATOM      4  C   UNL     1       6.032   6.873  16.337  0.00  0.00    +0.000 A 
ATOM      5  C   UNL     1       5.366   6.255  15.270  0.00  0.00    +0.000 A 
ATOM      6  C   UNL     1       5.700   4.952  14.897  0.00  0.00    +0.000 A 
ATOM      7  C   UNL     1       6.706   4.275  15.586  0.00  0.00    +0.000 A 
ATOM      8  C   UNL     1       7.364   4.886  16.655  0.00  0.00    +0.000 A 
BRANCH   8   9
ATOM      9  O   UNL     1       8.307   4.168  17.336  0.00  0.00    +0.000 OA
ATOM     10  H   UNL     1       9.124   4.102  16.814  0.00  0.00    +0.000 HD
ENDBRANCH   8   9
BRANCH   6  11
ATOM     11  O   UNL     1       5.152   4.259  13.851  0.00  0.00    +0.000 OA
BRANCH  11  12
ATOM     12  C   UNL     1       6.032   3.345  13.188  0.00  0.00    +0.000 C 
BRANCH  12  13
ATOM     13  C   UNL     1       5.325   2.774  11.969  0.00  0.00    +0.000 C 
ATOM     14  O   UNL     1       5.757   1.842  11.306  0.00  0.00    +0.000 OA
BRANCH  13  15
ATOM     15  O   UNL     1       4.152   3.389  11.684  0.00  0.00    +0.000 OA
ATOM     16  H   UNL     1       4.304   4.109  11.034  0.00  0.00    +0.000 HD
ENDBRANCH  13  15
ENDBRANCH  12  13
ENDBRANCH  11  12
ENDBRANCH   6  11
ENDBRANCH   1   3
BRANCH   1  18
ATOM     17  C   UNL     1       8.759   9.093  18.780  0.00  0.00    +0.000 C 
ATOM     18  C   UNL     1       8.016   8.366  17.932  0.00  0.00    +0.000 C 
BRANCH  17  22
ATOM     19  C   UNL     1       9.965  13.133  17.880  0.00  0.00    +0.000 A 
ATOM     20  C   UNL     1      10.859  12.208  18.434  0.00  0.00    +0.000 A 
ATOM     21  C   UNL     1      10.460  10.900  18.737  0.00  0.00    +0.000 A 
ATOM     22  C   UNL     1       9.150  10.484  18.486  0.00  0.00    +0.000 A 
ATOM     23  C   UNL     1       8.248  11.418  17.954  0.00  0.00    +0.000 A 
ATOM     24  C   UNL     1       8.652  12.724  17.644  0.00  0.00    +0.000 A 
BRANCH  19  26
ATOM     25  C   UNL     1      10.286  15.399  18.574  0.00  0.00    +0.000 C 
ATOM     26  O   UNL     1      10.531  14.356  17.641  0.00  0.00    +0.000 OA
ENDBRANCH  19  26
BRANCH  24  27
ATOM     27  O   UNL     1       7.721  13.569  17.103  0.00  0.00    +0.000 OA
ATOM     28  H   UNL     1       6.923  13.066  16.875  0.00  0.00    +0.000 HD
ENDBRANCH  24  27
ENDBRANCH  17  22
ENDBRANCH   1  18
TORSDOF 10
ENDMDL
MODEL 9
REMARK VINA RESULT:      -7.3      4.881      7.714
REMARK  Name = 
REMARK  11 active torsions:
REMARK  status: ('A' for Active; 'I' for Inactive)
REMARK    1  A    between atoms: C_1  and  O_2
REMARK    2  A    between atoms: O_2  and  C_3
REMARK    3  A    between atoms: C_6  and  C_7
REMARK    4  A    between atoms: C_8  and  C_9
REMARK    5  A    between atoms: C_9  and  C_11
REMARK    6  A    between atoms: C_14  and  O_15
REMARK    7  A    between atoms: O_15  and  C_16
REMARK    8  A    between atoms: C_16  and  C_17
REMARK    9  A    between atoms: C_17  and  O_19
REMARK   10  A    between atoms: C_21  and  O_22
REMARK   11  A    between atoms: C_24  and  O_25
REMARK                            x       y       z     vdW  Elec       q    Type
REMARK                         _______ _______ _______ _____ _____    ______ ____
ROOT
ATOM      1  C   UNL     1       3.307   5.596  19.494  0.00  0.00    +0.000 C 
ATOM      2  O   UNL     1       3.066   4.632  20.210  0.00  0.00    +0.000 OA
ENDROOT
BRANCH   1   3
ATOM      3  C   UNL     1       4.328   5.513  18.406  0.00  0.00    +0.000 A 
ATOM      4  C   UNL     1       4.298   6.492  17.401  0.00  0.00    +0.000 A 
ATOM      5  C   UNL     1       5.241   6.479  16.362  0.00  0.00    +0.000 A 
ATOM      6  C   UNL     1       6.214   5.480  16.313  0.00  0.00    +0.000 A 
ATOM      7  C   UNL     1       6.248   4.502  17.307  0.00  0.00    +0.000 A 
ATOM      8  C   UNL     1       5.304   4.508  18.336  0.00  0.00    +0.000 A 
BRANCH   8   9
ATOM      9  O   UNL     1       5.342   3.501  19.260  0.00  0.00    +0.000 OA
ATOM     10  H   UNL     1       4.889   2.712  18.918  0.00  0.00    +0.000 HD
ENDBRANCH   8   9
BRANCH   6  11
ATOM     11  O   UNL     1       7.209   5.385  15.377  0.00  0.00    +0.000 OA
BRANCH  11  12
ATOM     12  C   UNL     1       6.853   4.710  14.166  0.00  0.00    +0.000 C 
BRANCH  12  13
ATOM     13  C   UNL     1       7.768   5.185  13.048  0.00  0.00    +0.000 C 
ATOM     14  O   UNL     1       8.654   6.013  13.199  0.00  0.00    +0.000 OA
BRANCH  13  15
ATOM     15  O   UNL     1       7.521   4.591  11.855  0.00  0.00    +0.000 OA
ATOM     16  H   UNL     1       6.553   4.551  11.699  0.00  0.00    +0.000 HD
ENDBRANCH  13  15
ENDBRANCH  12  13
ENDBRANCH  11  12
ENDBRANCH   6  11
ENDBRANCH   1   3
BRANCH   1  18
ATOM     17  C   UNL     1       1.750   7.149  20.647  0.00  0.00    +0.000 C 
ATOM     18  C   UNL     1       2.559   6.874  19.612  0.00  0.00    +0.000 C 
BRANCH  17  22
ATOM     19  C   UNL     1      -0.135  10.999  21.102  0.00  0.00    +0.000 A 
ATOM     20  C   UNL     1       0.307  10.543  19.853  0.00  0.00    +0.000 A 
ATOM     21  C   UNL     1       0.931   9.297  19.712  0.00  0.00    +0.000 A 
ATOM     22  C   UNL     1       1.123   8.472  20.823  0.00  0.00    +0.000 A 
ATOM     23  C   UNL     1       0.703   8.940  22.077  0.00  0.00    +0.000 A 
ATOM     24  C   UNL     1       0.072  10.183  22.215  0.00  0.00    +0.000 A 
BRANCH  19  26
ATOM     25  C   UNL     1      -2.135  12.285  20.847  0.00  0.00    +0.000 C 
ATOM     26  O   UNL     1      -0.730  12.231  21.048  0.00  0.00    +0.000 OA
ENDBRANCH  19  26
BRANCH  24  27
ATOM     27  O   UNL     1      -0.334  10.559  23.467  0.00  0.00    +0.000 OA
ATOM     28  H   UNL     1      -0.404  11.527  23.505  0.00  0.00    +0.000 HD
ENDBRANCH  24  27
ENDBRANCH  17  22
ENDBRANCH   1  18
TORSDOF 10
ENDMDL
