MODEL 1
REMARK VINA RESULT:      -7.3      0.000      0.000
REMARK  Name = 
REMARK  9 active torsions:
REMARK  status: ('A' for Active; 'I' for Inactive)
REMARK    1  A    between atoms: C_2  and  O_3
REMARK    2  A    between atoms: C_2  and  C_4
REMARK    3  A    between atoms: C_4  and  N_5
REMARK    4  A    between atoms: N_5  and  S_6
REMARK    5  A    between atoms: S_6  and  C_9
REMARK    6  A    between atoms: C_12  and  N_13
REMARK    7  A    between atoms: C_14  and  C_16
REMARK    8  A    between atoms: C_16  and  C_17
REMARK    9  A    between atoms: C_17  and  C_18
REMARK                            x       y       z     vdW  Elec       q    Type
REMARK                         _______ _______ _______ _____ _____    ______ ____
ROOT
ATOM      1  C   UNL     1       3.986   4.282  17.589  0.00  0.00    +0.000 A 
ATOM      2  C   UNL     1       4.936   4.346  16.576  0.00  0.00    +0.000 A 
ATOM      3  C   UNL     1       5.779   5.457  16.495  0.00  0.00    +0.000 A 
ATOM      4  C   UNL     1       5.695   6.510  17.416  0.00  0.00    +0.000 A 
ATOM      5  C   UNL     1       4.717   6.440  18.417  0.00  0.00    +0.000 A 
ATOM      6  C   UNL     1       3.855   5.336  18.500  0.00  0.00    +0.000 A 
ENDROOT
BRANCH   4   7
ATOM      7  N   UNL     1       6.535   7.650  17.376  0.00  0.00    +0.000 N 
ATOM      8  C   UNL     1       7.755   7.784  18.019  0.00  0.00    +0.000 C 
ATOM      9  O   UNL     1       8.253   6.956  18.779  0.00  0.00    +0.000 OA
ATOM     10  H   UNL     1       6.219   8.432  16.814  0.00  0.00    +0.000 HD
BRANCH   8  11
ATOM     11  C   UNL     1       8.466   9.098  17.754  0.00  0.00    +0.000 C 
BRANCH  11  12
ATOM     12  C   UNL     1       8.954   9.670  19.089  0.00  0.00    +0.000 C 
BRANCH  12  13
ATOM     13  C   UNL     1       9.856  10.866  18.943  0.00  0.00    +0.000 A 
ATOM     14  C   UNL     1      10.211  11.332  17.671  0.00  0.00    +0.000 A 
ATOM     15  C   UNL     1      11.015  12.465  17.533  0.00  0.00    +0.000 A 
ATOM     16  C   UNL     1      11.474  13.136  18.665  0.00  0.00    +0.000 A 
ATOM     17  C   UNL     1      11.128  12.677  19.935  0.00  0.00    +0.000 A 
ATOM     18  C   UNL     1      10.323  11.545  20.075  0.00  0.00    +0.000 A 
ENDBRANCH  12  13
ENDBRANCH  11  12
ENDBRANCH   8  11
ENDBRANCH   4   7
BRANCH   1  19
ATOM     19  S   UNL     1       2.913   2.869  17.713  0.00  0.00    +0.000 S 
ATOM     20  O   UNL     1       3.681   1.731  18.164  0.00  0.00    +0.000 OA
ATOM     21  O   UNL     1       2.114   2.844  16.513  0.00  0.00    +0.000 OA
BRANCH  19  22
ATOM     22  N   UNL     1       1.867   3.326  18.986  0.00  0.00    +0.000 NA
ATOM     23  H   UNL     1       2.192   4.224  19.359  0.00  0.00    +0.000 HD
BRANCH  22  24
ATOM     24  C   UNL     1       1.759   2.305  20.077  0.00  0.00    +0.000 C 
BRANCH  24  26
ATOM     25  O   UNL     1       2.229   3.427  22.178  0.00  0.00    +0.000 OA
ATOM     26  C   UNL     1       2.625   2.753  21.240  0.00  0.00    +0.000 C 
BRANCH  26  27
ATOM     27  O   UNL     1       3.910   2.332  21.122  0.00  0.00    +0.000 OA
ATOM     28  H   UNL     1       4.497   2.925  21.643  0.00  0.00    +0.000 HD
ENDBRANCH  26  27
ENDBRANCH  24  26
ENDBRANCH  22  24
ENDBRANCH  19  22
ENDBRANCH   1  19
TORSDOF 9
ENDMDL
MODEL 2
REMARK VINA RESULT:      -7.2      5.641      8.610
REMARK  Name = 
REMARK  9 active torsions:
REMARK  status: ('A' for Active; 'I' for Inactive)
REMARK    1  A    between atoms: C_2  and  O_3
REMARK    2  A    between atoms: C_2  and  C_4
REMARK    3  A    between atoms: C_4  and  N_5
REMARK    4  A    between atoms: N_5  and  S_6
REMARK    5  A    between atoms: S_6  and  C_9
REMARK    6  A    between atoms: C_12  and  N_13
REMARK    7  A    between atoms: C_14  and  C_16
REMARK    8  A    between atoms: C_16  and  C_17
REMARK    9  A    between atoms: C_17  and  C_18
REMARK                            x       y       z     vdW  Elec       q    Type
REMARK                         _______ _______ _______ _____ _____    ______ ____
ROOT
ATOM      1  C   UNL     1       1.496   9.435  19.208  0.00  0.00    +0.000 A 
ATOM      2  C   UNL     1       1.566   8.365  20.093  0.00  0.00    +0.000 A 
ATOM      3  C   UNL     1       2.168   7.173  19.681  0.00  0.00    +0.000 A 
ATOM      4  C   UNL     1       2.710   7.031  18.397  0.00  0.00    +0.000 A 
ATOM      5  C   UNL     1       2.612   8.112  17.511  0.00  0.00    +0.000 A 
ATOM      6  C   UNL     1       1.997   9.309  17.908  0.00  0.00    +0.000 A 
ENDROOT
BRANCH   4   7
ATOM      7  N   UNL     1       3.338   5.844  17.942  0.00  0.00    +0.000 N 
ATOM      8  C   UNL     1       4.449   5.243  18.510  0.00  0.00    +0.000 C 
ATOM      9  O   UNL     1       5.098   5.694  19.451  0.00  0.00    +0.000 OA
ATOM     10  H   UNL     1       2.925   5.389  17.136  0.00  0.00    +0.000 HD
BRANCH   8  11
ATOM     11  C   UNL     1       4.872   3.947  17.844  0.00  0.00    +0.000 C 
BRANCH  11  12
ATOM     12  C   UNL     1       3.662   3.009  17.784  0.00  0.00    +0.000 C 
BRANCH  12  13
ATOM     13  C   UNL     1       2.859   2.972  19.057  0.00  0.00    +0.000 A 
ATOM     14  C   UNL     1       1.482   3.236  19.032  0.00  0.00    +0.000 A 
ATOM     15  C   UNL     1       0.729   3.164  20.204  0.00  0.00    +0.000 A 
ATOM     16  C   UNL     1       1.345   2.833  21.410  0.00  0.00    +0.000 A 
ATOM     17  C   UNL     1       2.714   2.572  21.444  0.00  0.00    +0.000 A 
ATOM     18  C   UNL     1       3.469   2.642  20.273  0.00  0.00    +0.000 A 
ENDBRANCH  12  13
ENDBRANCH  11  12
ENDBRANCH   8  11
ENDBRANCH   4   7
BRANCH   1  19
ATOM     19  S   UNL     1       0.744  10.963  19.720  0.00  0.00    +0.000 S 
ATOM     20  O   UNL     1      -0.679  10.895  19.474  0.00  0.00    +0.000 OA
ATOM     21  O   UNL     1       1.572  12.029  19.213  0.00  0.00    +0.000 OA
BRANCH  19  22
ATOM     22  N   UNL     1       0.979  10.926  21.413  0.00  0.00    +0.000 NA
ATOM     23  H   UNL     1       1.584  10.128  21.634  0.00  0.00    +0.000 HD
BRANCH  22  24
ATOM     24  C   UNL     1      -0.294  10.861  22.200  0.00  0.00    +0.000 C 
BRANCH  24  26
ATOM     25  O   UNL     1      -0.872   8.515  22.439  0.00  0.00    +0.000 OA
ATOM     26  C   UNL     1      -0.354   9.517  22.904  0.00  0.00    +0.000 C 
BRANCH  26  27
ATOM     27  O   UNL     1       0.227   9.549  24.131  0.00  0.00    +0.000 OA
ATOM     28  H   UNL     1      -0.399   9.186  24.797  0.00  0.00    +0.000 HD
ENDBRANCH  26  27
ENDBRANCH  24  26
ENDBRANCH  22  24
ENDBRANCH  19  22
ENDBRANCH   1  19
TORSDOF 9
ENDMDL
MODEL 3
REMARK VINA RESULT:      -7.2      5.697      8.654
REMARK  Name = 
REMARK  9 active torsions:
REMARK  status: ('A' for Active; 'I' for Inactive)
REMARK    1  A    between atoms: C_2  and  O_3
REMARK    2  A    between atoms: C_2  and  C_4
REMARK    3  A    between atoms: C_4  and  N_5
REMARK    4  A    between atoms: N_5  and  S_6
REMARK    5  A    between atoms: S_6  and  C_9
REMARK    6  A    between atoms: C_12  and  N_13
REMARK    7  A    between atoms: C_14  and  C_16
REMARK    8  A    between atoms: C_16  and  C_17
REMARK    9  A    between atoms: C_17  and  C_18
REMARK                            x       y       z     vdW  Elec       q    Type
REMARK                         _______ _______ _______ _____ _____    ______ ____
ROOT
ATOM      1  C   UNL     1       4.051   5.962  18.627  0.00  0.00    +0.000 A 
ATOM      2  C   UNL     1       3.968   6.876  17.582  0.00  0.00    +0.000 A 
ATOM      3  C   UNL     1       3.025   7.905  17.644  0.00  0.00    +0.000 A 
ATOM      4  C   UNL     1       2.160   8.043  18.738  0.00  0.00    +0.000 A 
ATOM      5  C   UNL     1       2.242   7.100  19.773  0.00  0.00    +0.000 A 
ATOM      6  C   UNL     1       3.176   6.055  19.715  0.00  0.00    +0.000 A 
ENDROOT
BRANCH   4   7
ATOM      7  N   UNL     1       1.197   9.076  18.846  0.00  0.00    +0.000 N 
ATOM      8  C   UNL     1       1.386  10.404  18.500  0.00  0.00    +0.000 C 
ATOM      9  O   UNL     1       2.445  10.894  18.115  0.00  0.00    +0.000 OA
ATOM     10  H   UNL     1       0.282   8.813  19.196  0.00  0.00    +0.000 HD
BRANCH   8  11
ATOM     11  C   UNL     1       0.158  11.279  18.670  0.00  0.00    +0.000 C 
BRANCH  11  12
ATOM     12  C   UNL     1      -1.062  10.376  18.884  0.00  0.00    +0.000 C 
BRANCH  12  13
ATOM     13  C   UNL     1      -2.157  10.585  17.873  0.00  0.00    +0.000 A 
ATOM     14  C   UNL     1      -2.106   9.937  16.632  0.00  0.00    +0.000 A 
ATOM     15  C   UNL     1      -3.141  10.098  15.709  0.00  0.00    +0.000 A 
ATOM     16  C   UNL     1      -4.229  10.912  16.016  0.00  0.00    +0.000 A 
ATOM     17  C   UNL     1      -4.287  11.562  17.247  0.00  0.00    +0.000 A 
ATOM     18  C   UNL     1      -3.254  11.402  18.173  0.00  0.00    +0.000 A 
ENDBRANCH  12  13
ENDBRANCH  11  12
ENDBRANCH   8  11
ENDBRANCH   4   7
BRANCH   1  19
ATOM     19  S   UNL     1       5.254   4.654  18.569  0.00  0.00    +0.000 S 
ATOM     20  O   UNL     1       4.570   3.389  18.429  0.00  0.00    +0.000 OA
ATOM     21  O   UNL     1       6.205   4.913  19.622  0.00  0.00    +0.000 OA
BRANCH  19  22
ATOM     22  N   UNL     1       6.058   4.974  17.096  0.00  0.00    +0.000 NA
ATOM     23  H   UNL     1       5.766   5.901  16.767  0.00  0.00    +0.000 HD
BRANCH  22  24
ATOM     24  C   UNL     1       5.824   3.937  16.040  0.00  0.00    +0.000 C 
BRANCH  24  26
ATOM     25  O   UNL     1       7.403   5.259  14.753  0.00  0.00    +0.000 OA
ATOM     26  C   UNL     1       6.632   4.315  14.811  0.00  0.00    +0.000 C 
BRANCH  26  27
ATOM     27  O   UNL     1       6.396   3.487  13.761  0.00  0.00    +0.000 OA
ATOM     28  H   UNL     1       7.209   2.968  13.566  0.00  0.00    +0.000 HD
ENDBRANCH  26  27
ENDBRANCH  24  26
ENDBRANCH  22  24
ENDBRANCH  19  22
ENDBRANCH   1  19
TORSDOF 9
ENDMDL
MODEL 4
REMARK VINA RESULT:      -7.1      5.340      8.175
REMARK  Name = 
REMARK  9 active torsions:
REMARK  status: ('A' for Active; 'I' for Inactive)
REMARK    1  A    between atoms: C_2  and  O_3
REMARK    2  A    between atoms: C_2  and  C_4
REMARK    3  A    between atoms: C_4  and  N_5
REMARK    4  A    between atoms: N_5  and  S_6
REMARK    5  A    between atoms: S_6  and  C_9
REMARK    6  A    between atoms: C_12  and  N_13
REMARK    7  A    between atoms: C_14  and  C_16
REMARK    8  A    between atoms: C_16  and  C_17
REMARK    9  A    between atoms: C_17  and  C_18
REMARK                            x       y       z     vdW  Elec       q    Type
REMARK                         _______ _______ _______ _____ _____    ______ ____
ROOT
ATOM      1  C   UNL     1       3.920   5.404  17.583  0.00  0.00    +0.000 A 
ATOM      2  C   UNL     1       4.397   6.688  17.341  0.00  0.00    +0.000 A 
ATOM      3  C   UNL     1       3.627   7.789  17.725  0.00  0.00    +0.000 A 
ATOM      4  C   UNL     1       2.384   7.632  18.355  0.00  0.00    +0.000 A 
ATOM      5  C   UNL     1       1.909   6.331  18.570  0.00  0.00    +0.000 A 
ATOM      6  C   UNL     1       2.667   5.218  18.176  0.00  0.00    +0.000 A 
ENDROOT
BRANCH   4   7
ATOM      7  N   UNL     1       1.576   8.719  18.769  0.00  0.00    +0.000 N 
ATOM      8  C   UNL     1       1.594   9.996  18.232  0.00  0.00    +0.000 C 
ATOM      9  O   UNL     1       2.368  10.392  17.364  0.00  0.00    +0.000 OA
ATOM     10  H   UNL     1       0.916   8.539  19.517  0.00  0.00    +0.000 HD
BRANCH   8  11
ATOM     11  C   UNL     1       0.577  10.947  18.836  0.00  0.00    +0.000 C 
BRANCH  11  12
ATOM     12  C   UNL     1      -0.715  10.170  19.116  0.00  0.00    +0.000 C 
BRANCH  12  13
ATOM     13  C   UNL     1      -1.813  10.442  18.124  0.00  0.00    +0.000 A 
ATOM     14  C   UNL     1      -1.833   9.778  16.890  0.00  0.00    +0.000 A 
ATOM     15  C   UNL     1      -2.872   9.999  15.986  0.00  0.00    +0.000 A 
ATOM     16  C   UNL     1      -3.896  10.890  16.304  0.00  0.00    +0.000 A 
ATOM     17  C   UNL     1      -3.883  11.558  17.527  0.00  0.00    +0.000 A 
ATOM     18  C   UNL     1      -2.845  11.337  18.434  0.00  0.00    +0.000 A 
ENDBRANCH  12  13
ENDBRANCH  11  12
ENDBRANCH   8  11
ENDBRANCH   4   7
BRANCH   1  19
ATOM     19  S   UNL     1       4.893   3.993  17.111  0.00  0.00    +0.000 S 
ATOM     20  O   UNL     1       5.543   4.267  15.849  0.00  0.00    +0.000 OA
ATOM     21  O   UNL     1       4.073   2.827  17.328  0.00  0.00    +0.000 OA
BRANCH  19  22
ATOM     22  N   UNL     1       6.100   3.972  18.321  0.00  0.00    +0.000 NA
ATOM     23  H   UNL     1       5.704   4.379  19.175  0.00  0.00    +0.000 HD
BRANCH  22  24
ATOM     24  C   UNL     1       7.362   4.679  17.931  0.00  0.00    +0.000 C 
BRANCH  24  26
ATOM     25  O   UNL     1       7.648   5.509  20.195  0.00  0.00    +0.000 OA
ATOM     26  C   UNL     1       7.677   5.717  18.993  0.00  0.00    +0.000 C 
BRANCH  26  27
ATOM     27  O   UNL     1       7.987   6.927  18.460  0.00  0.00    +0.000 OA
ATOM     28  H   UNL     1       8.821   7.257  18.864  0.00  0.00    +0.000 HD
ENDBRANCH  26  27
ENDBRANCH  24  26
ENDBRANCH  22  24
ENDBRANCH  19  22
ENDBRANCH   1  19
TORSDOF 9
ENDMDL
MODEL 5
REMARK VINA RESULT:      -7.1      1.115      1.204
REMARK  Name = 
REMARK  9 active torsions:
REMARK  status: ('A' for Active; 'I' for Inactive)
REMARK    1  A    between atoms: C_2  and  O_3
REMARK    2  A    between atoms: C_2  and  C_4
REMARK    3  A    between atoms: C_4  and  N_5
REMARK    4  A    between atoms: N_5  and  S_6
REMARK    5  A    between atoms: S_6  and  C_9
REMARK    6  A    between atoms: C_12  and  N_13
REMARK    7  A    between atoms: C_14  and  C_16
REMARK    8  A    between atoms: C_16  and  C_17
REMARK    9  A    between atoms: C_17  and  C_18
REMARK                            x       y       z     vdW  Elec       q    Type
REMARK                         _______ _______ _______ _____ _____    ______ ____
ROOT
ATOM      1  C   UNL     1       4.276   4.014  17.919  0.00  0.00    +0.000 A 
ATOM      2  C   UNL     1       4.734   4.772  16.846  0.00  0.00    +0.000 A 
ATOM      3  C   UNL     1       5.794   5.662  17.038  0.00  0.00    +0.000 A 
ATOM      4  C   UNL     1       6.414   5.806  18.287  0.00  0.00    +0.000 A 
ATOM      5  C   UNL     1       5.925   5.051  19.362  0.00  0.00    +0.000 A 
ATOM      6  C   UNL     1       4.852   4.165  19.185  0.00  0.00    +0.000 A 
ENDROOT
BRANCH   4   7
ATOM      7  N   UNL     1       7.497   6.688  18.524  0.00  0.00    +0.000 N 
ATOM      8  C   UNL     1       7.702   7.909  17.902  0.00  0.00    +0.000 C 
ATOM      9  O   UNL     1       7.009   8.372  16.998  0.00  0.00    +0.000 OA
ATOM     10  H   UNL     1       8.174   6.403  19.222  0.00  0.00    +0.000 HD
BRANCH   8  11
ATOM     11  C   UNL     1       8.920   8.669  18.394  0.00  0.00    +0.000 C 
BRANCH  11  12
ATOM     12  C   UNL     1       8.719  10.160  18.101  0.00  0.00    +0.000 C 
BRANCH  12  13
ATOM     13  C   UNL     1       9.826  11.035  18.623  0.00  0.00    +0.000 A 
ATOM     14  C   UNL     1      10.735  11.629  17.737  0.00  0.00    +0.000 A 
ATOM     15  C   UNL     1      11.738  12.473  18.216  0.00  0.00    +0.000 A 
ATOM     16  C   UNL     1      11.844  12.725  19.582  0.00  0.00    +0.000 A 
ATOM     17  C   UNL     1      10.947  12.136  20.471  0.00  0.00    +0.000 A 
ATOM     18  C   UNL     1       9.942  11.292  19.994  0.00  0.00    +0.000 A 
ENDBRANCH  12  13
ENDBRANCH  11  12
ENDBRANCH   8  11
ENDBRANCH   4   7
BRANCH   1  19
ATOM     19  S   UNL     1       2.935   2.869  17.688  0.00  0.00    +0.000 S 
ATOM     20  O   UNL     1       3.416   1.526  17.917  0.00  0.00    +0.000 OA
ATOM     21  O   UNL     1       2.257   3.258  16.476  0.00  0.00    +0.000 OA
BRANCH  19  22
ATOM     22  N   UNL     1       1.894   3.275  18.981  0.00  0.00    +0.000 NA
ATOM     23  H   UNL     1       2.112   4.231  19.280  0.00  0.00    +0.000 HD
BRANCH  22  24
ATOM     24  C   UNL     1       1.967   2.326  20.138  0.00  0.00    +0.000 C 
BRANCH  24  26
ATOM     25  O   UNL     1       2.267   4.269  21.563  0.00  0.00    +0.000 OA
ATOM     26  C   UNL     1       1.857   3.128  21.422  0.00  0.00    +0.000 C 
BRANCH  26  27
ATOM     27  O   UNL     1       1.256   2.430  22.420  0.00  0.00    +0.000 OA
ATOM     28  H   UNL     1       1.474   1.475  22.327  0.00  0.00    +0.000 HD
ENDBRANCH  26  27
ENDBRANCH  24  26
ENDBRANCH  22  24
ENDBRANCH  19  22
ENDBRANCH   1  19
TORSDOF 9
ENDMDL
MODEL 6
REMARK VINA RESULT:      -7.1      5.752      9.146
REMARK  Name = 
REMARK  9 active torsions:
REMARK  status: ('A' for Active; 'I' for Inactive)
REMARK    1  A    between atoms: C_2  and  O_3
REMARK    2  A    between atoms: C_2  and  C_4
REMARK    3  A    between atoms: C_4  and  N_5
REMARK    4  A    between atoms: N_5  and  S_6
REMARK    5  A    between atoms: S_6  and  C_9
REMARK    6  A    between atoms: C_12  and  N_13
REMARK    7  A    between atoms: C_14  and  C_16
REMARK    8  A    between atoms: C_16  and  C_17
REMARK    9  A    between atoms: C_17  and  C_18
REMARK                            x       y       z     vdW  Elec       q    Type
REMARK                         _______ _______ _______ _____ _____    ______ ____
ROOT
ATOM      1  C   UNL     1       1.396   9.593  19.455  0.00  0.00    +0.000 A 
ATOM      2  C   UNL     1       1.478   8.483  20.288  0.00  0.00    +0.000 A 
ATOM      3  C   UNL     1       1.970   7.278  19.780  0.00  0.00    +0.000 A 
ATOM      4  C   UNL     1       2.389   7.161  18.448  0.00  0.00    +0.000 A 
ATOM      5  C   UNL     1       2.280   8.284  17.616  0.00  0.00    +0.000 A 
ATOM      6  C   UNL     1       1.774   9.495  18.112  0.00  0.00    +0.000 A 
ENDROOT
BRANCH   4   7
ATOM      7  N   UNL     1       2.903   5.962  17.893  0.00  0.00    +0.000 N 
ATOM      8  C   UNL     1       4.147   5.412  18.157  0.00  0.00    +0.000 C 
ATOM      9  O   UNL     1       5.017   5.925  18.856  0.00  0.00    +0.000 OA
ATOM     10  H   UNL     1       2.297   5.456  17.258  0.00  0.00    +0.000 HD
BRANCH   8  11
ATOM     11  C   UNL     1       4.408   4.088  17.463  0.00  0.00    +0.000 C 
BRANCH  11  12
ATOM     12  C   UNL     1       3.125   3.251  17.504  0.00  0.00    +0.000 C 
BRANCH  12  13
ATOM     13  C   UNL     1       2.566   3.065  18.889  0.00  0.00    +0.000 A 
ATOM     14  C   UNL     1       3.410   2.707  19.950  0.00  0.00    +0.000 A 
ATOM     15  C   UNL     1       2.900   2.574  21.242  0.00  0.00    +0.000 A 
ATOM     16  C   UNL     1       1.545   2.789  21.483  0.00  0.00    +0.000 A 
ATOM     17  C   UNL     1       0.698   3.141  20.434  0.00  0.00    +0.000 A 
ATOM     18  C   UNL     1       1.206   3.277  19.140  0.00  0.00    +0.000 A 
ENDBRANCH  12  13
ENDBRANCH  11  12
ENDBRANCH   8  11
ENDBRANCH   4   7
BRANCH   1  19
ATOM     19  S   UNL     1       0.784  11.136  20.091  0.00  0.00    +0.000 S 
ATOM     20  O   UNL     1       1.124  12.195  19.168  0.00  0.00    +0.000 OA
ATOM     21  O   UNL     1       1.132  11.181  21.490  0.00  0.00    +0.000 OA
BRANCH  19  22
ATOM     22  N   UNL     1      -0.908  10.907  20.016  0.00  0.00    +0.000 NA
ATOM     23  H   UNL     1      -1.087   9.931  19.755  0.00  0.00    +0.000 HD
BRANCH  22  24
ATOM     24  C   UNL     1      -1.606  11.845  19.079  0.00  0.00    +0.000 C 
BRANCH  24  26
ATOM     25  O   UNL     1      -2.057   9.904  17.691  0.00  0.00    +0.000 OA
ATOM     26  C   UNL     1      -1.879  11.108  17.780  0.00  0.00    +0.000 C 
BRANCH  26  27
ATOM     27  O   UNL     1      -1.894  11.939  16.706  0.00  0.00    +0.000 OA
ATOM     28  H   UNL     1      -0.978  12.247  16.520  0.00  0.00    +0.000 HD
ENDBRANCH  26  27
ENDBRANCH  24  26
ENDBRANCH  22  24
ENDBRANCH  19  22
ENDBRANCH   1  19
TORSDOF 9
ENDMDL
MODEL 7
REMARK VINA RESULT:      -7.1      5.279      8.228
REMARK  Name = 
REMARK  9 active torsions:
REMARK  status: ('A' for Active; 'I' for Inactive)
REMARK    1  A    between atoms: C_2  and  O_3
REMARK    2  A    between atoms: C_2  and  C_4
REMARK    3  A    between atoms: C_4  and  N_5
REMARK    4  A    between atoms: N_5  and  S_6
REMARK    5  A    between atoms: S_6  and  C_9
REMARK    6  A    between atoms: C_12  and  N_13
REMARK    7  A    between atoms: C_14  and  C_16
REMARK    8  A    between atoms: C_16  and  C_17
REMARK    9  A    between atoms: C_17  and  C_18
REMARK                            x       y       z     vdW  Elec       q    Type
REMARK                         _______ _______ _______ _____ _____    ______ ____
ROOT
ATOM      1  C   UNL     1       4.714   5.497  16.745  0.00  0.00    +0.000 A 
ATOM      2  C   UNL     1       3.671   4.891  17.435  0.00  0.00    +0.000 A 
ATOM      3  C   UNL     1       2.775   5.683  18.158  0.00  0.00    +0.000 A 
ATOM      4  C   UNL     1       2.900   7.079  18.200  0.00  0.00    +0.000 A 
ATOM      5  C   UNL     1       3.970   7.671  17.517  0.00  0.00    +0.000 A 
ATOM      6  C   UNL     1       4.884   6.884  16.799  0.00  0.00    +0.000 A 
ENDROOT
BRANCH   4   7
ATOM      7  N   UNL     1       2.009   7.920  18.912  0.00  0.00    +0.000 N 
ATOM      8  C   UNL     1       1.536   9.150  18.485  0.00  0.00    +0.000 C 
ATOM      9  O   UNL     1       1.879   9.725  17.454  0.00  0.00    +0.000 OA
ATOM     10  H   UNL     1       1.680   7.583  19.809  0.00  0.00    +0.000 HD
BRANCH   8  11
ATOM     11  C   UNL     1       0.548   9.807  19.431  0.00  0.00    +0.000 C 
BRANCH  11  12
ATOM     12  C   UNL     1      -0.021  11.059  18.754  0.00  0.00    +0.000 C 
BRANCH  12  13
ATOM     13  C   UNL     1      -1.443  10.904  18.288  0.00  0.00    +0.000 A 
ATOM     14  C   UNL     1      -2.459  11.693  18.844  0.00  0.00    +0.000 A 
ATOM     15  C   UNL     1      -3.772  11.578  18.385  0.00  0.00    +0.000 A 
ATOM     16  C   UNL     1      -4.081  10.672  17.373  0.00  0.00    +0.000 A 
ATOM     17  C   UNL     1      -3.077   9.881  16.816  0.00  0.00    +0.000 A 
ATOM     18  C   UNL     1      -1.763   9.995  17.273  0.00  0.00    +0.000 A 
ENDBRANCH  12  13
ENDBRANCH  11  12
ENDBRANCH   8  11
ENDBRANCH   4   7
BRANCH   1  19
ATOM     19  S   UNL     1       5.855   4.503  15.811  0.00  0.00    +0.000 S 
ATOM     20  O   UNL     1       5.767   4.867  14.415  0.00  0.00    +0.000 OA
ATOM     21  O   UNL     1       5.704   3.145  16.273  0.00  0.00    +0.000 OA
BRANCH  19  22
ATOM     22  N   UNL     1       7.366   5.051  16.394  0.00  0.00    +0.000 NA
ATOM     23  H   UNL     1       8.084   4.799  15.707  0.00  0.00    +0.000 HD
BRANCH  22  24
ATOM     24  C   UNL     1       7.718   4.522  17.751  0.00  0.00    +0.000 C 
BRANCH  24  26
ATOM     25  O   UNL     1       8.140   6.748  18.625  0.00  0.00    +0.000 OA
ATOM     26  C   UNL     1       7.605   5.658  18.751  0.00  0.00    +0.000 C 
BRANCH  26  27
ATOM     27  O   UNL     1       6.844   5.328  19.827  0.00  0.00    +0.000 OA
ATOM     28  H   UNL     1       5.973   5.782  19.761  0.00  0.00    +0.000 HD
ENDBRANCH  26  27
ENDBRANCH  24  26
ENDBRANCH  22  24
ENDBRANCH  19  22
ENDBRANCH   1  19
TORSDOF 9
ENDMDL
MODEL 8
REMARK VINA RESULT:      -7.1      5.305      8.257
REMARK  Name = 
REMARK  9 active torsions:
REMARK  status: ('A' for Active; 'I' for Inactive)
REMARK    1  A    between atoms: C_2  and  O_3
REMARK    2  A    between atoms: C_2  and  C_4
REMARK    3  A    between atoms: C_4  and  N_5
REMARK    4  A    between atoms: N_5  and  S_6
REMARK    5  A    between atoms: S_6  and  C_9
REMARK    6  A    between atoms: C_12  and  N_13
REMARK    7  A    between atoms: C_14  and  C_16
REMARK    8  A    between atoms: C_16  and  C_17
REMARK    9  A    between atoms: C_17  and  C_18
REMARK                            x       y       z     vdW  Elec       q    Type
REMARK                         _______ _______ _______ _____ _____    ______ ____
ROOT
ATOM      1  C   UNL     1       3.908   5.366  17.489  0.00  0.00    +0.000 A 
ATOM      2  C   UNL     1       4.497   6.576  17.136  0.00  0.00    +0.000 A 
ATOM      3  C   UNL     1       3.770   7.761  17.283  0.00  0.00    +0.000 A 
ATOM      4  C   UNL     1       2.462   7.761  17.785  0.00  0.00    +0.000 A 
ATOM      5  C   UNL     1       1.877   6.531  18.115  0.00  0.00    +0.000 A 
ATOM      6  C   UNL     1       2.591   5.334  17.958  0.00  0.00    +0.000 A 
ENDROOT
BRANCH   4   7
ATOM      7  N   UNL     1       1.694   8.939  17.959  0.00  0.00    +0.000 N 
ATOM      8  C   UNL     1       1.172   9.399  19.157  0.00  0.00    +0.000 C 
ATOM      9  O   UNL     1       1.239   8.811  20.235  0.00  0.00    +0.000 OA
ATOM     10  H   UNL     1       1.523   9.500  17.133  0.00  0.00    +0.000 HD
BRANCH   8  11
ATOM     11  C   UNL     1       0.435  10.722  19.056  0.00  0.00    +0.000 C 
BRANCH  11  12
ATOM     12  C   UNL     1      -1.029  10.500  19.452  0.00  0.00    +0.000 C 
BRANCH  12  13
ATOM     13  C   UNL     1      -1.990  10.591  18.298  0.00  0.00    +0.000 A 
ATOM     14  C   UNL     1      -3.128  11.404  18.388  0.00  0.00    +0.000 A 
ATOM     15  C   UNL     1      -4.000  11.521  17.305  0.00  0.00    +0.000 A 
ATOM     16  C   UNL     1      -3.745  10.823  16.126  0.00  0.00    +0.000 A 
ATOM     17  C   UNL     1      -2.617  10.009  16.028  0.00  0.00    +0.000 A 
ATOM     18  C   UNL     1      -1.743   9.892  17.110  0.00  0.00    +0.000 A 
ENDBRANCH  12  13
ENDBRANCH  11  12
ENDBRANCH   8  11
ENDBRANCH   4   7
BRANCH   1  19
ATOM     19  S   UNL     1       4.823   3.851  17.318  0.00  0.00    +0.000 S 
ATOM     20  O   UNL     1       5.433   3.812  16.009  0.00  0.00    +0.000 OA
ATOM     21  O   UNL     1       3.979   2.794  17.816  0.00  0.00    +0.000 OA
BRANCH  19  22
ATOM     22  N   UNL     1       6.073   4.059  18.466  0.00  0.00    +0.000 NA
ATOM     23  H   UNL     1       5.705   4.618  19.242  0.00  0.00    +0.000 HD
BRANCH  22  24
ATOM     24  C   UNL     1       7.315   4.682  17.904  0.00  0.00    +0.000 C 
BRANCH  24  26
ATOM     25  O   UNL     1       8.241   5.283  20.066  0.00  0.00    +0.000 OA
ATOM     26  C   UNL     1       7.892   5.621  18.947  0.00  0.00    +0.000 C 
BRANCH  26  27
ATOM     27  O   UNL     1       7.971   6.903  18.503  0.00  0.00    +0.000 OA
ATOM     28  H   UNL     1       7.905   6.912  17.521  0.00  0.00    +0.000 HD
ENDBRANCH  26  27
ENDBRANCH  24  26
ENDBRANCH  22  24
ENDBRANCH  19  22
ENDBRANCH   1  19
TORSDOF 9
ENDMDL
MODEL 9
REMARK VINA RESULT:      -7.1      1.240      1.642
REMARK  Name = 
REMARK  9 active torsions:
REMARK  status: ('A' for Active; 'I' for Inactive)
REMARK    1  A    between atoms: C_2  and  O_3
REMARK    2  A    between atoms: C_2  and  C_4
REMARK    3  A    between atoms: C_4  and  N_5
REMARK    4  A    between atoms: N_5  and  S_6
REMARK    5  A    between atoms: S_6  and  C_9
REMARK    6  A    between atoms: C_12  and  N_13
REMARK    7  A    between atoms: C_14  and  C_16
REMARK    8  A    between atoms: C_16  and  C_17
REMARK    9  A    between atoms: C_17  and  C_18
REMARK                            x       y       z     vdW  Elec       q    Type
REMARK                         _______ _______ _______ _____ _____    ______ ____
ROOT
ATOM      1  C   UNL     1       4.432   3.621  18.046  0.00  0.00    +0.000 A 
ATOM      2  C   UNL     1       4.757   4.189  19.273  0.00  0.00    +0.000 A 
ATOM      3  C   UNL     1       5.793   5.124  19.343  0.00  0.00    +0.000 A 
ATOM      4  C   UNL     1       6.510   5.510  18.202  0.00  0.00    +0.000 A 
ATOM      5  C   UNL     1       6.184   4.912  16.978  0.00  0.00    +0.000 A 
ATOM      6  C   UNL     1       5.156   3.961  16.898  0.00  0.00    +0.000 A 
ENDROOT
BRANCH   4   7
ATOM      7  N   UNL     1       7.560   6.462  18.226  0.00  0.00    +0.000 N 
ATOM      8  C   UNL     1       7.503   7.749  17.717  0.00  0.00    +0.000 C 
ATOM      9  O   UNL     1       6.552   8.230  17.105  0.00  0.00    +0.000 OA
ATOM     10  H   UNL     1       8.426   6.176  18.668  0.00  0.00    +0.000 HD
BRANCH   8  11
ATOM     11  C   UNL     1       8.762   8.567  17.932  0.00  0.00    +0.000 C 
BRANCH  11  12
ATOM     12  C   UNL     1       8.363  10.024  18.190  0.00  0.00    +0.000 C 
BRANCH  12  13
ATOM     13  C   UNL     1       9.458  10.854  18.805  0.00  0.00    +0.000 A 
ATOM     14  C   UNL     1      10.437  11.444  17.995  0.00  0.00    +0.000 A 
ATOM     15  C   UNL     1      11.430  12.246  18.559  0.00  0.00    +0.000 A 
ATOM     16  C   UNL     1      11.456  12.460  19.936  0.00  0.00    +0.000 A 
ATOM     17  C   UNL     1      10.487  11.874  20.750  0.00  0.00    +0.000 A 
ATOM     18  C   UNL     1       9.493  11.072  20.188  0.00  0.00    +0.000 A 
ENDBRANCH  12  13
ENDBRANCH  11  12
ENDBRANCH   8  11
ENDBRANCH   4   7
BRANCH   1  19
ATOM     19  S   UNL     1       3.109   2.438  17.939  0.00  0.00    +0.000 S 
ATOM     20  O   UNL     1       3.640   1.174  17.482  0.00  0.00    +0.000 OA
ATOM     21  O   UNL     1       2.006   3.101  17.288  0.00  0.00    +0.000 OA
BRANCH  19  22
ATOM     22  N   UNL     1       2.665   2.250  19.579  0.00  0.00    +0.000 NA
ATOM     23  H   UNL     1       2.606   1.246  19.782  0.00  0.00    +0.000 HD
BRANCH  22  24
ATOM     24  C   UNL     1       1.387   2.942  19.944  0.00  0.00    +0.000 C 
BRANCH  24  26
ATOM     25  O   UNL     1       1.586   5.157  20.917  0.00  0.00    +0.000 OA
ATOM     26  C   UNL     1       1.684   3.947  21.042  0.00  0.00    +0.000 C 
BRANCH  26  27
ATOM     27  O   UNL     1       2.089   3.353  22.193  0.00  0.00    +0.000 OA
ATOM     28  H   UNL     1       3.006   3.641  22.404  0.00  0.00    +0.000 HD
ENDBRANCH  26  27
ENDBRANCH  24  26
ENDBRANCH  22  24
ENDBRANCH  19  22
ENDBRANCH   1  19
TORSDOF 9
ENDMDL
