MODEL 1
REMARK VINA RESULT:      -8.2      0.000      0.000
REMARK  Name = 
REMARK  5 active torsions:
REMARK  status: ('A' for Active; 'I' for Inactive)
REMARK    1  A    between atoms: C_1  and  O_2
REMARK    2  A    between atoms: O_2  and  C_3
REMARK    3  A    between atoms: C_6  and  C_7
REMARK    4  A    between atoms: C_9  and  C_10
REMARK    5  A    between atoms: N_21  and  C_22
REMARK                            x       y       z     vdW  Elec       q    Type
REMARK                         _______ _______ _______ _____ _____    ______ ____
ROOT
ATOM      1  C   UNL     1      -1.777  11.447  18.560  0.00  0.00    +0.000 A 
ATOM      2  C   UNL     1      -1.103  10.221  18.450  0.00  0.00    +0.000 A 
ATOM      3  C   UNL     1       0.227  10.451  18.788  0.00  0.00    +0.000 A 
ATOM      4  N   UNL     1       0.318  11.835  18.961  0.00  0.00    +0.000 N 
ATOM      5  N   UNL     1      -0.920  12.410  18.884  0.00  0.00    +0.000 NA
ENDROOT
BRANCH   3   6
ATOM      6  C   UNL     1       1.175   9.382  19.100  0.00  0.00    +0.000 A 
ATOM      7  C   UNL     1       0.991   8.685  20.292  0.00  0.00    +0.000 A 
ATOM      8  C   UNL     1       1.717   7.528  20.520  0.00  0.00    +0.000 A 
ATOM      9  C   UNL     1       2.564   7.046  19.529  0.00  0.00    +0.000 A 
ATOM     10  C   UNL     1       3.223   5.822  19.713  0.00  0.00    +0.000 A 
ATOM     11  C   UNL     1       3.974   5.292  18.678  0.00  0.00    +0.000 A 
ATOM     12  F   UNL     1       4.538   4.086  18.823  0.00  0.00    +0.000 F 
ATOM     13  C   UNL     1       4.117   5.982  17.487  0.00  0.00    +0.000 A 
ATOM     14  C   UNL     1       3.484   7.227  17.330  0.00  0.00    +0.000 A 
ATOM     15  C   UNL     1       2.680   7.784  18.329  0.00  0.00    +0.000 A 
ATOM     16  N   UNL     1       2.006   8.948  18.122  0.00  0.00    +0.000 NA
ENDBRANCH   3   6
BRANCH   4  17
ATOM     17  C   UNL     1       1.407  12.729  19.236  0.00  0.00    +0.000 A 
ATOM     18  C   UNL     1       1.827  13.063  20.525  0.00  0.00    +0.000 A 
ATOM     19  C   UNL     1       2.921  13.924  20.704  0.00  0.00    +0.000 A 
ATOM     20  C   UNL     1       3.596  14.448  19.604  0.00  0.00    +0.000 A 
ATOM     21  F   UNL     1       4.642  15.263  19.793  0.00  0.00    +0.000 F 
ATOM     22  C   UNL     1       3.201  14.132  18.321  0.00  0.00    +0.000 A 
ATOM     23  C   UNL     1       2.113  13.276  18.135  0.00  0.00    +0.000 A 
ENDBRANCH   4  17
BRANCH   1  27
ATOM     24  C   UNL     1      -5.969  12.161  18.130  0.00  0.00    +0.000 A 
ATOM     25  C   UNL     1      -5.231  11.670  17.054  0.00  0.00    +0.000 A 
ATOM     26  C   UNL     1      -3.858  11.435  17.189  0.00  0.00    +0.000 A 
ATOM     27  C   UNL     1      -3.204  11.713  18.398  0.00  0.00    +0.000 A 
ATOM     28  C   UNL     1      -3.945  12.254  19.455  0.00  0.00    +0.000 A 
ATOM     29  C   UNL     1      -5.319  12.474  19.323  0.00  0.00    +0.000 A 
BRANCH  24  31
ATOM     30  C   UNL     1      -7.743  13.684  17.843  0.00  0.00    +0.000 C 
ATOM     31  O   UNL     1      -7.309  12.328  17.908  0.00  0.00    +0.000 OA
ENDBRANCH  24  31
ENDBRANCH   1  27
TORSDOF 4
ENDMDL
MODEL 2
REMARK VINA RESULT:      -8.1      0.155      1.232
REMARK  Name = 
REMARK  5 active torsions:
REMARK  status: ('A' for Active; 'I' for Inactive)
REMARK    1  A    between atoms: C_1  and  O_2
REMARK    2  A    between atoms: O_2  and  C_3
REMARK    3  A    between atoms: C_6  and  C_7
REMARK    4  A    between atoms: C_9  and  C_10
REMARK    5  A    between atoms: N_21  and  C_22
REMARK                            x       y       z     vdW  Elec       q    Type
REMARK                         _______ _______ _______ _____ _____    ______ ____
ROOT
ATOM      1  C   UNL     1      -1.720  11.388  18.527  0.00  0.00    +0.000 A 
ATOM      2  C   UNL     1      -1.050  10.159  18.426  0.00  0.00    +0.000 A 
ATOM      3  C   UNL     1       0.287  10.392  18.735  0.00  0.00    +0.000 A 
ATOM      4  N   UNL     1       0.384  11.779  18.882  0.00  0.00    +0.000 N 
ATOM      5  N   UNL     1      -0.855  12.355  18.818  0.00  0.00    +0.000 NA
ENDROOT
BRANCH   3   6
ATOM      6  C   UNL     1       1.239   9.327  19.048  0.00  0.00    +0.000 A 
ATOM      7  C   UNL     1       1.060   8.632  20.242  0.00  0.00    +0.000 A 
ATOM      8  C   UNL     1       1.789   7.478  20.472  0.00  0.00    +0.000 A 
ATOM      9  C   UNL     1       2.635   6.995  19.481  0.00  0.00    +0.000 A 
ATOM     10  C   UNL     1       3.298   5.774  19.667  0.00  0.00    +0.000 A 
ATOM     11  C   UNL     1       4.049   5.243  18.631  0.00  0.00    +0.000 A 
ATOM     12  F   UNL     1       4.615   4.039  18.779  0.00  0.00    +0.000 F 
ATOM     13  C   UNL     1       4.187   5.929  17.439  0.00  0.00    +0.000 A 
ATOM     14  C   UNL     1       3.549   7.172  17.279  0.00  0.00    +0.000 A 
ATOM     15  C   UNL     1       2.746   7.730  18.278  0.00  0.00    +0.000 A 
ATOM     16  N   UNL     1       2.069   8.892  18.069  0.00  0.00    +0.000 NA
ENDBRANCH   3   6
BRANCH   4  17
ATOM     17  C   UNL     1       1.479  12.674  19.120  0.00  0.00    +0.000 A 
ATOM     18  C   UNL     1       2.275  13.210  18.105  0.00  0.00    +0.000 A 
ATOM     19  C   UNL     1       3.310  14.103  18.425  0.00  0.00    +0.000 A 
ATOM     20  C   UNL     1       3.550  14.464  19.748  0.00  0.00    +0.000 A 
ATOM     21  F   UNL     1       4.537  15.322  20.034  0.00  0.00    +0.000 F 
ATOM     22  C   UNL     1       2.777  13.949  20.768  0.00  0.00    +0.000 A 
ATOM     23  C   UNL     1       1.746  13.060  20.459  0.00  0.00    +0.000 A 
ENDBRANCH   4  17
BRANCH   1  27
ATOM     24  C   UNL     1      -5.883  12.232  18.068  0.00  0.00    +0.000 A 
ATOM     25  C   UNL     1      -5.237  12.541  19.264  0.00  0.00    +0.000 A 
ATOM     26  C   UNL     1      -3.874  12.266  19.420  0.00  0.00    +0.000 A 
ATOM     27  C   UNL     1      -3.149  11.655  18.387  0.00  0.00    +0.000 A 
ATOM     28  C   UNL     1      -3.820  11.302  17.210  0.00  0.00    +0.000 A 
ATOM     29  C   UNL     1      -5.178  11.591  17.051  0.00  0.00    +0.000 A 
BRANCH  24  31
ATOM     30  C   UNL     1      -7.472  13.880  17.509  0.00  0.00    +0.000 C 
ATOM     31  O   UNL     1      -7.209  12.568  18.002  0.00  0.00    +0.000 OA
ENDBRANCH  24  31
ENDBRANCH   1  27
TORSDOF 4
ENDMDL
MODEL 3
REMARK VINA RESULT:      -8.1      5.255     10.139
REMARK  Name = 
REMARK  5 active torsions:
REMARK  status: ('A' for Active; 'I' for Inactive)
REMARK    1  A    between atoms: C_1  and  O_2
REMARK    2  A    between atoms: O_2  and  C_3
REMARK    3  A    between atoms: C_6  and  C_7
REMARK    4  A    between atoms: C_9  and  C_10
REMARK    5  A    between atoms: N_21  and  C_22
REMARK                            x       y       z     vdW  Elec       q    Type
REMARK                         _______ _______ _______ _____ _____    ______ ____
ROOT
ATOM      1  C   UNL     1       4.228   5.619  16.822  0.00  0.00    +0.000 A 
ATOM      2  C   UNL     1       3.611   6.856  17.060  0.00  0.00    +0.000 A 
ATOM      3  C   UNL     1       2.829   6.714  18.202  0.00  0.00    +0.000 A 
ATOM      4  N   UNL     1       2.912   5.356  18.526  0.00  0.00    +0.000 N 
ATOM      5  N   UNL     1       3.817   4.726  17.717  0.00  0.00    +0.000 NA
ENDROOT
BRANCH   3   6
ATOM      6  C   UNL     1       2.283   7.846  18.950  0.00  0.00    +0.000 A 
ATOM      7  C   UNL     1       1.887   8.967  18.226  0.00  0.00    +0.000 A 
ATOM      8  C   UNL     1       1.161   9.962  18.858  0.00  0.00    +0.000 A 
ATOM      9  C   UNL     1       0.783   9.795  20.184  0.00  0.00    +0.000 A 
ATOM     10  C   UNL     1      -0.038  10.750  20.799  0.00  0.00    +0.000 A 
ATOM     11  C   UNL     1      -0.505  10.521  22.083  0.00  0.00    +0.000 A 
ATOM     12  F   UNL     1      -1.353  11.395  22.640  0.00  0.00    +0.000 F 
ATOM     13  C   UNL     1      -0.130   9.385  22.775  0.00  0.00    +0.000 A 
ATOM     14  C   UNL     1       0.725   8.453  22.162  0.00  0.00    +0.000 A 
ATOM     15  C   UNL     1       1.189   8.618  20.854  0.00  0.00    +0.000 A 
ATOM     16  N   UNL     1       1.945   7.661  20.250  0.00  0.00    +0.000 NA
ENDBRANCH   3   6
BRANCH   4  17
ATOM     17  C   UNL     1       2.290   4.538  19.528  0.00  0.00    +0.000 A 
ATOM     18  C   UNL     1       1.130   3.794  19.307  0.00  0.00    +0.000 A 
ATOM     19  C   UNL     1       0.605   2.996  20.336  0.00  0.00    +0.000 A 
ATOM     20  C   UNL     1       1.232   2.937  21.577  0.00  0.00    +0.000 A 
ATOM     21  F   UNL     1       0.721   2.166  22.545  0.00  0.00    +0.000 F 
ATOM     22  C   UNL     1       2.380   3.664  21.819  0.00  0.00    +0.000 A 
ATOM     23  C   UNL     1       2.910   4.459  20.801  0.00  0.00    +0.000 A 
ENDBRANCH   4  17
BRANCH   1  27
ATOM     24  C   UNL     1       7.101   4.701  13.795  0.00  0.00    +0.000 A 
ATOM     25  C   UNL     1       5.798   4.213  13.692  0.00  0.00    +0.000 A 
ATOM     26  C   UNL     1       4.854   4.510  14.680  0.00  0.00    +0.000 A 
ATOM     27  C   UNL     1       5.212   5.279  15.797  0.00  0.00    +0.000 A 
ATOM     28  C   UNL     1       6.535   5.720  15.916  0.00  0.00    +0.000 A 
ATOM     29  C   UNL     1       7.473   5.434  14.920  0.00  0.00    +0.000 A 
BRANCH  24  31
ATOM     30  C   UNL     1       7.327   3.680  11.683  0.00  0.00    +0.000 C 
ATOM     31  O   UNL     1       7.941   4.382  12.762  0.00  0.00    +0.000 OA
ENDBRANCH  24  31
ENDBRANCH   1  27
TORSDOF 4
ENDMDL
MODEL 4
REMARK VINA RESULT:      -8.0      4.119      8.177
REMARK  Name = 
REMARK  5 active torsions:
REMARK  status: ('A' for Active; 'I' for Inactive)
REMARK    1  A    between atoms: C_1  and  O_2
REMARK    2  A    between atoms: O_2  and  C_3
REMARK    3  A    between atoms: C_6  and  C_7
REMARK    4  A    between atoms: C_9  and  C_10
REMARK    5  A    between atoms: N_21  and  C_22
REMARK                            x       y       z     vdW  Elec       q    Type
REMARK                         _______ _______ _______ _____ _____    ______ ____
ROOT
ATOM      1  C   UNL     1       0.765  10.358  19.662  0.00  0.00    +0.000 A 
ATOM      2  C   UNL     1      -0.320  10.517  20.538  0.00  0.00    +0.000 A 
ATOM      3  C   UNL     1      -0.691  11.857  20.494  0.00  0.00    +0.000 A 
ATOM      4  N   UNL     1       0.273  12.470  19.688  0.00  0.00    +0.000 N 
ATOM      5  N   UNL     1       1.106  11.532  19.141  0.00  0.00    +0.000 NA
ENDROOT
BRANCH   3   6
ATOM      6  C   UNL     1      -1.962  12.359  21.015  0.00  0.00    +0.000 A 
ATOM      7  C   UNL     1      -2.993  12.575  20.102  0.00  0.00    +0.000 A 
ATOM      8  C   UNL     1      -4.271  12.828  20.570  0.00  0.00    +0.000 A 
ATOM      9  C   UNL     1      -4.518  12.795  21.937  0.00  0.00    +0.000 A 
ATOM     10  C   UNL     1      -5.828  12.949  22.411  0.00  0.00    +0.000 A 
ATOM     11  C   UNL     1      -6.085  12.801  23.764  0.00  0.00    +0.000 A 
ATOM     12  F   UNL     1      -7.347  12.868  24.206  0.00  0.00    +0.000 F 
ATOM     13  C   UNL     1      -5.054  12.551  24.651  0.00  0.00    +0.000 A 
ATOM     14  C   UNL     1      -3.739  12.437  24.169  0.00  0.00    +0.000 A 
ATOM     15  C   UNL     1      -3.435  12.537  22.808  0.00  0.00    +0.000 A 
ATOM     16  N   UNL     1      -2.167  12.337  22.354  0.00  0.00    +0.000 NA
ENDBRANCH   3   6
BRANCH   4  17
ATOM     17  C   UNL     1       0.524  13.829  19.304  0.00  0.00    +0.000 A 
ATOM     18  C   UNL     1      -0.479  14.791  19.163  0.00  0.00    +0.000 A 
ATOM     19  C   UNL     1      -0.143  16.107  18.811  0.00  0.00    +0.000 A 
ATOM     20  C   UNL     1       1.186  16.466  18.602  0.00  0.00    +0.000 A 
ATOM     21  F   UNL     1       1.490  17.728  18.273  0.00  0.00    +0.000 F 
ATOM     22  C   UNL     1       2.195  15.535  18.736  0.00  0.00    +0.000 A 
ATOM     23  C   UNL     1       1.869  14.223  19.086  0.00  0.00    +0.000 A 
ENDBRANCH   4  17
BRANCH   1  27
ATOM     24  C   UNL     1       2.848   6.776  18.615  0.00  0.00    +0.000 A 
ATOM     25  C   UNL     1       2.668   7.782  17.666  0.00  0.00    +0.000 A 
ATOM     26  C   UNL     1       1.987   8.956  18.003  0.00  0.00    +0.000 A 
ATOM     27  C   UNL     1       1.454   9.125  19.289  0.00  0.00    +0.000 A 
ATOM     28  C   UNL     1       1.596   8.088  20.218  0.00  0.00    +0.000 A 
ATOM     29  C   UNL     1       2.290   6.922  19.884  0.00  0.00    +0.000 A 
BRANCH  24  31
ATOM     30  C   UNL     1       4.071   4.864  19.245  0.00  0.00    +0.000 C 
ATOM     31  O   UNL     1       3.555   5.681  18.197  0.00  0.00    +0.000 OA
ENDBRANCH  24  31
ENDBRANCH   1  27
TORSDOF 4
ENDMDL
MODEL 5
REMARK VINA RESULT:      -8.0      3.650      8.099
REMARK  Name = 
REMARK  5 active torsions:
REMARK  status: ('A' for Active; 'I' for Inactive)
REMARK    1  A    between atoms: C_1  and  O_2
REMARK    2  A    between atoms: O_2  and  C_3
REMARK    3  A    between atoms: C_6  and  C_7
REMARK    4  A    between atoms: C_9  and  C_10
REMARK    5  A    between atoms: N_21  and  C_22
REMARK                            x       y       z     vdW  Elec       q    Type
REMARK                         _______ _______ _______ _____ _____    ______ ____
ROOT
ATOM      1  C   UNL     1       1.386   9.357  18.603  0.00  0.00    +0.000 A 
ATOM      2  C   UNL     1      -0.014   9.440  18.635  0.00  0.00    +0.000 A 
ATOM      3  C   UNL     1      -0.350  10.786  18.531  0.00  0.00    +0.000 A 
ATOM      4  N   UNL     1       0.873  11.464  18.572  0.00  0.00    +0.000 N 
ATOM      5  N   UNL     1       1.913  10.576  18.548  0.00  0.00    +0.000 NA
ENDROOT
BRANCH   3   6
ATOM      6  C   UNL     1      -1.696  11.258  18.212  0.00  0.00    +0.000 A 
ATOM      7  C   UNL     1      -2.263  10.830  17.014  0.00  0.00    +0.000 A 
ATOM      8  C   UNL     1      -3.608  11.062  16.778  0.00  0.00    +0.000 A 
ATOM      9  C   UNL     1      -4.382  11.657  17.767  0.00  0.00    +0.000 A 
ATOM     10  C   UNL     1      -5.764  11.802  17.575  0.00  0.00    +0.000 A 
ATOM     11  C   UNL     1      -6.547  12.290  18.607  0.00  0.00    +0.000 A 
ATOM     12  F   UNL     1      -7.875  12.353  18.453  0.00  0.00    +0.000 F 
ATOM     13  C   UNL     1      -5.971  12.678  19.803  0.00  0.00    +0.000 A 
ATOM     14  C   UNL     1      -4.580  12.564  19.970  0.00  0.00    +0.000 A 
ATOM     15  C   UNL     1      -3.752  12.038  18.974  0.00  0.00    +0.000 A 
ATOM     16  N   UNL     1      -2.421  11.857  19.189  0.00  0.00    +0.000 NA
ENDBRANCH   3   6
BRANCH   4  17
ATOM     17  C   UNL     1       1.234  12.852  18.589  0.00  0.00    +0.000 A 
ATOM     18  C   UNL     1       0.428  13.855  19.132  0.00  0.00    +0.000 A 
ATOM     19  C   UNL     1       0.873  15.186  19.134  0.00  0.00    +0.000 A 
ATOM     20  C   UNL     1       2.115  15.518  18.599  0.00  0.00    +0.000 A 
ATOM     21  F   UNL     1       2.526  16.793  18.614  0.00  0.00    +0.000 F 
ATOM     22  C   UNL     1       2.930  14.546  18.057  0.00  0.00    +0.000 A 
ATOM     23  C   UNL     1       2.495  13.219  18.052  0.00  0.00    +0.000 A 
ENDBRANCH   4  17
BRANCH   1  27
ATOM     24  C   UNL     1       3.881   5.887  18.627  0.00  0.00    +0.000 A 
ATOM     25  C   UNL     1       3.957   6.794  17.571  0.00  0.00    +0.000 A 
ATOM     26  C   UNL     1       3.143   7.932  17.558  0.00  0.00    +0.000 A 
ATOM     27  C   UNL     1       2.223   8.160  18.591  0.00  0.00    +0.000 A 
ATOM     28  C   UNL     1       2.119   7.216  19.620  0.00  0.00    +0.000 A 
ATOM     29  C   UNL     1       2.944   6.089  19.639  0.00  0.00    +0.000 A 
BRANCH  24  31
ATOM     30  C   UNL     1       4.179   3.574  18.958  0.00  0.00    +0.000 C 
ATOM     31  O   UNL     1       4.741   4.824  18.565  0.00  0.00    +0.000 OA
ENDBRANCH  24  31
ENDBRANCH   1  27
TORSDOF 4
ENDMDL
MODEL 6
REMARK VINA RESULT:      -7.9      5.345     10.292
REMARK  Name = 
REMARK  5 active torsions:
REMARK  status: ('A' for Active; 'I' for Inactive)
REMARK    1  A    between atoms: C_1  and  O_2
REMARK    2  A    between atoms: O_2  and  C_3
REMARK    3  A    between atoms: C_6  and  C_7
REMARK    4  A    between atoms: C_9  and  C_10
REMARK    5  A    between atoms: N_21  and  C_22
REMARK                            x       y       z     vdW  Elec       q    Type
REMARK                         _______ _______ _______ _____ _____    ______ ____
ROOT
ATOM      1  C   UNL     1       4.392   5.254  16.458  0.00  0.00    +0.000 A 
ATOM      2  C   UNL     1       3.765   6.487  16.690  0.00  0.00    +0.000 A 
ATOM      3  C   UNL     1       3.080   6.381  17.896  0.00  0.00    +0.000 A 
ATOM      4  N   UNL     1       3.221   5.041  18.272  0.00  0.00    +0.000 N 
ATOM      5  N   UNL     1       4.075   4.394  17.422  0.00  0.00    +0.000 NA
ENDROOT
BRANCH   3   6
ATOM      6  C   UNL     1       2.567   7.534  18.635  0.00  0.00    +0.000 A 
ATOM      7  C   UNL     1       2.245   8.676  17.906  0.00  0.00    +0.000 A 
ATOM      8  C   UNL     1       1.549   9.702  18.523  0.00  0.00    +0.000 A 
ATOM      9  C   UNL     1       1.125   9.546  19.837  0.00  0.00    +0.000 A 
ATOM     10  C   UNL     1       0.333  10.537  20.434  0.00  0.00    +0.000 A 
ATOM     11  C   UNL     1      -0.182  10.324  21.702  0.00  0.00    +0.000 A 
ATOM     12  F   UNL     1      -1.003  11.234  22.240  0.00  0.00    +0.000 F 
ATOM     13  C   UNL     1       0.119   9.168  22.398  0.00  0.00    +0.000 A 
ATOM     14  C   UNL     1       0.946   8.199  21.805  0.00  0.00    +0.000 A 
ATOM     15  C   UNL     1       1.455   8.348  20.511  0.00  0.00    +0.000 A 
ATOM     16  N   UNL     1       2.183   7.359  19.923  0.00  0.00    +0.000 NA
ENDBRANCH   3   6
BRANCH   4  17
ATOM     17  C   UNL     1       2.701   4.257  19.355  0.00  0.00    +0.000 A 
ATOM     18  C   UNL     1       3.502   3.654  20.327  0.00  0.00    +0.000 A 
ATOM     19  C   UNL     1       2.909   2.927  21.370  0.00  0.00    +0.000 A 
ATOM     20  C   UNL     1       1.524   2.801  21.447  0.00  0.00    +0.000 A 
ATOM     21  F   UNL     1       0.974   2.109  22.453  0.00  0.00    +0.000 F 
ATOM     22  C   UNL     1       0.711   3.388  20.499  0.00  0.00    +0.000 A 
ATOM     23  C   UNL     1       1.294   4.114  19.458  0.00  0.00    +0.000 A 
ENDBRANCH   4  17
BRANCH   1  27
ATOM     24  C   UNL     1       7.039   4.259  13.254  0.00  0.00    +0.000 A 
ATOM     25  C   UNL     1       5.745   3.739  13.277  0.00  0.00    +0.000 A 
ATOM     26  C   UNL     1       4.875   4.061  14.324  0.00  0.00    +0.000 A 
ATOM     27  C   UNL     1       5.300   4.888  15.374  0.00  0.00    +0.000 A 
ATOM     28  C   UNL     1       6.617   5.362  15.367  0.00  0.00    +0.000 A 
ATOM     29  C   UNL     1       7.480   5.052  14.312  0.00  0.00    +0.000 A 
BRANCH  24  31
ATOM     30  C   UNL     1       7.313   2.802  11.424  0.00  0.00    +0.000 C 
ATOM     31  O   UNL     1       7.803   3.911  12.173  0.00  0.00    +0.000 OA
ENDBRANCH  24  31
ENDBRANCH   1  27
TORSDOF 4
ENDMDL
MODEL 7
REMARK VINA RESULT:      -7.8      4.132      8.225
REMARK  Name = 
REMARK  5 active torsions:
REMARK  status: ('A' for Active; 'I' for Inactive)
REMARK    1  A    between atoms: C_1  and  O_2
REMARK    2  A    between atoms: O_2  and  C_3
REMARK    3  A    between atoms: C_6  and  C_7
REMARK    4  A    between atoms: C_9  and  C_10
REMARK    5  A    between atoms: N_21  and  C_22
REMARK                            x       y       z     vdW  Elec       q    Type
REMARK                         _______ _______ _______ _____ _____    ______ ____
ROOT
ATOM      1  C   UNL     1       0.743  10.256  19.985  0.00  0.00    +0.000 A 
ATOM      2  C   UNL     1      -0.388  10.435  20.796  0.00  0.00    +0.000 A 
ATOM      3  C   UNL     1      -0.703  11.790  20.771  0.00  0.00    +0.000 A 
ATOM      4  N   UNL     1       0.334  12.386  20.046  0.00  0.00    +0.000 N 
ATOM      5  N   UNL     1       1.162  11.431  19.523  0.00  0.00    +0.000 NA
ENDROOT
BRANCH   3   6
ATOM      6  C   UNL     1      -1.984  12.328  21.227  0.00  0.00    +0.000 A 
ATOM      7  C   UNL     1      -2.943  12.617  20.260  0.00  0.00    +0.000 A 
ATOM      8  C   UNL     1      -4.238  12.910  20.653  0.00  0.00    +0.000 A 
ATOM      9  C   UNL     1      -4.574  12.843  22.000  0.00  0.00    +0.000 A 
ATOM     10  C   UNL     1      -5.905  13.038  22.395  0.00  0.00    +0.000 A 
ATOM     11  C   UNL     1      -6.254  12.858  23.723  0.00  0.00    +0.000 A 
ATOM     12  F   UNL     1      -7.538  12.965  24.086  0.00  0.00    +0.000 F 
ATOM     13  C   UNL     1      -5.294  12.536  24.665  0.00  0.00    +0.000 A 
ATOM     14  C   UNL     1      -3.956  12.382  24.263  0.00  0.00    +0.000 A 
ATOM     15  C   UNL     1      -3.561  12.511  22.929  0.00  0.00    +0.000 A 
ATOM     16  N   UNL     1      -2.276  12.273  22.549  0.00  0.00    +0.000 NA
ENDBRANCH   3   6
BRANCH   4  17
ATOM     17  C   UNL     1       0.662  13.744  19.721  0.00  0.00    +0.000 A 
ATOM     18  C   UNL     1       1.855  14.363  20.098  0.00  0.00    +0.000 A 
ATOM     19  C   UNL     1       2.108  15.689  19.712  0.00  0.00    +0.000 A 
ATOM     20  C   UNL     1       1.178  16.395  18.953  0.00  0.00    +0.000 A 
ATOM     21  F   UNL     1       1.438  17.657  18.588  0.00  0.00    +0.000 F 
ATOM     22  C   UNL     1      -0.008  15.805  18.568  0.00  0.00    +0.000 A 
ATOM     23  C   UNL     1      -0.267  14.486  18.947  0.00  0.00    +0.000 A 
ENDBRANCH   4  17
BRANCH   1  27
ATOM     24  C   UNL     1       2.616   6.581  18.868  0.00  0.00    +0.000 A 
ATOM     25  C   UNL     1       2.156   6.762  20.172  0.00  0.00    +0.000 A 
ATOM     26  C   UNL     1       1.543   7.963  20.543  0.00  0.00    +0.000 A 
ATOM     27  C   UNL     1       1.406   9.008  19.618  0.00  0.00    +0.000 A 
ATOM     28  C   UNL     1       1.917   8.834  18.326  0.00  0.00    +0.000 A 
ATOM     29  C   UNL     1       2.516   7.628  17.953  0.00  0.00    +0.000 A 
BRANCH  24  31
ATOM     30  C   UNL     1       3.843   5.274  17.339  0.00  0.00    +0.000 C 
ATOM     31  O   UNL     1       3.172   5.361  18.594  0.00  0.00    +0.000 OA
ENDBRANCH  24  31
ENDBRANCH   1  27
TORSDOF 4
ENDMDL
MODEL 8
REMARK VINA RESULT:      -7.8      4.453      8.878
REMARK  Name = 
REMARK  5 active torsions:
REMARK  status: ('A' for Active; 'I' for Inactive)
REMARK    1  A    between atoms: C_1  and  O_2
REMARK    2  A    between atoms: O_2  and  C_3
REMARK    3  A    between atoms: C_6  and  C_7
REMARK    4  A    between atoms: C_9  and  C_10
REMARK    5  A    between atoms: N_21  and  C_22
REMARK                            x       y       z     vdW  Elec       q    Type
REMARK                         _______ _______ _______ _____ _____    ______ ____
ROOT
ATOM      1  C   UNL     1       1.116   9.220  19.307  0.00  0.00    +0.000 A 
ATOM      2  C   UNL     1       1.226  10.187  20.317  0.00  0.00    +0.000 A 
ATOM      3  C   UNL     1       0.046  10.924  20.313  0.00  0.00    +0.000 A 
ATOM      4  N   UNL     1      -0.669  10.448  19.210  0.00  0.00    +0.000 N 
ATOM      5  N   UNL     1      -0.034   9.371  18.655  0.00  0.00    +0.000 NA
ENDROOT
BRANCH   3   6
ATOM      6  C   UNL     1      -0.356  11.807  21.407  0.00  0.00    +0.000 A 
ATOM      7  C   UNL     1       0.229  13.069  21.465  0.00  0.00    +0.000 A 
ATOM      8  C   UNL     1      -0.282  14.015  22.338  0.00  0.00    +0.000 A 
ATOM      9  C   UNL     1      -1.410  13.711  23.091  0.00  0.00    +0.000 A 
ATOM     10  C   UNL     1      -1.992  14.697  23.900  0.00  0.00    +0.000 A 
ATOM     11  C   UNL     1      -3.179  14.423  24.558  0.00  0.00    +0.000 A 
ATOM     12  F   UNL     1      -3.777  15.390  25.266  0.00  0.00    +0.000 F 
ATOM     13  C   UNL     1      -3.766  13.175  24.461  0.00  0.00    +0.000 A 
ATOM     14  C   UNL     1      -3.152  12.182  23.678  0.00  0.00    +0.000 A 
ATOM     15  C   UNL     1      -1.976  12.422  22.961  0.00  0.00    +0.000 A 
ATOM     16  N   UNL     1      -1.446  11.474  22.140  0.00  0.00    +0.000 NA
ENDBRANCH   3   6
BRANCH   4  17
ATOM     17  C   UNL     1      -1.911  10.825  18.598  0.00  0.00    +0.000 A 
ATOM     18  C   UNL     1      -2.756  11.813  19.107  0.00  0.00    +0.000 A 
ATOM     19  C   UNL     1      -3.939  12.141  18.428  0.00  0.00    +0.000 A 
ATOM     20  C   UNL     1      -4.281  11.489  17.246  0.00  0.00    +0.000 A 
ATOM     21  F   UNL     1      -5.411  11.818  16.608  0.00  0.00    +0.000 F 
ATOM     22  C   UNL     1      -3.462  10.510  16.722  0.00  0.00    +0.000 A 
ATOM     23  C   UNL     1      -2.282  10.179  17.391  0.00  0.00    +0.000 A 
ENDBRANCH   4  17
BRANCH   1  27
ATOM     24  C   UNL     1       3.903   6.115  18.382  0.00  0.00    +0.000 A 
ATOM     25  C   UNL     1       3.732   7.184  17.503  0.00  0.00    +0.000 A 
ATOM     26  C   UNL     1       2.820   8.203  17.800  0.00  0.00    +0.000 A 
ATOM     27  C   UNL     1       2.051   8.149  18.971  0.00  0.00    +0.000 A 
ATOM     28  C   UNL     1       2.194   7.046  19.821  0.00  0.00    +0.000 A 
ATOM     29  C   UNL     1       3.115   6.036  19.529  0.00  0.00    +0.000 A 
BRANCH  24  31
ATOM     30  C   UNL     1       5.021   4.120  18.946  0.00  0.00    +0.000 C 
ATOM     31  O   UNL     1       4.840   5.186  18.017  0.00  0.00    +0.000 OA
ENDBRANCH  24  31
ENDBRANCH   1  27
TORSDOF 4
ENDMDL
MODEL 9
REMARK VINA RESULT:      -7.8      3.638      8.147
REMARK  Name = 
REMARK  5 active torsions:
REMARK  status: ('A' for Active; 'I' for Inactive)
REMARK    1  A    between atoms: C_1  and  O_2
REMARK    2  A    between atoms: O_2  and  C_3
REMARK    3  A    between atoms: C_6  and  C_7
REMARK    4  A    between atoms: C_9  and  C_10
REMARK    5  A    between atoms: N_21  and  C_22
REMARK                            x       y       z     vdW  Elec       q    Type
REMARK                         _______ _______ _______ _____ _____    ______ ____
ROOT
ATOM      1  C   UNL     1       1.871   8.656  18.108  0.00  0.00    +0.000 A 
ATOM      2  C   UNL     1       0.470   8.740  18.097  0.00  0.00    +0.000 A 
ATOM      3  C   UNL     1       0.136  10.076  18.289  0.00  0.00    +0.000 A 
ATOM      4  N   UNL     1       1.353  10.718  18.537  0.00  0.00    +0.000 N 
ATOM      5  N   UNL     1       2.396   9.852  18.356  0.00  0.00    +0.000 NA
ENDROOT
BRANCH   3   6
ATOM      6  C   UNL     1      -1.197  10.619  18.029  0.00  0.00    +0.000 A 
ATOM      7  C   UNL     1      -1.939  10.041  17.002  0.00  0.00    +0.000 A 
ATOM      8  C   UNL     1      -3.279  10.363  16.868  0.00  0.00    +0.000 A 
ATOM      9  C   UNL     1      -3.876  11.204  17.800  0.00  0.00    +0.000 A 
ATOM     10  C   UNL     1      -5.254  11.453  17.729  0.00  0.00    +0.000 A 
ATOM     11  C   UNL     1      -5.863  12.197  18.725  0.00  0.00    +0.000 A 
ATOM     12  F   UNL     1      -7.190  12.368  18.702  0.00  0.00    +0.000 F 
ATOM     13  C   UNL     1      -5.116  12.735  19.758  0.00  0.00    +0.000 A 
ATOM     14  C   UNL     1      -3.728  12.511  19.796  0.00  0.00    +0.000 A 
ATOM     15  C   UNL     1      -3.074  11.731  18.838  0.00  0.00    +0.000 A 
ATOM     16  N   UNL     1      -1.745  11.456  18.943  0.00  0.00    +0.000 NA
ENDBRANCH   3   6
BRANCH   4  17
ATOM     17  C   UNL     1       1.710  12.063  18.886  0.00  0.00    +0.000 A 
ATOM     18  C   UNL     1       1.352  12.670  20.092  0.00  0.00    +0.000 A 
ATOM     19  C   UNL     1       1.768  13.982  20.366  0.00  0.00    +0.000 A 
ATOM     20  C   UNL     1       2.540  14.687  19.446  0.00  0.00    +0.000 A 
ATOM     21  F   UNL     1       2.933  15.935  19.727  0.00  0.00    +0.000 F 
ATOM     22  C   UNL     1       2.907  14.109  18.248  0.00  0.00    +0.000 A 
ATOM     23  C   UNL     1       2.497  12.804  17.968  0.00  0.00    +0.000 A 
ENDBRANCH   4  17
BRANCH   1  27
ATOM     24  C   UNL     1       4.310   5.241  17.300  0.00  0.00    +0.000 A 
ATOM     25  C   UNL     1       3.076   5.084  17.930  0.00  0.00    +0.000 A 
ATOM     26  C   UNL     1       2.273   6.199  18.197  0.00  0.00    +0.000 A 
ATOM     27  C   UNL     1       2.711   7.487  17.859  0.00  0.00    +0.000 A 
ATOM     28  C   UNL     1       3.973   7.638  17.273  0.00  0.00    +0.000 A 
ATOM     29  C   UNL     1       4.767   6.522  16.994  0.00  0.00    +0.000 A 
BRANCH  24  31
ATOM     30  C   UNL     1       5.687   4.053  15.802  0.00  0.00    +0.000 C 
ATOM     31  O   UNL     1       5.005   4.088  17.054  0.00  0.00    +0.000 OA
ENDBRANCH  24  31
ENDBRANCH   1  27
TORSDOF 4
ENDMDL
