MODEL 1
REMARK VINA RESULT:      -7.7      0.000      0.000
REMARK  Name = 
REMARK  7 active torsions:
REMARK  status: ('A' for Active; 'I' for Inactive)
REMARK    1  A    between atoms: C_2  and  C_3
REMARK    2  A    between atoms: N_11  and  C_12
REMARK    3  A    between atoms: C_12  and  C_13
REMARK    4  A    between atoms: C_13  and  C_14
REMARK    5  A    between atoms: C_17  and  N_18
REMARK    6  A    between atoms: C_19  and  C_21
REMARK    7  A    between atoms: C_22  and  C_23
REMARK                            x       y       z     vdW  Elec       q    Type
REMARK                         _______ _______ _______ _____ _____    ______ ____
ROOT
ATOM      1  C   UNL     1       2.518   5.802  19.814  0.00  0.00    +0.000 C 
ATOM      2  C   UNL     1       2.354   6.465  18.437  0.00  0.00    +0.000 C 
ATOM      3  C   UNL     1       2.325   7.989  18.523  0.00  0.00    +0.000 C 
ATOM      4  C   UNL     1       1.244   8.464  19.494  0.00  0.00    +0.000 C 
ATOM      5  C   UNL     1       1.479   7.863  20.881  0.00  0.00    +0.000 C 
ATOM      6  C   UNL     1       1.475   6.338  20.813  0.00  0.00    +0.000 C 
ENDROOT
BRANCH   4   7
ATOM      7  N   UNL     1       1.205   9.913  19.552  0.00  0.00    +0.000 N 
ATOM      8  C   UNL     1       0.009  10.586  19.631  0.00  0.00    +0.000 C 
ATOM      9  O   UNL     1      -1.092  10.051  19.617  0.00  0.00    +0.000 OA
ATOM     10  H   UNL     1       2.074  10.414  19.683  0.00  0.00    +0.000 HD
BRANCH   8  11
ATOM     11  C   UNL     1       0.186  12.053  19.724  0.00  0.00    +0.000 C 
ATOM     12  C   UNL     1       0.677  12.739  18.682  0.00  0.00    +0.000 C 
BRANCH  12  13
ATOM     13  C   UNL     1       0.887  14.192  18.694  0.00  0.00    +0.000 A 
ATOM     14  C   UNL     1      -0.177  15.098  18.841  0.00  0.00    +0.000 A 
ATOM     15  C   UNL     1       0.056  16.474  18.837  0.00  0.00    +0.000 A 
ATOM     16  C   UNL     1       1.355  16.949  18.707  0.00  0.00    +0.000 A 
ATOM     17  F   UNL     1       1.576  18.269  18.694  0.00  0.00    +0.000 F 
ATOM     18  C   UNL     1       2.426  16.071  18.598  0.00  0.00    +0.000 A 
ATOM     19  C   UNL     1       2.194  14.694  18.597  0.00  0.00    +0.000 A 
ENDBRANCH  12  13
ENDBRANCH   8  11
ENDBRANCH   4   7
BRANCH   1  20
ATOM     20  C   UNL     1       2.417   4.262  19.735  0.00  0.00    +0.000 C 
BRANCH  20  21
ATOM     21  C   UNL     1       3.748   3.559  20.047  0.00  0.00    +0.000 C 
BRANCH  21  30
ATOM     22  C   UNL     1       6.916   4.993  14.520  0.00  0.00    +0.000 A 
ATOM     23  C   UNL     1       5.716   4.333  14.224  0.00  0.00    +0.000 A 
ATOM     24  C   UNL     1       4.858   3.932  15.255  0.00  0.00    +0.000 A 
ATOM     25  C   UNL     1       5.185   4.184  16.595  0.00  0.00    +0.000 A 
ATOM     26  C   UNL     1       6.372   4.878  16.890  0.00  0.00    +0.000 A 
ATOM     27  C   UNL     1       7.240   5.262  15.856  0.00  0.00    +0.000 A 
ATOM     28  C   UNL     1       6.734   5.159  18.325  0.00  0.00    +0.000 C 
ATOM     29  C   UNL     1       5.524   5.068  19.264  0.00  0.00    +0.000 C 
ATOM     30  N   UNL     1       4.814   3.797  19.059  0.00  0.00    +0.000 NA
ATOM     31  C   UNL     1       4.226   3.778  17.701  0.00  0.00    +0.000 C 
BRANCH  22  33
ATOM     32  N   UNL     1       8.534   5.723  12.616  0.00  0.00    +0.000 NA
ATOM     33  C   UNL     1       7.807   5.397  13.464  0.00  0.00    +0.000 C 
ENDBRANCH  22  33
ENDBRANCH  21  30
ENDBRANCH  20  21
ENDBRANCH   1  20
TORSDOF 7
ENDMDL
MODEL 2
REMARK VINA RESULT:      -7.5      3.220      4.382
REMARK  Name = 
REMARK  7 active torsions:
REMARK  status: ('A' for Active; 'I' for Inactive)
REMARK    1  A    between atoms: C_2  and  C_3
REMARK    2  A    between atoms: N_11  and  C_12
REMARK    3  A    between atoms: C_12  and  C_13
REMARK    4  A    between atoms: C_13  and  C_14
REMARK    5  A    between atoms: C_17  and  N_18
REMARK    6  A    between atoms: C_19  and  C_21
REMARK    7  A    between atoms: C_22  and  C_23
REMARK                            x       y       z     vdW  Elec       q    Type
REMARK                         _______ _______ _______ _____ _____    ______ ____
ROOT
ATOM      1  C   UNL     1       2.605   2.973  19.088  0.00  0.00    +0.000 C 
ATOM      2  C   UNL     1       3.210   3.397  20.437  0.00  0.00    +0.000 C 
ATOM      3  C   UNL     1       2.417   4.519  21.104  0.00  0.00    +0.000 C 
ATOM      4  C   UNL     1       2.265   5.717  20.168  0.00  0.00    +0.000 C 
ATOM      5  C   UNL     1       1.579   5.290  18.869  0.00  0.00    +0.000 C 
ATOM      6  C   UNL     1       2.382   4.192  18.175  0.00  0.00    +0.000 C 
ENDROOT
BRANCH   4   7
ATOM      7  N   UNL     1       1.532   6.788  20.818  0.00  0.00    +0.000 N 
ATOM      8  C   UNL     1       1.527   8.060  20.295  0.00  0.00    +0.000 C 
ATOM      9  O   UNL     1       2.148   8.404  19.298  0.00  0.00    +0.000 OA
ATOM     10  H   UNL     1       0.906   6.553  21.575  0.00  0.00    +0.000 HD
BRANCH   8  11
ATOM     11  C   UNL     1       0.688   8.994  21.079  0.00  0.00    +0.000 C 
ATOM     12  C   UNL     1       0.116  10.049  20.481  0.00  0.00    +0.000 C 
BRANCH  12  13
ATOM     13  C   UNL     1      -0.726  11.023  21.187  0.00  0.00    +0.000 A 
ATOM     14  C   UNL     1      -1.375  12.073  20.516  0.00  0.00    +0.000 A 
ATOM     15  C   UNL     1      -2.158  12.989  21.219  0.00  0.00    +0.000 A 
ATOM     16  C   UNL     1      -2.312  12.847  22.592  0.00  0.00    +0.000 A 
ATOM     17  F   UNL     1      -3.056  13.733  23.267  0.00  0.00    +0.000 F 
ATOM     18  C   UNL     1      -1.709  11.796  23.271  0.00  0.00    +0.000 A 
ATOM     19  C   UNL     1      -0.921  10.881  22.569  0.00  0.00    +0.000 A 
ENDBRANCH  12  13
ENDBRANCH   8  11
ENDBRANCH   4   7
BRANCH   1  20
ATOM     20  C   UNL     1       3.483   1.932  18.359  0.00  0.00    +0.000 C 
BRANCH  20  21
ATOM     21  C   UNL     1       4.148   2.493  17.093  0.00  0.00    +0.000 C 
BRANCH  21  30
ATOM     22  C   UNL     1       7.818   7.806  18.063  0.00  0.00    +0.000 A 
ATOM     23  C   UNL     1       8.189   6.800  18.964  0.00  0.00    +0.000 A 
ATOM     24  C   UNL     1       7.545   5.558  18.940  0.00  0.00    +0.000 A 
ATOM     25  C   UNL     1       6.520   5.302  18.016  0.00  0.00    +0.000 A 
ATOM     26  C   UNL     1       6.172   6.301  17.089  0.00  0.00    +0.000 A 
ATOM     27  C   UNL     1       6.806   7.552  17.128  0.00  0.00    +0.000 A 
ATOM     28  C   UNL     1       5.076   6.039  16.089  0.00  0.00    +0.000 C 
ATOM     29  C   UNL     1       4.800   4.542  15.900  0.00  0.00    +0.000 C 
ATOM     30  N   UNL     1       4.594   3.893  17.202  0.00  0.00    +0.000 NA
ATOM     31  C   UNL     1       5.856   3.937  17.976  0.00  0.00    +0.000 C 
BRANCH  22  33
ATOM     32  N   UNL     1       8.991  10.130  18.116  0.00  0.00    +0.000 NA
ATOM     33  C   UNL     1       8.470   9.090  18.091  0.00  0.00    +0.000 C 
ENDBRANCH  22  33
ENDBRANCH  21  30
ENDBRANCH  20  21
ENDBRANCH   1  20
TORSDOF 7
ENDMDL
MODEL 3
REMARK VINA RESULT:      -7.4      4.567      7.642
REMARK  Name = 
REMARK  7 active torsions:
REMARK  status: ('A' for Active; 'I' for Inactive)
REMARK    1  A    between atoms: C_2  and  C_3
REMARK    2  A    between atoms: N_11  and  C_12
REMARK    3  A    between atoms: C_12  and  C_13
REMARK    4  A    between atoms: C_13  and  C_14
REMARK    5  A    between atoms: C_17  and  N_18
REMARK    6  A    between atoms: C_19  and  C_21
REMARK    7  A    between atoms: C_22  and  C_23
REMARK                            x       y       z     vdW  Elec       q    Type
REMARK                         _______ _______ _______ _____ _____    ______ ____
ROOT
ATOM      1  C   UNL     1       5.269   3.921  17.143  0.00  0.00    +0.000 C 
ATOM      2  C   UNL     1       4.973   4.889  15.986  0.00  0.00    +0.000 C 
ATOM      3  C   UNL     1       5.944   6.067  15.949  0.00  0.00    +0.000 C 
ATOM      4  C   UNL     1       5.969   6.802  17.288  0.00  0.00    +0.000 C 
ATOM      5  C   UNL     1       6.354   5.840  18.413  0.00  0.00    +0.000 C 
ATOM      6  C   UNL     1       5.369   4.675  18.483  0.00  0.00    +0.000 C 
ENDROOT
BRANCH   4   7
ATOM      7  N   UNL     1       6.875   7.935  17.237  0.00  0.00    +0.000 N 
ATOM      8  C   UNL     1       8.031   7.950  17.980  0.00  0.00    +0.000 C 
ATOM      9  O   UNL     1       8.371   7.065  18.755  0.00  0.00    +0.000 OA
ATOM     10  H   UNL     1       6.719   8.646  16.535  0.00  0.00    +0.000 HD
BRANCH   8  11
ATOM     11  C   UNL     1       8.837   9.171  17.755  0.00  0.00    +0.000 C 
ATOM     12  C   UNL     1       8.417  10.352  18.234  0.00  0.00    +0.000 C 
BRANCH  12  13
ATOM     13  C   UNL     1       9.154  11.609  18.052  0.00  0.00    +0.000 A 
ATOM     14  C   UNL     1      10.543  11.636  17.846  0.00  0.00    +0.000 A 
ATOM     15  C   UNL     1      11.214  12.849  17.687  0.00  0.00    +0.000 A 
ATOM     16  C   UNL     1      10.496  14.038  17.714  0.00  0.00    +0.000 A 
ATOM     17  F   UNL     1      11.143  15.201  17.572  0.00  0.00    +0.000 F 
ATOM     18  C   UNL     1       9.117  14.033  17.880  0.00  0.00    +0.000 A 
ATOM     19  C   UNL     1       8.445  12.820  18.043  0.00  0.00    +0.000 A 
ENDBRANCH  12  13
ENDBRANCH   8  11
ENDBRANCH   4   7
BRANCH   1  20
ATOM     20  C   UNL     1       4.208   2.805  17.254  0.00  0.00    +0.000 C 
BRANCH  20  21
ATOM     21  C   UNL     1       2.779   3.352  17.408  0.00  0.00    +0.000 C 
BRANCH  21  30
ATOM     22  C   UNL     1       1.219   8.641  20.906  0.00  0.00    +0.000 A 
ATOM     23  C   UNL     1       1.630   9.022  19.622  0.00  0.00    +0.000 A 
ATOM     24  C   UNL     1       2.007   8.054  18.685  0.00  0.00    +0.000 A 
ATOM     25  C   UNL     1       1.980   6.692  19.015  0.00  0.00    +0.000 A 
ATOM     26  C   UNL     1       1.534   6.306  20.291  0.00  0.00    +0.000 A 
ATOM     27  C   UNL     1       1.175   7.280  21.237  0.00  0.00    +0.000 A 
ATOM     28  C   UNL     1       1.495   4.846  20.658  0.00  0.00    +0.000 C 
ATOM     29  C   UNL     1       1.500   3.931  19.426  0.00  0.00    +0.000 C 
ATOM     30  N   UNL     1       2.601   4.297  18.524  0.00  0.00    +0.000 NA
ATOM     31  C   UNL     1       2.355   5.650  17.974  0.00  0.00    +0.000 C 
BRANCH  22  33
ATOM     32  N   UNL     1       0.531  10.439  22.659  0.00  0.00    +0.000 NA
ATOM     33  C   UNL     1       0.841   9.633  21.878  0.00  0.00    +0.000 C 
ENDBRANCH  22  33
ENDBRANCH  21  30
ENDBRANCH  20  21
ENDBRANCH   1  20
TORSDOF 7
ENDMDL
MODEL 4
REMARK VINA RESULT:      -7.4      3.067      4.343
REMARK  Name = 
REMARK  7 active torsions:
REMARK  status: ('A' for Active; 'I' for Inactive)
REMARK    1  A    between atoms: C_2  and  C_3
REMARK    2  A    between atoms: N_11  and  C_12
REMARK    3  A    between atoms: C_12  and  C_13
REMARK    4  A    between atoms: C_13  and  C_14
REMARK    5  A    between atoms: C_17  and  N_18
REMARK    6  A    between atoms: C_19  and  C_21
REMARK    7  A    between atoms: C_22  and  C_23
REMARK                            x       y       z     vdW  Elec       q    Type
REMARK                         _______ _______ _______ _____ _____    ______ ____
ROOT
ATOM      1  C   UNL     1       2.619   3.249  18.702  0.00  0.00    +0.000 C 
ATOM      2  C   UNL     1       3.428   3.992  19.778  0.00  0.00    +0.000 C 
ATOM      3  C   UNL     1       2.716   5.245  20.281  0.00  0.00    +0.000 C 
ATOM      4  C   UNL     1       2.357   6.175  19.124  0.00  0.00    +0.000 C 
ATOM      5  C   UNL     1       1.476   5.443  18.109  0.00  0.00    +0.000 C 
ATOM      6  C   UNL     1       2.193   4.206  17.573  0.00  0.00    +0.000 C 
ENDROOT
BRANCH   4   7
ATOM      7  N   UNL     1       1.703   7.375  19.611  0.00  0.00    +0.000 N 
ATOM      8  C   UNL     1       1.798   8.563  18.924  0.00  0.00    +0.000 C 
ATOM      9  O   UNL     1       2.452   8.723  17.902  0.00  0.00    +0.000 OA
ATOM     10  H   UNL     1       1.054   7.292  20.382  0.00  0.00    +0.000 HD
BRANCH   8  11
ATOM     11  C   UNL     1       1.027   9.654  19.562  0.00  0.00    +0.000 C 
ATOM     12  C   UNL     1       0.831   9.653  20.888  0.00  0.00    +0.000 C 
BRANCH  12  13
ATOM     13  C   UNL     1       0.075  10.694  21.596  0.00  0.00    +0.000 A 
ATOM     14  C   UNL     1      -0.852  10.386  22.606  0.00  0.00    +0.000 A 
ATOM     15  C   UNL     1      -1.563  11.399  23.251  0.00  0.00    +0.000 A 
ATOM     16  C   UNL     1      -1.334  12.724  22.904  0.00  0.00    +0.000 A 
ATOM     17  F   UNL     1      -2.023  13.694  23.517  0.00  0.00    +0.000 F 
ATOM     18  C   UNL     1      -0.395  13.055  21.935  0.00  0.00    +0.000 A 
ATOM     19  C   UNL     1       0.314  12.041  21.285  0.00  0.00    +0.000 A 
ENDBRANCH  12  13
ENDBRANCH   8  11
ENDBRANCH   4   7
BRANCH   1  20
ATOM     20  C   UNL     1       3.401   2.058  18.105  0.00  0.00    +0.000 C 
BRANCH  20  21
ATOM     21  C   UNL     1       4.510   2.496  17.136  0.00  0.00    +0.000 C 
BRANCH  21  30
ATOM     22  C   UNL     1       7.922   7.980  18.095  0.00  0.00    +0.000 A 
ATOM     23  C   UNL     1       8.332   6.998  19.006  0.00  0.00    +0.000 A 
ATOM     24  C   UNL     1       7.746   5.728  18.986  0.00  0.00    +0.000 A 
ATOM     25  C   UNL     1       6.742   5.419  18.057  0.00  0.00    +0.000 A 
ATOM     26  C   UNL     1       6.355   6.393  17.120  0.00  0.00    +0.000 A 
ATOM     27  C   UNL     1       6.930   7.673  17.155  0.00  0.00    +0.000 A 
ATOM     28  C   UNL     1       5.281   6.074  16.114  0.00  0.00    +0.000 C 
ATOM     29  C   UNL     1       5.075   4.565  15.933  0.00  0.00    +0.000 C 
ATOM     30  N   UNL     1       4.890   3.916  17.239  0.00  0.00    +0.000 NA
ATOM     31  C   UNL     1       6.142   4.024  18.022  0.00  0.00    +0.000 C 
BRANCH  22  33
ATOM     32  N   UNL     1       8.998  10.350  18.142  0.00  0.00    +0.000 NA
ATOM     33  C   UNL     1       8.514   9.293  18.120  0.00  0.00    +0.000 C 
ENDBRANCH  22  33
ENDBRANCH  21  30
ENDBRANCH  20  21
ENDBRANCH   1  20
TORSDOF 7
ENDMDL
MODEL 5
REMARK VINA RESULT:      -7.4      0.768      1.183
REMARK  Name = 
REMARK  7 active torsions:
REMARK  status: ('A' for Active; 'I' for Inactive)
REMARK    1  A    between atoms: C_2  and  C_3
REMARK    2  A    between atoms: N_11  and  C_12
REMARK    3  A    between atoms: C_12  and  C_13
REMARK    4  A    between atoms: C_13  and  C_14
REMARK    5  A    between atoms: C_17  and  N_18
REMARK    6  A    between atoms: C_19  and  C_21
REMARK    7  A    between atoms: C_22  and  C_23
REMARK                            x       y       z     vdW  Elec       q    Type
REMARK                         _______ _______ _______ _____ _____    ______ ____
ROOT
ATOM      1  C   UNL     1       2.509   5.715  19.711  0.00  0.00    +0.000 C 
ATOM      2  C   UNL     1       2.269   6.313  18.315  0.00  0.00    +0.000 C 
ATOM      3  C   UNL     1       2.311   7.839  18.319  0.00  0.00    +0.000 C 
ATOM      4  C   UNL     1       1.330   8.414  19.339  0.00  0.00    +0.000 C 
ATOM      5  C   UNL     1       1.644   7.876  20.737  0.00  0.00    +0.000 C 
ATOM      6  C   UNL     1       1.571   6.351  20.753  0.00  0.00    +0.000 C 
ENDROOT
BRANCH   4   7
ATOM      7  N   UNL     1       1.358   9.864  19.320  0.00  0.00    +0.000 N 
ATOM      8  C   UNL     1       0.382  10.582  18.670  0.00  0.00    +0.000 C 
ATOM      9  O   UNL     1      -0.540  10.086  18.036  0.00  0.00    +0.000 OA
ATOM     10  H   UNL     1       2.021  10.342  19.915  0.00  0.00    +0.000 HD
BRANCH   8  11
ATOM     11  C   UNL     1       0.567  12.045  18.803  0.00  0.00    +0.000 C 
ATOM     12  C   UNL     1       1.731  12.539  19.249  0.00  0.00    +0.000 C 
BRANCH  12  13
ATOM     13  C   UNL     1       1.993  13.974  19.414  0.00  0.00    +0.000 A 
ATOM     14  C   UNL     1       3.292  14.506  19.362  0.00  0.00    +0.000 A 
ATOM     15  C   UNL     1       3.507  15.874  19.534  0.00  0.00    +0.000 A 
ATOM     16  C   UNL     1       2.423  16.717  19.740  0.00  0.00    +0.000 A 
ATOM     17  F   UNL     1       2.632  18.028  19.916  0.00  0.00    +0.000 F 
ATOM     18  C   UNL     1       1.127  16.219  19.760  0.00  0.00    +0.000 A 
ATOM     19  C   UNL     1       0.911  14.849  19.591  0.00  0.00    +0.000 A 
ENDBRANCH  12  13
ENDBRANCH   8  11
ENDBRANCH   4   7
BRANCH   1  20
ATOM     20  C   UNL     1       2.336   4.180  19.725  0.00  0.00    +0.000 C 
BRANCH  20  21
ATOM     21  C   UNL     1       3.645   3.434  20.029  0.00  0.00    +0.000 C 
BRANCH  21  30
ATOM     22  C   UNL     1       6.989   4.982  14.638  0.00  0.00    +0.000 A 
ATOM     23  C   UNL     1       5.829   4.276  14.293  0.00  0.00    +0.000 A 
ATOM     24  C   UNL     1       4.944   3.844  15.287  0.00  0.00    +0.000 A 
ATOM     25  C   UNL     1       5.203   4.110  16.639  0.00  0.00    +0.000 A 
ATOM     26  C   UNL     1       6.349   4.849  16.983  0.00  0.00    +0.000 A 
ATOM     27  C   UNL     1       7.246   5.264  15.986  0.00  0.00    +0.000 A 
ATOM     28  C   UNL     1       6.638   5.145  18.431  0.00  0.00    +0.000 C 
ATOM     29  C   UNL     1       5.394   5.009  19.318  0.00  0.00    +0.000 C 
ATOM     30  N   UNL     1       4.743   3.712  19.087  0.00  0.00    +0.000 NA
ATOM     31  C   UNL     1       4.214   3.668  17.704  0.00  0.00    +0.000 C 
BRANCH  22  33
ATOM     32  N   UNL     1       8.648   5.767  12.792  0.00  0.00    +0.000 NA
ATOM     33  C   UNL     1       7.909   5.418  13.619  0.00  0.00    +0.000 C 
ENDBRANCH  22  33
ENDBRANCH  21  30
ENDBRANCH  20  21
ENDBRANCH   1  20
TORSDOF 7
ENDMDL
MODEL 6
REMARK VINA RESULT:      -7.4      3.913     10.195
REMARK  Name = 
REMARK  7 active torsions:
REMARK  status: ('A' for Active; 'I' for Inactive)
REMARK    1  A    between atoms: C_2  and  C_3
REMARK    2  A    between atoms: N_11  and  C_12
REMARK    3  A    between atoms: C_12  and  C_13
REMARK    4  A    between atoms: C_13  and  C_14
REMARK    5  A    between atoms: C_17  and  N_18
REMARK    6  A    between atoms: C_19  and  C_21
REMARK    7  A    between atoms: C_22  and  C_23
REMARK                            x       y       z     vdW  Elec       q    Type
REMARK                         _______ _______ _______ _____ _____    ______ ____
ROOT
ATOM      1  C   UNL     1      -0.224  11.047  21.855  0.00  0.00    +0.000 C 
ATOM      2  C   UNL     1       0.235   9.835  22.683  0.00  0.00    +0.000 C 
ATOM      3  C   UNL     1       1.338   9.040  21.988  0.00  0.00    +0.000 C 
ATOM      4  C   UNL     1       0.909   8.616  20.584  0.00  0.00    +0.000 C 
ATOM      5  C   UNL     1       0.543   9.845  19.749  0.00  0.00    +0.000 C 
ATOM      6  C   UNL     1      -0.583  10.630  20.417  0.00  0.00    +0.000 C 
ENDROOT
BRANCH   4   7
ATOM      7  N   UNL     1       1.952   7.839  19.940  0.00  0.00    +0.000 N 
ATOM      8  C   UNL     1       2.053   6.483  20.144  0.00  0.00    +0.000 C 
ATOM      9  O   UNL     1       1.330   5.837  20.891  0.00  0.00    +0.000 OA
ATOM     10  H   UNL     1       2.511   8.283  19.224  0.00  0.00    +0.000 HD
BRANCH   8  11
ATOM     11  C   UNL     1       3.153   5.870  19.366  0.00  0.00    +0.000 C 
ATOM     12  C   UNL     1       3.594   6.460  18.245  0.00  0.00    +0.000 C 
BRANCH  12  13
ATOM     13  C   UNL     1       4.676   5.916  17.414  0.00  0.00    +0.000 A 
ATOM     14  C   UNL     1       5.921   6.555  17.298  0.00  0.00    +0.000 A 
ATOM     15  C   UNL     1       6.924   6.017  16.491  0.00  0.00    +0.000 A 
ATOM     16  C   UNL     1       6.693   4.827  15.813  0.00  0.00    +0.000 A 
ATOM     17  F   UNL     1       7.653   4.318  15.031  0.00  0.00    +0.000 F 
ATOM     18  C   UNL     1       5.483   4.158  15.941  0.00  0.00    +0.000 A 
ATOM     19  C   UNL     1       4.476   4.698  16.746  0.00  0.00    +0.000 A 
ENDBRANCH  12  13
ENDBRANCH   8  11
ENDBRANCH   4   7
BRANCH   1  20
ATOM     20  C   UNL     1      -1.426  11.771  22.501  0.00  0.00    +0.000 C 
BRANCH  20  21
ATOM     21  C   UNL     1      -1.424  13.285  22.238  0.00  0.00    +0.000 C 
BRANCH  21  30
ATOM     22  C   UNL     1       3.714  16.147  19.399  0.00  0.00    +0.000 A 
ATOM     23  C   UNL     1       3.037  15.350  18.467  0.00  0.00    +0.000 A 
ATOM     24  C   UNL     1       1.891  14.641  18.845  0.00  0.00    +0.000 A 
ATOM     25  C   UNL     1       1.403  14.717  20.158  0.00  0.00    +0.000 A 
ATOM     26  C   UNL     1       2.063  15.545  21.084  0.00  0.00    +0.000 A 
ATOM     27  C   UNL     1       3.223  16.239  20.709  0.00  0.00    +0.000 A 
ATOM     28  C   UNL     1       1.549  15.639  22.496  0.00  0.00    +0.000 C 
ATOM     29  C   UNL     1       0.088  15.186  22.621  0.00  0.00    +0.000 C 
ATOM     30  N   UNL     1      -0.090  13.865  22.002  0.00  0.00    +0.000 NA
ATOM     31  C   UNL     1       0.137  13.973  20.543  0.00  0.00    +0.000 C 
BRANCH  22  33
ATOM     32  N   UNL     1       5.861  17.452  18.719  0.00  0.00    +0.000 NA
ATOM     33  C   UNL     1       4.900  16.869  19.019  0.00  0.00    +0.000 C 
ENDBRANCH  22  33
ENDBRANCH  21  30
ENDBRANCH  20  21
ENDBRANCH   1  20
TORSDOF 7
ENDMDL
MODEL 7
REMARK VINA RESULT:      -7.4      4.897     12.288
REMARK  Name = 
REMARK  7 active torsions:
REMARK  status: ('A' for Active; 'I' for Inactive)
REMARK    1  A    between atoms: C_2  and  C_3
REMARK    2  A    between atoms: N_11  and  C_12
REMARK    3  A    between atoms: C_12  and  C_13
REMARK    4  A    between atoms: C_13  and  C_14
REMARK    5  A    between atoms: C_17  and  N_18
REMARK    6  A    between atoms: C_19  and  C_21
REMARK    7  A    between atoms: C_22  and  C_23
REMARK                            x       y       z     vdW  Elec       q    Type
REMARK                         _______ _______ _______ _____ _____    ______ ____
ROOT
ATOM      1  C   UNL     1       0.623  14.333  18.933  0.00  0.00    +0.000 C 
ATOM      2  C   UNL     1       1.396  13.971  20.213  0.00  0.00    +0.000 C 
ATOM      3  C   UNL     1       1.756  12.489  20.276  0.00  0.00    +0.000 C 
ATOM      4  C   UNL     1       0.513  11.614  20.118  0.00  0.00    +0.000 C 
ATOM      5  C   UNL     1      -0.190  11.927  18.796  0.00  0.00    +0.000 C 
ATOM      6  C   UNL     1      -0.586  13.400  18.736  0.00  0.00    +0.000 C 
ENDROOT
BRANCH   4   7
ATOM      7  N   UNL     1       0.859  10.207  20.205  0.00  0.00    +0.000 N 
ATOM      8  C   UNL     1       0.846   9.548  21.412  0.00  0.00    +0.000 C 
ATOM      9  O   UNL     1       0.593  10.074  22.488  0.00  0.00    +0.000 OA
ATOM     10  H   UNL     1       0.965   9.683  19.347  0.00  0.00    +0.000 HD
BRANCH   8  11
ATOM     11  C   UNL     1       1.186   8.113  21.280  0.00  0.00    +0.000 C 
ATOM     12  C   UNL     1       1.884   7.681  20.220  0.00  0.00    +0.000 C 
BRANCH  12  13
ATOM     13  C   UNL     1       2.258   6.277  20.013  0.00  0.00    +0.000 A 
ATOM     14  C   UNL     1       1.544   5.220  20.602  0.00  0.00    +0.000 A 
ATOM     15  C   UNL     1       1.933   3.896  20.394  0.00  0.00    +0.000 A 
ATOM     16  C   UNL     1       3.025   3.623  19.581  0.00  0.00    +0.000 A 
ATOM     17  F   UNL     1       3.404   2.353  19.391  0.00  0.00    +0.000 F 
ATOM     18  C   UNL     1       3.725   4.649  18.959  0.00  0.00    +0.000 A 
ATOM     19  C   UNL     1       3.338   5.975  19.169  0.00  0.00    +0.000 A 
ENDBRANCH  12  13
ENDBRANCH   8  11
ENDBRANCH   4   7
BRANCH   1  20
ATOM     20  C   UNL     1       0.150  15.803  18.936  0.00  0.00    +0.000 C 
BRANCH  20  21
ATOM     21  C   UNL     1      -0.440  16.239  20.287  0.00  0.00    +0.000 C 
BRANCH  21  30
ATOM     22  C   UNL     1      -5.586  13.682  23.390  0.00  0.00    +0.000 A 
ATOM     23  C   UNL     1      -4.400  13.165  23.928  0.00  0.00    +0.000 A 
ATOM     24  C   UNL     1      -3.159  13.576  23.426  0.00  0.00    +0.000 A 
ATOM     25  C   UNL     1      -3.084  14.509  22.381  0.00  0.00    +0.000 A 
ATOM     26  C   UNL     1      -4.274  15.054  21.865  0.00  0.00    +0.000 A 
ATOM     27  C   UNL     1      -5.517  14.626  22.356  0.00  0.00    +0.000 A 
ATOM     28  C   UNL     1      -4.208  16.059  20.746  0.00  0.00    +0.000 C 
ATOM     29  C   UNL     1      -2.827  16.717  20.628  0.00  0.00    +0.000 C 
ATOM     30  N   UNL     1      -1.776  15.692  20.579  0.00  0.00    +0.000 NA
ATOM     31  C   UNL     1      -1.730  14.974  21.873  0.00  0.00    +0.000 C 
BRANCH  22  33
ATOM     32  N   UNL     1      -7.901  12.910  24.295  0.00  0.00    +0.000 NA
ATOM     33  C   UNL     1      -6.864  13.254  23.894  0.00  0.00    +0.000 C 
ENDBRANCH  22  33
ENDBRANCH  21  30
ENDBRANCH  20  21
ENDBRANCH   1  20
TORSDOF 7
ENDMDL
MODEL 8
REMARK VINA RESULT:      -7.3      1.650      2.254
REMARK  Name = 
REMARK  7 active torsions:
REMARK  status: ('A' for Active; 'I' for Inactive)
REMARK    1  A    between atoms: C_2  and  C_3
REMARK    2  A    between atoms: N_11  and  C_12
REMARK    3  A    between atoms: C_12  and  C_13
REMARK    4  A    between atoms: C_13  and  C_14
REMARK    5  A    between atoms: C_17  and  N_18
REMARK    6  A    between atoms: C_19  and  C_21
REMARK    7  A    between atoms: C_22  and  C_23
REMARK                            x       y       z     vdW  Elec       q    Type
REMARK                         _______ _______ _______ _____ _____    ______ ____
ROOT
ATOM      1  C   UNL     1       1.885   4.290  19.404  0.00  0.00    +0.000 C 
ATOM      2  C   UNL     1       2.359   5.069  20.643  0.00  0.00    +0.000 C 
ATOM      3  C   UNL     1       1.795   6.486  20.692  0.00  0.00    +0.000 C 
ATOM      4  C   UNL     1       2.114   7.250  19.408  0.00  0.00    +0.000 C 
ATOM      5  C   UNL     1       1.554   6.504  18.195  0.00  0.00    +0.000 C 
ATOM      6  C   UNL     1       2.139   5.095  18.116  0.00  0.00    +0.000 C 
ENDROOT
BRANCH   4   7
ATOM      7  N   UNL     1       1.596   8.604  19.472  0.00  0.00    +0.000 N 
ATOM      8  C   UNL     1       1.730   9.464  18.407  0.00  0.00    +0.000 C 
ATOM      9  O   UNL     1       2.310   9.193  17.364  0.00  0.00    +0.000 OA
ATOM     10  H   UNL     1       1.007   8.858  20.253  0.00  0.00    +0.000 HD
BRANCH   8  11
ATOM     11  C   UNL     1       1.099  10.780  18.655  0.00  0.00    +0.000 C 
ATOM     12  C   UNL     1       0.780  11.149  19.905  0.00  0.00    +0.000 C 
BRANCH  12  13
ATOM     13  C   UNL     1       0.150  12.433  20.235  0.00  0.00    +0.000 A 
ATOM     14  C   UNL     1      -0.334  12.717  21.523  0.00  0.00    +0.000 A 
ATOM     15  C   UNL     1      -0.939  13.944  21.800  0.00  0.00    +0.000 A 
ATOM     16  C   UNL     1      -1.044  14.898  20.796  0.00  0.00    +0.000 A 
ATOM     17  F   UNL     1      -1.634  16.070  21.061  0.00  0.00    +0.000 F 
ATOM     18  C   UNL     1      -0.541  14.653  19.525  0.00  0.00    +0.000 A 
ATOM     19  C   UNL     1       0.061  13.424  19.245  0.00  0.00    +0.000 A 
ENDBRANCH  12  13
ENDBRANCH   8  11
ENDBRANCH   4   7
BRANCH   1  20
ATOM     20  C   UNL     1       2.561   2.906  19.293  0.00  0.00    +0.000 C 
BRANCH  20  21
ATOM     21  C   UNL     1       3.992   2.892  19.855  0.00  0.00    +0.000 C 
BRANCH  21  30
ATOM     22  C   UNL     1       7.021   4.933  14.442  0.00  0.00    +0.000 A 
ATOM     23  C   UNL     1       5.929   4.125  14.101  0.00  0.00    +0.000 A 
ATOM     24  C   UNL     1       5.117   3.576  15.101  0.00  0.00    +0.000 A 
ATOM     25  C   UNL     1       5.384   3.825  16.455  0.00  0.00    +0.000 A 
ATOM     26  C   UNL     1       6.460   4.665  16.796  0.00  0.00    +0.000 A 
ATOM     27  C   UNL     1       7.284   5.198  15.793  0.00  0.00    +0.000 A 
ATOM     28  C   UNL     1       6.756   4.944  18.246  0.00  0.00    +0.000 C 
ATOM     29  C   UNL     1       5.555   4.656  19.156  0.00  0.00    +0.000 C 
ATOM     30  N   UNL     1       5.031   3.308  18.897  0.00  0.00    +0.000 NA
ATOM     31  C   UNL     1       4.473   3.254  17.527  0.00  0.00    +0.000 C 
BRANCH  22  33
ATOM     32  N   UNL     1       8.549   5.935  12.587  0.00  0.00    +0.000 NA
ATOM     33  C   UNL     1       7.866   5.491  13.418  0.00  0.00    +0.000 C 
ENDBRANCH  22  33
ENDBRANCH  21  30
ENDBRANCH  20  21
ENDBRANCH   1  20
TORSDOF 7
ENDMDL
MODEL 9
REMARK VINA RESULT:      -7.3      5.089     12.022
REMARK  Name = 
REMARK  7 active torsions:
REMARK  status: ('A' for Active; 'I' for Inactive)
REMARK    1  A    between atoms: C_2  and  C_3
REMARK    2  A    between atoms: N_11  and  C_12
REMARK    3  A    between atoms: C_12  and  C_13
REMARK    4  A    between atoms: C_13  and  C_14
REMARK    5  A    between atoms: C_17  and  N_18
REMARK    6  A    between atoms: C_19  and  C_21
REMARK    7  A    between atoms: C_22  and  C_23
REMARK                            x       y       z     vdW  Elec       q    Type
REMARK                         _______ _______ _______ _____ _____    ______ ____
ROOT
ATOM      1  C   UNL     1       1.431   8.253  19.404  0.00  0.00    +0.000 C 
ATOM      2  C   UNL     1       2.293   8.953  18.341  0.00  0.00    +0.000 C 
ATOM      3  C   UNL     1       2.838   7.980  17.298  0.00  0.00    +0.000 C 
ATOM      4  C   UNL     1       3.604   6.837  17.961  0.00  0.00    +0.000 C 
ATOM      5  C   UNL     1       2.701   6.096  18.950  0.00  0.00    +0.000 C 
ATOM      6  C   UNL     1       2.178   7.053  20.018  0.00  0.00    +0.000 C 
ENDROOT
BRANCH   4   7
ATOM      7  N   UNL     1       4.140   5.929  16.963  0.00  0.00    +0.000 N 
ATOM      8  C   UNL     1       5.428   6.067  16.501  0.00  0.00    +0.000 C 
ATOM      9  O   UNL     1       6.197   6.956  16.841  0.00  0.00    +0.000 OA
ATOM     10  H   UNL     1       3.605   5.106  16.723  0.00  0.00    +0.000 HD
BRANCH   8  11
ATOM     11  C   UNL     1       5.796   5.019  15.522  0.00  0.00    +0.000 C 
ATOM     12  C   UNL     1       5.368   5.103  14.253  0.00  0.00    +0.000 C 
BRANCH  12  13
ATOM     13  C   UNL     1       5.685   4.106  13.223  0.00  0.00    +0.000 A 
ATOM     14  C   UNL     1       4.685   3.384  12.551  0.00  0.00    +0.000 A 
ATOM     15  C   UNL     1       5.021   2.435  11.586  0.00  0.00    +0.000 A 
ATOM     16  C   UNL     1       6.356   2.218  11.274  0.00  0.00    +0.000 A 
ATOM     17  F   UNL     1       6.678   1.299  10.354  0.00  0.00    +0.000 F 
ATOM     18  C   UNL     1       7.361   2.945  11.899  0.00  0.00    +0.000 A 
ATOM     19  C   UNL     1       7.026   3.893  12.869  0.00  0.00    +0.000 A 
ENDBRANCH  12  13
ENDBRANCH   8  11
ENDBRANCH   4   7
BRANCH   1  20
ATOM     20  C   UNL     1       0.992   9.219  20.526  0.00  0.00    +0.000 C 
BRANCH  20  21
ATOM     21  C   UNL     1       0.637  10.620  20.003  0.00  0.00    +0.000 C 
BRANCH  21  30
ATOM     22  C   UNL     1      -4.643  13.547  22.491  0.00  0.00    +0.000 A 
ATOM     23  C   UNL     1      -4.677  13.611  21.092  0.00  0.00    +0.000 A 
ATOM     24  C   UNL     1      -3.650  13.040  20.334  0.00  0.00    +0.000 A 
ATOM     25  C   UNL     1      -2.573  12.396  20.960  0.00  0.00    +0.000 A 
ATOM     26  C   UNL     1      -2.556  12.300  22.363  0.00  0.00    +0.000 A 
ATOM     27  C   UNL     1      -3.578  12.891  23.123  0.00  0.00    +0.000 A 
ATOM     28  C   UNL     1      -1.408  11.608  23.049  0.00  0.00    +0.000 C 
ATOM     29  C   UNL     1      -0.635  10.678  22.105  0.00  0.00    +0.000 C 
ATOM     30  N   UNL     1      -0.260  11.394  20.878  0.00  0.00    +0.000 NA
ATOM     31  C   UNL     1      -1.484  11.747  20.123  0.00  0.00    +0.000 C 
BRANCH  22  33
ATOM     32  N   UNL     1      -6.544  14.619  23.911  0.00  0.00    +0.000 NA
ATOM     33  C   UNL     1      -5.693  14.143  23.276  0.00  0.00    +0.000 C 
ENDBRANCH  22  33
ENDBRANCH  21  30
ENDBRANCH  20  21
ENDBRANCH   1  20
TORSDOF 7
ENDMDL
