MODEL 1
REMARK VINA RESULT:      -7.3      0.000      0.000
REMARK  Name = 
REMARK  6 active torsions:
REMARK  status: ('A' for Active; 'I' for Inactive)
REMARK    1  A    between atoms: C_1  and  O_2
REMARK    2  A    between atoms: O_2  and  C_3
REMARK    3  A    between atoms: C_8  and  C_9
REMARK    4  A    between atoms: C_13  and  C_14
REMARK    5  A    between atoms: C_19  and  O_20
REMARK    6  A    between atoms: O_20  and  C_21
REMARK                            x       y       z     vdW  Elec       q    Type
REMARK                         _______ _______ _______ _____ _____    ______ ____
ROOT
ATOM      1  C   UNL     1       3.653   5.020  19.015  0.00  0.00    +0.000 A 
ATOM      2  C   UNL     1       3.059   3.931  19.666  0.00  0.00    +0.000 A 
ATOM      3  C   UNL     1       1.996   4.108  20.547  0.00  0.00    +0.000 A 
ATOM      4  C   UNL     1       1.504   5.389  20.809  0.00  0.00    +0.000 A 
ATOM      5  C   UNL     1       2.070   6.537  20.227  0.00  0.00    +0.000 A 
ATOM      6  C   UNL     1       3.149   6.308  19.342  0.00  0.00    +0.000 A 
ENDROOT
BRANCH   1  12
ATOM      7  C   UNL     1       6.140   4.954  18.324  0.00  0.00    +0.000 A 
ATOM      8  C   UNL     1       7.114   4.701  17.338  0.00  0.00    +0.000 A 
ATOM      9  C   UNL     1       6.749   4.387  16.035  0.00  0.00    +0.000 A 
ATOM     10  C   UNL     1       5.406   4.331  15.698  0.00  0.00    +0.000 A 
ATOM     11  C   UNL     1       4.430   4.566  16.672  0.00  0.00    +0.000 A 
ATOM     12  C   UNL     1       4.759   4.856  18.018  0.00  0.00    +0.000 A 
BRANCH   7  14
ATOM     13  C   UNL     1       7.870   5.678  19.756  0.00  0.00    +0.000 C 
ATOM     14  O   UNL     1       6.524   5.226  19.618  0.00  0.00    +0.000 OA
ENDBRANCH   7  14
ENDBRANCH   1  12
BRANCH   5  15
ATOM     15  C   UNL     1       1.541   7.908  20.546  0.00  0.00    +0.000 A 
ATOM     16  C   UNL     1       1.219   8.221  21.891  0.00  0.00    +0.000 A 
ATOM     17  C   UNL     1       0.639   9.436  22.266  0.00  0.00    +0.000 A 
ATOM     18  C   UNL     1       0.385  10.401  21.306  0.00  0.00    +0.000 A 
ATOM     19  C   UNL     1       0.730  10.156  19.980  0.00  0.00    +0.000 A 
ATOM     20  C   UNL     1       1.310   8.933  19.591  0.00  0.00    +0.000 A 
BRANCH  20  21
ATOM     21  O   UNL     1       1.586   8.675  18.268  0.00  0.00    +0.000 OA
ATOM     22  C   UNL     1       2.288   9.689  17.554  0.00  0.00    +0.000 C 
ENDBRANCH  20  21
ENDBRANCH   5  15
TORSDOF 4
ENDMDL
MODEL 2
REMARK VINA RESULT:      -7.3      1.099      2.027
REMARK  Name = 
REMARK  6 active torsions:
REMARK  status: ('A' for Active; 'I' for Inactive)
REMARK    1  A    between atoms: C_1  and  O_2
REMARK    2  A    between atoms: O_2  and  C_3
REMARK    3  A    between atoms: C_8  and  C_9
REMARK    4  A    between atoms: C_13  and  C_14
REMARK    5  A    between atoms: C_19  and  O_20
REMARK    6  A    between atoms: O_20  and  C_21
REMARK                            x       y       z     vdW  Elec       q    Type
REMARK                         _______ _______ _______ _____ _____    ______ ____
ROOT
ATOM      1  C   UNL     1       3.798   5.473  18.931  0.00  0.00    +0.000 A 
ATOM      2  C   UNL     1       3.280   4.577  19.875  0.00  0.00    +0.000 A 
ATOM      3  C   UNL     1       2.216   4.932  20.700  0.00  0.00    +0.000 A 
ATOM      4  C   UNL     1       1.646   6.203  20.607  0.00  0.00    +0.000 A 
ATOM      5  C   UNL     1       2.133   7.173  19.713  0.00  0.00    +0.000 A 
ATOM      6  C   UNL     1       3.216   6.769  18.899  0.00  0.00    +0.000 A 
ENDROOT
BRANCH   1  12
ATOM      7  C   UNL     1       6.275   5.043  18.343  0.00  0.00    +0.000 A 
ATOM      8  C   UNL     1       7.237   4.601  17.414  0.00  0.00    +0.000 A 
ATOM      9  C   UNL     1       6.874   4.246  16.120  0.00  0.00    +0.000 A 
ATOM     10  C   UNL     1       5.546   4.339  15.736  0.00  0.00    +0.000 A 
ATOM     11  C   UNL     1       4.580   4.763  16.654  0.00  0.00    +0.000 A 
ATOM     12  C   UNL     1       4.903   5.101  17.991  0.00  0.00    +0.000 A 
BRANCH   7  14
ATOM     13  C   UNL     1       8.034   5.673  19.785  0.00  0.00    +0.000 C 
ATOM     14  O   UNL     1       6.652   5.352  19.631  0.00  0.00    +0.000 OA
ENDBRANCH   7  14
ENDBRANCH   1  12
BRANCH   5  15
ATOM     15  C   UNL     1       1.521   8.545  19.651  0.00  0.00    +0.000 A 
ATOM     16  C   UNL     1       1.401   9.186  18.392  0.00  0.00    +0.000 A 
ATOM     17  C   UNL     1       0.928  10.493  18.251  0.00  0.00    +0.000 A 
ATOM     18  C   UNL     1       0.525  11.202  19.369  0.00  0.00    +0.000 A 
ATOM     19  C   UNL     1       0.579  10.596  20.620  0.00  0.00    +0.000 A 
ATOM     20  C   UNL     1       1.060   9.281  20.775  0.00  0.00    +0.000 A 
BRANCH  20  21
ATOM     21  O   UNL     1       1.170   8.715  22.023  0.00  0.00    +0.000 OA
ATOM     22  C   UNL     1       0.387   9.299  23.061  0.00  0.00    +0.000 C 
ENDBRANCH  20  21
ENDBRANCH   5  15
TORSDOF 4
ENDMDL
MODEL 3
REMARK VINA RESULT:      -7.2      1.089      6.761
REMARK  Name = 
REMARK  6 active torsions:
REMARK  status: ('A' for Active; 'I' for Inactive)
REMARK    1  A    between atoms: C_1  and  O_2
REMARK    2  A    between atoms: O_2  and  C_3
REMARK    3  A    between atoms: C_8  and  C_9
REMARK    4  A    between atoms: C_13  and  C_14
REMARK    5  A    between atoms: C_19  and  O_20
REMARK    6  A    between atoms: O_20  and  C_21
REMARK                            x       y       z     vdW  Elec       q    Type
REMARK                         _______ _______ _______ _____ _____    ______ ____
ROOT
ATOM      1  C   UNL     1       2.135   7.117  19.655  0.00  0.00    +0.000 A 
ATOM      2  C   UNL     1       1.683   6.141  20.552  0.00  0.00    +0.000 A 
ATOM      3  C   UNL     1       2.283   4.886  20.617  0.00  0.00    +0.000 A 
ATOM      4  C   UNL     1       3.351   4.571  19.774  0.00  0.00    +0.000 A 
ATOM      5  C   UNL     1       3.838   5.482  18.819  0.00  0.00    +0.000 A 
ATOM      6  C   UNL     1       3.196   6.740  18.787  0.00  0.00    +0.000 A 
ENDROOT
BRANCH   1  12
ATOM      7  C   UNL     1       1.070   9.210  20.729  0.00  0.00    +0.000 A 
ATOM      8  C   UNL     1       0.613  10.535  20.598  0.00  0.00    +0.000 A 
ATOM      9  C   UNL     1       0.581  11.162  19.358  0.00  0.00    +0.000 A 
ATOM     10  C   UNL     1       0.998  10.469  18.233  0.00  0.00    +0.000 A 
ATOM     11  C   UNL     1       1.468   9.158  18.354  0.00  0.00    +0.000 A 
ATOM     12  C   UNL     1       1.548   8.494  19.602  0.00  0.00    +0.000 A 
BRANCH   7  14
ATOM     13  C   UNL     1       0.397   9.305  22.989  0.00  0.00    +0.000 C 
ATOM     14  O   UNL     1       1.129   8.621  21.973  0.00  0.00    +0.000 OA
ENDBRANCH   7  14
ENDBRANCH   1  12
BRANCH   5  15
ATOM     15  C   UNL     1       4.971   5.109  17.903  0.00  0.00    +0.000 A 
ATOM     16  C   UNL     1       4.681   4.779  16.554  0.00  0.00    +0.000 A 
ATOM     17  C   UNL     1       5.658   4.336  15.659  0.00  0.00    +0.000 A 
ATOM     18  C   UNL     1       6.975   4.235  16.073  0.00  0.00    +0.000 A 
ATOM     19  C   UNL     1       7.314   4.595  17.373  0.00  0.00    +0.000 A 
ATOM     20  C   UNL     1       6.337   5.038  18.286  0.00  0.00    +0.000 A 
BRANCH  20  21
ATOM     21  O   UNL     1       6.671   5.329  19.588  0.00  0.00    +0.000 OA
ATOM     22  C   UNL     1       8.033   5.667  19.836  0.00  0.00    +0.000 C 
ENDBRANCH  20  21
ENDBRANCH   5  15
TORSDOF 4
ENDMDL
MODEL 4
REMARK VINA RESULT:      -7.2      1.672      7.334
REMARK  Name = 
REMARK  6 active torsions:
REMARK  status: ('A' for Active; 'I' for Inactive)
REMARK    1  A    between atoms: C_1  and  O_2
REMARK    2  A    between atoms: O_2  and  C_3
REMARK    3  A    between atoms: C_8  and  C_9
REMARK    4  A    between atoms: C_13  and  C_14
REMARK    5  A    between atoms: C_19  and  O_20
REMARK    6  A    between atoms: O_20  and  C_21
REMARK                            x       y       z     vdW  Elec       q    Type
REMARK                         _______ _______ _______ _____ _____    ______ ____
ROOT
ATOM      1  C   UNL     1       1.407   8.710  19.862  0.00  0.00    +0.000 A 
ATOM      2  C   UNL     1       1.828   9.338  18.683  0.00  0.00    +0.000 A 
ATOM      3  C   UNL     1       2.485   8.628  17.681  0.00  0.00    +0.000 A 
ATOM      4  C   UNL     1       2.748   7.266  17.840  0.00  0.00    +0.000 A 
ATOM      5  C   UNL     1       2.394   6.571  19.010  0.00  0.00    +0.000 A 
ATOM      6  C   UNL     1       1.733   7.333  20.000  0.00  0.00    +0.000 A 
ENDROOT
BRANCH   1  12
ATOM      7  C   UNL     1      -0.177  10.565  20.708  0.00  0.00    +0.000 A 
ATOM      8  C   UNL     1      -0.922  11.130  21.760  0.00  0.00    +0.000 A 
ATOM      9  C   UNL     1      -0.841  10.619  23.050  0.00  0.00    +0.000 A 
ATOM     10  C   UNL     1      -0.007   9.543  23.305  0.00  0.00    +0.000 A 
ATOM     11  C   UNL     1       0.727   8.965  22.265  0.00  0.00    +0.000 A 
ATOM     12  C   UNL     1       0.647   9.433  20.931  0.00  0.00    +0.000 A 
BRANCH   7  14
ATOM     13  C   UNL     1      -1.640  11.098  18.934  0.00  0.00    +0.000 C 
ATOM     14  O   UNL     1      -0.302  11.063  19.430  0.00  0.00    +0.000 OA
ENDBRANCH   7  14
ENDBRANCH   1  12
BRANCH   5  15
ATOM     15  C   UNL     1       2.713   5.110  19.170  0.00  0.00    +0.000 A 
ATOM     16  C   UNL     1       1.657   4.167  19.103  0.00  0.00    +0.000 A 
ATOM     17  C   UNL     1       1.848   2.801  19.328  0.00  0.00    +0.000 A 
ATOM     18  C   UNL     1       3.117   2.321  19.600  0.00  0.00    +0.000 A 
ATOM     19  C   UNL     1       4.192   3.204  19.628  0.00  0.00    +0.000 A 
ATOM     20  C   UNL     1       4.010   4.583  19.408  0.00  0.00    +0.000 A 
BRANCH  20  21
ATOM     21  O   UNL     1       5.069   5.456  19.502  0.00  0.00    +0.000 OA
ATOM     22  C   UNL     1       6.079   5.343  18.502  0.00  0.00    +0.000 C 
ENDBRANCH  20  21
ENDBRANCH   5  15
TORSDOF 4
ENDMDL
MODEL 5
REMARK VINA RESULT:      -7.2      0.086      6.706
REMARK  Name = 
REMARK  6 active torsions:
REMARK  status: ('A' for Active; 'I' for Inactive)
REMARK    1  A    between atoms: C_1  and  O_2
REMARK    2  A    between atoms: O_2  and  C_3
REMARK    3  A    between atoms: C_8  and  C_9
REMARK    4  A    between atoms: C_13  and  C_14
REMARK    5  A    between atoms: C_19  and  O_20
REMARK    6  A    between atoms: O_20  and  C_21
REMARK                            x       y       z     vdW  Elec       q    Type
REMARK                         _______ _______ _______ _____ _____    ______ ____
ROOT
ATOM      1  C   UNL     1       2.071   6.526  20.203  0.00  0.00    +0.000 A 
ATOM      2  C   UNL     1       1.567   5.368  20.809  0.00  0.00    +0.000 A 
ATOM      3  C   UNL     1       2.108   4.114  20.533  0.00  0.00    +0.000 A 
ATOM      4  C   UNL     1       3.166   3.986  19.632  0.00  0.00    +0.000 A 
ATOM      5  C   UNL     1       3.703   5.095  18.952  0.00  0.00    +0.000 A 
ATOM      6  C   UNL     1       3.121   6.345  19.261  0.00  0.00    +0.000 A 
ENDROOT
BRANCH   1  12
ATOM      7  C   UNL     1       1.311   8.908  19.562  0.00  0.00    +0.000 A 
ATOM      8  C   UNL     1       0.739  10.137  19.943  0.00  0.00    +0.000 A 
ATOM      9  C   UNL     1       0.430  10.402  21.272  0.00  0.00    +0.000 A 
ATOM     10  C   UNL     1       0.698   9.445  22.238  0.00  0.00    +0.000 A 
ATOM     11  C   UNL     1       1.252   8.215  21.869  0.00  0.00    +0.000 A 
ATOM     12  C   UNL     1       1.550   7.893  20.522  0.00  0.00    +0.000 A 
BRANCH   7  14
ATOM     13  C   UNL     1       2.284   9.689  17.559  0.00  0.00    +0.000 C 
ATOM     14  O   UNL     1       1.573   8.653  18.235  0.00  0.00    +0.000 OA
ENDBRANCH   7  14
ENDBRANCH   1  12
BRANCH   5  15
ATOM     15  C   UNL     1       4.825   4.928  17.964  0.00  0.00    +0.000 A 
ATOM     16  C   UNL     1       4.508   4.693  16.602  0.00  0.00    +0.000 A 
ATOM     17  C   UNL     1       5.483   4.437  15.633  0.00  0.00    +0.000 A 
ATOM     18  C   UNL     1       6.820   4.438  15.988  0.00  0.00    +0.000 A 
ATOM     19  C   UNL     1       7.180   4.712  17.304  0.00  0.00    +0.000 A 
ATOM     20  C   UNL     1       6.207   4.965  18.290  0.00  0.00    +0.000 A 
BRANCH  20  21
ATOM     21  O   UNL     1       6.569   5.170  19.600  0.00  0.00    +0.000 OA
ATOM     22  C   UNL     1       7.884   5.672  19.827  0.00  0.00    +0.000 C 
ENDBRANCH  20  21
ENDBRANCH   5  15
TORSDOF 4
ENDMDL
MODEL 6
REMARK VINA RESULT:      -7.1      3.794      8.754
REMARK  Name = 
REMARK  6 active torsions:
REMARK  status: ('A' for Active; 'I' for Inactive)
REMARK    1  A    between atoms: C_1  and  O_2
REMARK    2  A    between atoms: O_2  and  C_3
REMARK    3  A    between atoms: C_8  and  C_9
REMARK    4  A    between atoms: C_13  and  C_14
REMARK    5  A    between atoms: C_19  and  O_20
REMARK    6  A    between atoms: O_20  and  C_21
REMARK                            x       y       z     vdW  Elec       q    Type
REMARK                         _______ _______ _______ _____ _____    ______ ____
ROOT
ATOM      1  C   UNL     1      -1.295  11.663  18.329  0.00  0.00    +0.000 A 
ATOM      2  C   UNL     1      -0.548  12.845  18.412  0.00  0.00    +0.000 A 
ATOM      3  C   UNL     1       0.830  12.816  18.612  0.00  0.00    +0.000 A 
ATOM      4  C   UNL     1       1.497  11.597  18.745  0.00  0.00    +0.000 A 
ATOM      5  C   UNL     1       0.814  10.368  18.711  0.00  0.00    +0.000 A 
ATOM      6  C   UNL     1      -0.582  10.446  18.510  0.00  0.00    +0.000 A 
ENDROOT
BRANCH   1  12
ATOM      7  C   UNL     1      -3.353  11.363  16.799  0.00  0.00    +0.000 A 
ATOM      8  C   UNL     1      -4.752  11.301  16.654  0.00  0.00    +0.000 A 
ATOM      9  C   UNL     1      -5.596  11.564  17.728  0.00  0.00    +0.000 A 
ATOM     10  C   UNL     1      -5.050  11.903  18.955  0.00  0.00    +0.000 A 
ATOM     11  C   UNL     1      -3.662  11.954  19.114  0.00  0.00    +0.000 A 
ATOM     12  C   UNL     1      -2.768  11.660  18.056  0.00  0.00    +0.000 A 
BRANCH   7  14
ATOM     13  C   UNL     1      -3.078  10.106  14.820  0.00  0.00    +0.000 C 
ATOM     14  O   UNL     1      -2.536  11.060  15.732  0.00  0.00    +0.000 OA
ENDBRANCH   7  14
ENDBRANCH   1  12
BRANCH   5  15
ATOM     15  C   UNL     1       1.552   9.068  18.884  0.00  0.00    +0.000 A 
ATOM     16  C   UNL     1       2.372   8.601  17.826  0.00  0.00    +0.000 A 
ATOM     17  C   UNL     1       3.022   7.364  17.864  0.00  0.00    +0.000 A 
ATOM     18  C   UNL     1       2.898   6.557  18.981  0.00  0.00    +0.000 A 
ATOM     19  C   UNL     1       2.143   6.997  20.064  0.00  0.00    +0.000 A 
ATOM     20  C   UNL     1       1.480   8.239  20.035  0.00  0.00    +0.000 A 
BRANCH  20  21
ATOM     21  O   UNL     1       0.682   8.636  21.083  0.00  0.00    +0.000 OA
ATOM     22  C   UNL     1       1.350   9.151  22.232  0.00  0.00    +0.000 C 
ENDBRANCH  20  21
ENDBRANCH   5  15
TORSDOF 4
ENDMDL
MODEL 7
REMARK VINA RESULT:      -7.1      2.353      7.376
REMARK  Name = 
REMARK  6 active torsions:
REMARK  status: ('A' for Active; 'I' for Inactive)
REMARK    1  A    between atoms: C_1  and  O_2
REMARK    2  A    between atoms: O_2  and  C_3
REMARK    3  A    between atoms: C_8  and  C_9
REMARK    4  A    between atoms: C_13  and  C_14
REMARK    5  A    between atoms: C_19  and  O_20
REMARK    6  A    between atoms: O_20  and  C_21
REMARK                            x       y       z     vdW  Elec       q    Type
REMARK                         _______ _______ _______ _____ _____    ______ ____
ROOT
ATOM      1  C   UNL     1       1.034   9.447  19.408  0.00  0.00    +0.000 A 
ATOM      2  C   UNL     1       0.768   8.962  20.695  0.00  0.00    +0.000 A 
ATOM      3  C   UNL     1       1.298   7.752  21.136  0.00  0.00    +0.000 A 
ATOM      4  C   UNL     1       2.105   6.988  20.291  0.00  0.00    +0.000 A 
ATOM      5  C   UNL     1       2.388   7.385  18.972  0.00  0.00    +0.000 A 
ATOM      6  C   UNL     1       1.826   8.617  18.568  0.00  0.00    +0.000 A 
ENDROOT
BRANCH   1  12
ATOM      7  C   UNL     1      -0.799  11.013  18.485  0.00  0.00    +0.000 A 
ATOM      8  C   UNL     1      -1.211  12.311  18.128  0.00  0.00    +0.000 A 
ATOM      9  C   UNL     1      -0.324  13.380  18.163  0.00  0.00    +0.000 A 
ATOM     10  C   UNL     1       0.990  13.162  18.546  0.00  0.00    +0.000 A 
ATOM     11  C   UNL     1       1.407  11.880  18.916  0.00  0.00    +0.000 A 
ATOM     12  C   UNL     1       0.527  10.771  18.926  0.00  0.00    +0.000 A 
BRANCH   7  14
ATOM     13  C   UNL     1      -2.534   9.918  17.319  0.00  0.00    +0.000 C 
ATOM     14  O   UNL     1      -1.705   9.977  18.479  0.00  0.00    +0.000 OA
ENDBRANCH   7  14
ENDBRANCH   1  12
BRANCH   5  15
ATOM     15  C   UNL     1       3.238   6.530  18.072  0.00  0.00    +0.000 A 
ATOM     16  C   UNL     1       4.297   7.138  17.351  0.00  0.00    +0.000 A 
ATOM     17  C   UNL     1       5.078   6.440  16.426  0.00  0.00    +0.000 A 
ATOM     18  C   UNL     1       4.847   5.093  16.210  0.00  0.00    +0.000 A 
ATOM     19  C   UNL     1       3.850   4.444  16.931  0.00  0.00    +0.000 A 
ATOM     20  C   UNL     1       3.053   5.138  17.862  0.00  0.00    +0.000 A 
BRANCH  20  21
ATOM     21  O   UNL     1       2.027   4.503  18.522  0.00  0.00    +0.000 OA
ATOM     22  C   UNL     1       1.802   3.136  18.185  0.00  0.00    +0.000 C 
ENDBRANCH  20  21
ENDBRANCH   5  15
TORSDOF 4
ENDMDL
MODEL 8
REMARK VINA RESULT:      -7.1      1.717      3.225
REMARK  Name = 
REMARK  6 active torsions:
REMARK  status: ('A' for Active; 'I' for Inactive)
REMARK    1  A    between atoms: C_1  and  O_2
REMARK    2  A    between atoms: O_2  and  C_3
REMARK    3  A    between atoms: C_8  and  C_9
REMARK    4  A    between atoms: C_13  and  C_14
REMARK    5  A    between atoms: C_19  and  O_20
REMARK    6  A    between atoms: O_20  and  C_21
REMARK                            x       y       z     vdW  Elec       q    Type
REMARK                         _______ _______ _______ _____ _____    ______ ____
ROOT
ATOM      1  C   UNL     1       2.439   6.572  18.862  0.00  0.00    +0.000 A 
ATOM      2  C   UNL     1       2.814   7.314  17.735  0.00  0.00    +0.000 A 
ATOM      3  C   UNL     1       2.533   8.675  17.640  0.00  0.00    +0.000 A 
ATOM      4  C   UNL     1       1.858   9.328  18.672  0.00  0.00    +0.000 A 
ATOM      5  C   UNL     1       1.413   8.647  19.819  0.00  0.00    +0.000 A 
ATOM      6  C   UNL     1       1.717   7.268  19.870  0.00  0.00    +0.000 A 
ENDROOT
BRANCH   1  12
ATOM      7  C   UNL     1       4.069   4.626  19.336  0.00  0.00    +0.000 A 
ATOM      8  C   UNL     1       4.278   3.250  19.549  0.00  0.00    +0.000 A 
ATOM      9  C   UNL     1       3.237   2.338  19.417  0.00  0.00    +0.000 A 
ATOM     10  C   UNL     1       1.976   2.791  19.062  0.00  0.00    +0.000 A 
ATOM     11  C   UNL     1       1.754   4.157  18.863  0.00  0.00    +0.000 A 
ATOM     12  C   UNL     1       2.778   5.122  19.020  0.00  0.00    +0.000 A 
BRANCH   7  14
ATOM     13  C   UNL     1       6.292   5.194  18.784  0.00  0.00    +0.000 C 
ATOM     14  O   UNL     1       5.106   5.515  19.510  0.00  0.00    +0.000 OA
ENDBRANCH   7  14
ENDBRANCH   1  12
BRANCH   5  15
ATOM     15  C   UNL     1       0.663   9.368  20.905  0.00  0.00    +0.000 A 
ATOM     16  C   UNL     1       0.852   8.965  22.252  0.00  0.00    +0.000 A 
ATOM     17  C   UNL     1       0.131   9.517  23.314  0.00  0.00    +0.000 A 
ATOM     18  C   UNL     1      -0.790  10.520  23.071  0.00  0.00    +0.000 A 
ATOM     19  C   UNL     1      -0.974  10.981  21.770  0.00  0.00    +0.000 A 
ATOM     20  C   UNL     1      -0.257  10.428  20.692  0.00  0.00    +0.000 A 
BRANCH  20  21
ATOM     21  O   UNL     1      -0.494  10.845  19.402  0.00  0.00    +0.000 OA
ATOM     22  C   UNL     1      -1.688  11.592  19.183  0.00  0.00    +0.000 C 
ENDBRANCH  20  21
ENDBRANCH   5  15
TORSDOF 4
ENDMDL
MODEL 9
REMARK VINA RESULT:      -7.1      2.951      5.209
REMARK  Name = 
REMARK  6 active torsions:
REMARK  status: ('A' for Active; 'I' for Inactive)
REMARK    1  A    between atoms: C_1  and  O_2
REMARK    2  A    between atoms: O_2  and  C_3
REMARK    3  A    between atoms: C_8  and  C_9
REMARK    4  A    between atoms: C_13  and  C_14
REMARK    5  A    between atoms: C_19  and  O_20
REMARK    6  A    between atoms: O_20  and  C_21
REMARK                            x       y       z     vdW  Elec       q    Type
REMARK                         _______ _______ _______ _____ _____    ______ ____
ROOT
ATOM      1  C   UNL     1       6.034   4.723  15.859  0.00  0.00    +0.000 A 
ATOM      2  C   UNL     1       7.151   5.178  16.571  0.00  0.00    +0.000 A 
ATOM      3  C   UNL     1       7.083   5.431  17.939  0.00  0.00    +0.000 A 
ATOM      4  C   UNL     1       5.885   5.243  18.630  0.00  0.00    +0.000 A 
ATOM      5  C   UNL     1       4.709   4.826  17.982  0.00  0.00    +0.000 A 
ATOM      6  C   UNL     1       4.825   4.585  16.594  0.00  0.00    +0.000 A 
ENDROOT
BRANCH   1  12
ATOM      7  C   UNL     1       7.130   4.788  13.522  0.00  0.00    +0.000 A 
ATOM      8  C   UNL     1       7.146   4.354  12.183  0.00  0.00    +0.000 A 
ATOM      9  C   UNL     1       6.128   3.553  11.677  0.00  0.00    +0.000 A 
ATOM     10  C   UNL     1       5.077   3.185  12.502  0.00  0.00    +0.000 A 
ATOM     11  C   UNL     1       5.059   3.599  13.838  0.00  0.00    +0.000 A 
ATOM     12  C   UNL     1       6.092   4.386  14.401  0.00  0.00    +0.000 A 
BRANCH   7  14
ATOM     13  C   UNL     1       9.067   6.038  13.018  0.00  0.00    +0.000 C 
ATOM     14  O   UNL     1       8.167   5.549  14.012  0.00  0.00    +0.000 OA
ENDBRANCH   7  14
ENDBRANCH   1  12
BRANCH   5  15
ATOM     15  C   UNL     1       3.423   4.657  18.744  0.00  0.00    +0.000 A 
ATOM     16  C   UNL     1       3.013   5.685  19.631  0.00  0.00    +0.000 A 
ATOM     17  C   UNL     1       1.882   5.574  20.445  0.00  0.00    +0.000 A 
ATOM     18  C   UNL     1       1.097   4.436  20.378  0.00  0.00    +0.000 A 
ATOM     19  C   UNL     1       1.434   3.423  19.486  0.00  0.00    +0.000 A 
ATOM     20  C   UNL     1       2.574   3.521  18.666  0.00  0.00    +0.000 A 
BRANCH  20  21
ATOM     21  O   UNL     1       2.935   2.486  17.835  0.00  0.00    +0.000 OA
ATOM     22  C   UNL     1       3.594   1.379  18.446  0.00  0.00    +0.000 C 
ENDBRANCH  20  21
ENDBRANCH   5  15
TORSDOF 4
ENDMDL
