MODEL 1
REMARK VINA RESULT:      -7.2      0.000      0.000
REMARK  Name = 
REMARK  4 active torsions:
REMARK  status: ('A' for Active; 'I' for Inactive)
REMARK    1  A    between atoms: C_2  and  C_3
REMARK    2  A    between atoms: C_3  and  N_4
REMARK    3  A    between atoms: C_14  and  C_15
REMARK    4  A    between atoms: C_15  and  C_16
REMARK                            x       y       z     vdW  Elec       q    Type
REMARK                         _______ _______ _______ _____ _____    ______ ____
ROOT
ATOM      1  O   UNL     1       3.309   4.087  20.399  0.00  0.00    +0.000 OA
ATOM      2  C   UNL     1       3.096   5.029  19.625  0.00  0.00    +0.000 C 
ATOM      3  N   UNL     1       2.453   6.128  20.120  0.00  0.00    +0.000 N 
ATOM      4  C   UNL     1       2.224   7.285  19.430  0.00  0.00    +0.000 A 
ATOM      5  N   UNL     1       2.693   7.616  18.263  0.00  0.00    +0.000 NA
ATOM      6  C   UNL     1       2.264   8.877  17.928  0.00  0.00    +0.000 A 
ATOM      7  C   UNL     1       1.465   9.496  18.867  0.00  0.00    +0.000 A 
ATOM      8  S   UNL     1       1.259   8.443  20.216  0.00  0.00    +0.000 S 
ATOM      9  H   UNL     1       2.144   6.074  21.073  0.00  0.00    +0.000 HD
ENDROOT
BRANCH   2  10
ATOM     10  C   UNL     1       3.505   4.920  18.149  0.00  0.00    +0.000 C 
BRANCH  10  11
ATOM     11  N   UNL     1       4.901   4.438  18.009  0.00  0.00    +0.000 NA
ATOM     12  C   UNL     1       5.896   5.460  18.406  0.00  0.00    +0.000 C 
ATOM     13  C   UNL     1       5.989   6.651  17.434  0.00  0.00    +0.000 C 
ATOM     14  O   UNL     1       6.245   6.218  16.093  0.00  0.00    +0.000 OA
ATOM     15  C   UNL     1       5.251   5.284  15.654  0.00  0.00    +0.000 C 
ATOM     16  C   UNL     1       5.173   4.071  16.598  0.00  0.00    +0.000 C 
ENDBRANCH  10  11
ENDBRANCH   2  10
BRANCH   7  17
ATOM     17  C   UNL     1       0.852  10.858  18.806  0.00  0.00    +0.000 C 
BRANCH  17  18
ATOM     18  C   UNL     1      -0.641  10.812  18.556  0.00  0.00    +0.000 A 
ATOM     19  C   UNL     1      -1.112   9.943  17.553  0.00  0.00    +0.000 A 
ATOM     20  C   UNL     1      -2.464   9.899  17.216  0.00  0.00    +0.000 A 
ATOM     21  C   UNL     1      -3.370  10.722  17.878  0.00  0.00    +0.000 A 
ATOM     22  C   UNL     1      -2.932  11.580  18.889  0.00  0.00    +0.000 A 
ATOM     23 CL   UNL     1      -4.130  12.557  19.669  0.00  0.00    +0.000 Cl
ATOM     24  C   UNL     1      -1.570  11.631  19.234  0.00  0.00    +0.000 A 
ATOM     25 CL   UNL     1      -1.038  12.694  20.500  0.00  0.00    +0.000 Cl
ENDBRANCH  17  18
ENDBRANCH   7  17
TORSDOF 4
ENDMDL
MODEL 2
REMARK VINA RESULT:      -7.2      4.716      8.106
REMARK  Name = 
REMARK  4 active torsions:
REMARK  status: ('A' for Active; 'I' for Inactive)
REMARK    1  A    between atoms: C_2  and  C_3
REMARK    2  A    between atoms: C_3  and  N_4
REMARK    3  A    between atoms: C_14  and  C_15
REMARK    4  A    between atoms: C_15  and  C_16
REMARK                            x       y       z     vdW  Elec       q    Type
REMARK                         _______ _______ _______ _____ _____    ______ ____
ROOT
ATOM      1  O   UNL     1       0.077  10.319  23.023  0.00  0.00    +0.000 OA
ATOM      2  C   UNL     1       0.568  10.164  21.897  0.00  0.00    +0.000 C 
ATOM      3  N   UNL     1       1.003   8.915  21.557  0.00  0.00    +0.000 N 
ATOM      4  C   UNL     1       1.481   8.552  20.330  0.00  0.00    +0.000 A 
ATOM      5  N   UNL     1       1.470   9.258  19.237  0.00  0.00    +0.000 NA
ATOM      6  C   UNL     1       2.008   8.529  18.206  0.00  0.00    +0.000 A 
ATOM      7  C   UNL     1       2.421   7.255  18.537  0.00  0.00    +0.000 A 
ATOM      8  S   UNL     1       2.111   6.978  20.210  0.00  0.00    +0.000 S 
ATOM      9  H   UNL     1       0.945   8.211  22.271  0.00  0.00    +0.000 HD
ENDROOT
BRANCH   2  10
ATOM     10  C   UNL     1       0.720  11.365  20.952  0.00  0.00    +0.000 C 
BRANCH  10  11
ATOM     11  N   UNL     1      -0.535  12.153  20.874  0.00  0.00    +0.000 NA
ATOM     12  C   UNL     1      -1.461  11.643  19.836  0.00  0.00    +0.000 C 
ATOM     13  C   UNL     1      -0.975  11.881  18.395  0.00  0.00    +0.000 C 
ATOM     14  O   UNL     1      -0.692  13.266  18.156  0.00  0.00    +0.000 OA
ATOM     15  C   UNL     1       0.262  13.767  19.100  0.00  0.00    +0.000 C 
ATOM     16  C   UNL     1      -0.228  13.566  20.545  0.00  0.00    +0.000 C 
ENDBRANCH  10  11
ENDBRANCH   2  10
BRANCH   7  17
ATOM     17  C   UNL     1       3.032   6.220  17.648  0.00  0.00    +0.000 C 
BRANCH  17  18
ATOM     18  C   UNL     1       2.830   4.813  18.171  0.00  0.00    +0.000 A 
ATOM     19  C   UNL     1       1.595   4.188  17.915  0.00  0.00    +0.000 A 
ATOM     20  C   UNL     1       1.309   2.924  18.425  0.00  0.00    +0.000 A 
ATOM     21  C   UNL     1       2.255   2.259  19.200  0.00  0.00    +0.000 A 
ATOM     22  C   UNL     1       3.495   2.848  19.454  0.00  0.00    +0.000 A 
ATOM     23 CL   UNL     1       4.617   1.943  20.413  0.00  0.00    +0.000 Cl
ATOM     24  C   UNL     1       3.791   4.125  18.943  0.00  0.00    +0.000 A 
ATOM     25 CL   UNL     1       5.341   4.843  19.256  0.00  0.00    +0.000 Cl
ENDBRANCH  17  18
ENDBRANCH   7  17
TORSDOF 4
ENDMDL
MODEL 3
REMARK VINA RESULT:      -7.0      4.991      8.088
REMARK  Name = 
REMARK  4 active torsions:
REMARK  status: ('A' for Active; 'I' for Inactive)
REMARK    1  A    between atoms: C_2  and  C_3
REMARK    2  A    between atoms: C_3  and  N_4
REMARK    3  A    between atoms: C_14  and  C_15
REMARK    4  A    between atoms: C_15  and  C_16
REMARK                            x       y       z     vdW  Elec       q    Type
REMARK                         _______ _______ _______ _____ _____    ______ ____
ROOT
ATOM      1  O   UNL     1      -0.214  10.558  22.934  0.00  0.00    +0.000 OA
ATOM      2  C   UNL     1       0.278  10.409  21.808  0.00  0.00    +0.000 C 
ATOM      3  N   UNL     1       0.844   9.202  21.513  0.00  0.00    +0.000 N 
ATOM      4  C   UNL     1       1.345   8.842  20.294  0.00  0.00    +0.000 A 
ATOM      5  N   UNL     1       1.242   9.494  19.173  0.00  0.00    +0.000 NA
ATOM      6  C   UNL     1       1.846   8.785  18.164  0.00  0.00    +0.000 A 
ATOM      7  C   UNL     1       2.401   7.580  18.541  0.00  0.00    +0.000 A 
ATOM      8  S   UNL     1       2.144   7.343  20.229  0.00  0.00    +0.000 S 
ATOM      9  H   UNL     1       0.874   8.528  22.256  0.00  0.00    +0.000 HD
ENDROOT
BRANCH   2  10
ATOM     10  C   UNL     1       0.284  11.578  20.811  0.00  0.00    +0.000 C 
BRANCH  10  11
ATOM     11  N   UNL     1       1.177  12.671  21.266  0.00  0.00    +0.000 NA
ATOM     12  C   UNL     1       0.431  13.893  21.646  0.00  0.00    +0.000 C 
ATOM     13  C   UNL     1      -0.209  14.629  20.454  0.00  0.00    +0.000 C 
ATOM     14  O   UNL     1       0.761  14.945  19.448  0.00  0.00    +0.000 OA
ATOM     15  C   UNL     1       1.447  13.768  19.005  0.00  0.00    +0.000 C 
ATOM     16  C   UNL     1       2.121  13.042  20.183  0.00  0.00    +0.000 C 
ENDBRANCH  10  11
ENDBRANCH   2  10
BRANCH   7  17
ATOM     17  C   UNL     1       3.113   6.582  17.685  0.00  0.00    +0.000 C 
BRANCH  17  18
ATOM     18  C   UNL     1       2.869   5.155  18.133  0.00  0.00    +0.000 A 
ATOM     19  C   UNL     1       1.628   4.571  17.817  0.00  0.00    +0.000 A 
ATOM     20  C   UNL     1       1.304   3.289  18.257  0.00  0.00    +0.000 A 
ATOM     21  C   UNL     1       2.216   2.567  19.021  0.00  0.00    +0.000 A 
ATOM     22  C   UNL     1       3.461   3.116  19.334  0.00  0.00    +0.000 A 
ATOM     23 CL   UNL     1       4.540   2.143  20.275  0.00  0.00    +0.000 Cl
ATOM     24  C   UNL     1       3.796   4.410  18.894  0.00  0.00    +0.000 A 
ATOM     25 CL   UNL     1       5.351   5.079  19.279  0.00  0.00    +0.000 Cl
ENDBRANCH  17  18
ENDBRANCH   7  17
TORSDOF 4
ENDMDL
MODEL 4
REMARK VINA RESULT:      -6.8      1.592      3.195
REMARK  Name = 
REMARK  4 active torsions:
REMARK  status: ('A' for Active; 'I' for Inactive)
REMARK    1  A    between atoms: C_2  and  C_3
REMARK    2  A    between atoms: C_3  and  N_4
REMARK    3  A    between atoms: C_14  and  C_15
REMARK    4  A    between atoms: C_15  and  C_16
REMARK                            x       y       z     vdW  Elec       q    Type
REMARK                         _______ _______ _______ _____ _____    ______ ____
ROOT
ATOM      1  O   UNL     1       4.267   4.962  17.001  0.00  0.00    +0.000 OA
ATOM      2  C   UNL     1       3.708   5.569  17.923  0.00  0.00    +0.000 C 
ATOM      3  N   UNL     1       3.229   6.822  17.665  0.00  0.00    +0.000 N 
ATOM      4  C   UNL     1       2.508   7.587  18.537  0.00  0.00    +0.000 A 
ATOM      5  N   UNL     1       2.018   7.225  19.687  0.00  0.00    +0.000 NA
ATOM      6  C   UNL     1       1.323   8.270  20.246  0.00  0.00    +0.000 A 
ATOM      7  C   UNL     1       1.292   9.426  19.495  0.00  0.00    +0.000 A 
ATOM      8  S   UNL     1       2.169   9.174  18.033  0.00  0.00    +0.000 S 
ATOM      9  H   UNL     1       3.414   7.191  16.750  0.00  0.00    +0.000 HD
ENDROOT
BRANCH   2  10
ATOM     10  C   UNL     1       3.615   4.933  19.318  0.00  0.00    +0.000 C 
BRANCH  10  11
ATOM     11  N   UNL     1       3.202   3.511  19.237  0.00  0.00    +0.000 NA
ATOM     12  C   UNL     1       1.771   3.354  18.891  0.00  0.00    +0.000 C 
ATOM     13  C   UNL     1       0.807   3.787  20.012  0.00  0.00    +0.000 C 
ATOM     14  O   UNL     1       1.088   3.105  21.241  0.00  0.00    +0.000 OA
ATOM     15  C   UNL     1       2.450   3.303  21.641  0.00  0.00    +0.000 C 
ATOM     16  C   UNL     1       3.424   2.841  20.543  0.00  0.00    +0.000 C 
ENDBRANCH  10  11
ENDBRANCH   2  10
BRANCH   7  17
ATOM     17  C   UNL     1       0.618  10.721  19.819  0.00  0.00    +0.000 C 
BRANCH  17  18
ATOM     18  C   UNL     1      -0.753  10.837  19.184  0.00  0.00    +0.000 A 
ATOM     19  C   UNL     1      -0.954  10.212  17.938  0.00  0.00    +0.000 A 
ATOM     20  C   UNL     1      -2.164  10.335  17.260  0.00  0.00    +0.000 A 
ATOM     21  C   UNL     1      -3.197  11.084  17.815  0.00  0.00    +0.000 A 
ATOM     22  C   UNL     1      -3.031  11.699  19.058  0.00  0.00    +0.000 A 
ATOM     23 CL   UNL     1      -4.373  12.598  19.680  0.00  0.00    +0.000 Cl
ATOM     24  C   UNL     1      -1.811  11.581  19.749  0.00  0.00    +0.000 A 
ATOM     25 CL   UNL     1      -1.619  12.340  21.298  0.00  0.00    +0.000 Cl
ENDBRANCH  17  18
ENDBRANCH   7  17
TORSDOF 4
ENDMDL
MODEL 5
REMARK VINA RESULT:      -6.8      1.152      1.360
REMARK  Name = 
REMARK  4 active torsions:
REMARK  status: ('A' for Active; 'I' for Inactive)
REMARK    1  A    between atoms: C_2  and  C_3
REMARK    2  A    between atoms: C_3  and  N_4
REMARK    3  A    between atoms: C_14  and  C_15
REMARK    4  A    between atoms: C_15  and  C_16
REMARK                            x       y       z     vdW  Elec       q    Type
REMARK                         _______ _______ _______ _____ _____    ______ ____
ROOT
ATOM      1  O   UNL     1       2.368   4.462  21.570  0.00  0.00    +0.000 OA
ATOM      2  C   UNL     1       2.276   5.329  20.690  0.00  0.00    +0.000 C 
ATOM      3  N   UNL     1       1.670   6.508  21.017  0.00  0.00    +0.000 N 
ATOM      4  C   UNL     1       1.570   7.598  20.199  0.00  0.00    +0.000 A 
ATOM      5  N   UNL     1       2.148   7.777  19.047  0.00  0.00    +0.000 NA
ATOM      6  C   UNL     1       1.828   9.017  18.553  0.00  0.00    +0.000 A 
ATOM      7  C   UNL     1       1.002   9.777  19.356  0.00  0.00    +0.000 A 
ATOM      8  S   UNL     1       0.626   8.885  20.783  0.00  0.00    +0.000 S 
ATOM      9  H   UNL     1       1.287   6.573  21.943  0.00  0.00    +0.000 HD
ENDROOT
BRANCH   2  10
ATOM     10  C   UNL     1       2.788   5.041  19.271  0.00  0.00    +0.000 C 
BRANCH  10  11
ATOM     11  N   UNL     1       4.247   4.773  19.267  0.00  0.00    +0.000 NA
ATOM     12  C   UNL     1       4.979   5.634  18.310  0.00  0.00    +0.000 C 
ATOM     13  C   UNL     1       4.701   5.301  16.832  0.00  0.00    +0.000 C 
ATOM     14  O   UNL     1       4.964   3.921  16.545  0.00  0.00    +0.000 OA
ATOM     15  C   UNL     1       4.208   3.062  17.407  0.00  0.00    +0.000 C 
ATOM     16  C   UNL     1       4.504   3.362  18.887  0.00  0.00    +0.000 C 
ENDBRANCH  10  11
ENDBRANCH   2  10
BRANCH   7  17
ATOM     17  C   UNL     1       0.486  11.157  19.108  0.00  0.00    +0.000 C 
BRANCH  17  18
ATOM     18  C   UNL     1      -1.004  11.180  18.837  0.00  0.00    +0.000 A 
ATOM     19  C   UNL     1      -1.490  10.394  17.775  0.00  0.00    +0.000 A 
ATOM     20  C   UNL     1      -2.837  10.420  17.420  0.00  0.00    +0.000 A 
ATOM     21  C   UNL     1      -3.724  11.230  18.122  0.00  0.00    +0.000 A 
ATOM     22  C   UNL     1      -3.272  12.006  19.192  0.00  0.00    +0.000 A 
ATOM     23 CL   UNL     1      -4.446  12.972  20.018  0.00  0.00    +0.000 Cl
ATOM     24  C   UNL     1      -1.913  11.987  19.556  0.00  0.00    +0.000 A 
ATOM     25 CL   UNL     1      -1.363  12.947  20.894  0.00  0.00    +0.000 Cl
ENDBRANCH  17  18
ENDBRANCH   7  17
TORSDOF 4
ENDMDL
MODEL 6
REMARK VINA RESULT:      -6.7      1.918      3.366
REMARK  Name = 
REMARK  4 active torsions:
REMARK  status: ('A' for Active; 'I' for Inactive)
REMARK    1  A    between atoms: C_2  and  C_3
REMARK    2  A    between atoms: C_3  and  N_4
REMARK    3  A    between atoms: C_14  and  C_15
REMARK    4  A    between atoms: C_15  and  C_16
REMARK                            x       y       z     vdW  Elec       q    Type
REMARK                         _______ _______ _______ _____ _____    ______ ____
ROOT
ATOM      1  O   UNL     1       4.457   5.302  16.709  0.00  0.00    +0.000 OA
ATOM      2  C   UNL     1       3.929   5.623  17.782  0.00  0.00    +0.000 C 
ATOM      3  N   UNL     1       3.256   6.810  17.831  0.00  0.00    +0.000 N 
ATOM      4  C   UNL     1       2.541   7.269  18.902  0.00  0.00    +0.000 A 
ATOM      5  N   UNL     1       2.241   6.619  19.988  0.00  0.00    +0.000 NA
ATOM      6  C   UNL     1       1.478   7.412  20.810  0.00  0.00    +0.000 A 
ATOM      7  C   UNL     1       1.202   8.672  20.322  0.00  0.00    +0.000 A 
ATOM      8  S   UNL     1       1.932   8.850  18.770  0.00  0.00    +0.000 S 
ATOM      9  H   UNL     1       3.282   7.375  17.001  0.00  0.00    +0.000 HD
ENDROOT
BRANCH   2  10
ATOM     10  C   UNL     1       4.085   4.723  19.016  0.00  0.00    +0.000 C 
BRANCH  10  11
ATOM     11  N   UNL     1       3.771   3.308  18.696  0.00  0.00    +0.000 NA
ATOM     12  C   UNL     1       2.395   3.136  18.175  0.00  0.00    +0.000 C 
ATOM     13  C   UNL     1       1.297   3.359  19.231  0.00  0.00    +0.000 C 
ATOM     14  O   UNL     1       1.491   2.522  20.379  0.00  0.00    +0.000 OA
ATOM     15  C   UNL     1       2.790   2.725  20.950  0.00  0.00    +0.000 C 
ATOM     16  C   UNL     1       3.898   2.471  19.914  0.00  0.00    +0.000 C 
ENDBRANCH  10  11
ENDBRANCH   2  10
BRANCH   7  17
ATOM     17  C   UNL     1       0.398   9.757  20.964  0.00  0.00    +0.000 C 
BRANCH  17  18
ATOM     18  C   UNL     1      -0.261  10.669  19.950  0.00  0.00    +0.000 A 
ATOM     19  C   UNL     1      -1.230  10.108  19.095  0.00  0.00    +0.000 A 
ATOM     20  C   UNL     1      -1.827  10.866  18.091  0.00  0.00    +0.000 A 
ATOM     21  C   UNL     1      -1.468  12.200  17.923  0.00  0.00    +0.000 A 
ATOM     22  C   UNL     1      -0.524  12.786  18.768  0.00  0.00    +0.000 A 
ATOM     23 CL   UNL     1      -0.149  14.454  18.497  0.00  0.00    +0.000 Cl
ATOM     24  C   UNL     1       0.085  12.027  19.784  0.00  0.00    +0.000 A 
ATOM     25 CL   UNL     1       1.250  12.769  20.837  0.00  0.00    +0.000 Cl
ENDBRANCH  17  18
ENDBRANCH   7  17
TORSDOF 4
ENDMDL
MODEL 7
REMARK VINA RESULT:      -6.7      1.953      2.374
REMARK  Name = 
REMARK  4 active torsions:
REMARK  status: ('A' for Active; 'I' for Inactive)
REMARK    1  A    between atoms: C_2  and  C_3
REMARK    2  A    between atoms: C_3  and  N_4
REMARK    3  A    between atoms: C_14  and  C_15
REMARK    4  A    between atoms: C_15  and  C_16
REMARK                            x       y       z     vdW  Elec       q    Type
REMARK                         _______ _______ _______ _____ _____    ______ ____
ROOT
ATOM      1  O   UNL     1       2.532   4.539  21.646  0.00  0.00    +0.000 OA
ATOM      2  C   UNL     1       2.450   5.367  20.730  0.00  0.00    +0.000 C 
ATOM      3  N   UNL     1       1.741   6.511  20.964  0.00  0.00    +0.000 N 
ATOM      4  C   UNL     1       1.630   7.562  20.098  0.00  0.00    +0.000 A 
ATOM      5  N   UNL     1       2.283   7.744  18.988  0.00  0.00    +0.000 NA
ATOM      6  C   UNL     1       1.917   8.941  18.423  0.00  0.00    +0.000 A 
ATOM      7  C   UNL     1       0.981   9.665  19.131  0.00  0.00    +0.000 A 
ATOM      8  S   UNL     1       0.556   8.797  20.558  0.00  0.00    +0.000 S 
ATOM      9  H   UNL     1       1.282   6.578  21.854  0.00  0.00    +0.000 HD
ENDROOT
BRANCH   2  10
ATOM     10  C   UNL     1       3.090   5.070  19.366  0.00  0.00    +0.000 C 
BRANCH  10  11
ATOM     11  N   UNL     1       2.118   4.441  18.438  0.00  0.00    +0.000 NA
ATOM     12  C   UNL     1       1.449   3.261  19.033  0.00  0.00    +0.000 C 
ATOM     13  C   UNL     1       2.376   2.046  19.219  0.00  0.00    +0.000 C 
ATOM     14  O   UNL     1       3.013   1.676  17.989  0.00  0.00    +0.000 OA
ATOM     15  C   UNL     1       3.733   2.780  17.429  0.00  0.00    +0.000 C 
ATOM     16  C   UNL     1       2.809   3.990  17.206  0.00  0.00    +0.000 C 
ENDBRANCH  10  11
ENDBRANCH   2  10
BRANCH   7  17
ATOM     17  C   UNL     1       0.392  10.996  18.791  0.00  0.00    +0.000 C 
BRANCH  17  18
ATOM     18  C   UNL     1      -1.081  10.908  18.447  0.00  0.00    +0.000 A 
ATOM     19  C   UNL     1      -1.461  10.042  17.404  0.00  0.00    +0.000 A 
ATOM     20  C   UNL     1      -2.787   9.962  16.982  0.00  0.00    +0.000 A 
ATOM     21  C   UNL     1      -3.758  10.746  17.598  0.00  0.00    +0.000 A 
ATOM     22  C   UNL     1      -3.412  11.600  18.647  0.00  0.00    +0.000 A 
ATOM     23 CL   UNL     1      -4.686  12.526  19.365  0.00  0.00    +0.000 Cl
ATOM     24  C   UNL     1      -2.075  11.687  19.077  0.00  0.00    +0.000 A 
ATOM     25 CL   UNL     1      -1.657  12.744  20.390  0.00  0.00    +0.000 Cl
ENDBRANCH  17  18
ENDBRANCH   7  17
TORSDOF 4
ENDMDL
MODEL 8
REMARK VINA RESULT:      -6.6      1.774      2.438
REMARK  Name = 
REMARK  4 active torsions:
REMARK  status: ('A' for Active; 'I' for Inactive)
REMARK    1  A    between atoms: C_2  and  C_3
REMARK    2  A    between atoms: C_3  and  N_4
REMARK    3  A    between atoms: C_14  and  C_15
REMARK    4  A    between atoms: C_15  and  C_16
REMARK                            x       y       z     vdW  Elec       q    Type
REMARK                         _______ _______ _______ _____ _____    ______ ____
ROOT
ATOM      1  O   UNL     1       2.137   3.717  21.806  0.00  0.00    +0.000 OA
ATOM      2  C   UNL     1       2.101   4.411  20.782  0.00  0.00    +0.000 C 
ATOM      3  N   UNL     1       1.957   5.761  20.930  0.00  0.00    +0.000 N 
ATOM      4  C   UNL     1       1.992   6.675  19.915  0.00  0.00    +0.000 A 
ATOM      5  N   UNL     1       2.316   6.465  18.673  0.00  0.00    +0.000 NA
ATOM      6  C   UNL     1       2.265   7.645  17.972  0.00  0.00    +0.000 A 
ATOM      7  C   UNL     1       1.904   8.753  18.709  0.00  0.00    +0.000 A 
ATOM      8  S   UNL     1       1.624   8.278  20.343  0.00  0.00    +0.000 S 
ATOM      9  H   UNL     1       1.833   6.097  21.868  0.00  0.00    +0.000 HD
ENDROOT
BRANCH   2  10
ATOM     10  C   UNL     1       2.166   3.746  19.399  0.00  0.00    +0.000 C 
BRANCH  10  11
ATOM     11  N   UNL     1       3.317   2.816  19.300  0.00  0.00    +0.000 NA
ATOM     12  C   UNL     1       4.583   3.428  19.766  0.00  0.00    +0.000 C 
ATOM     13  C   UNL     1       5.123   4.528  18.833  0.00  0.00    +0.000 C 
ATOM     14  O   UNL     1       5.279   4.051  17.490  0.00  0.00    +0.000 OA
ATOM     15  C   UNL     1       4.046   3.521  16.986  0.00  0.00    +0.000 C 
ATOM     16  C   UNL     1       3.514   2.396  17.891  0.00  0.00    +0.000 C 
ENDBRANCH  10  11
ENDBRANCH   2  10
BRANCH   7  17
ATOM     17  C   UNL     1       1.769  10.168  18.246  0.00  0.00    +0.000 C 
BRANCH  17  18
ATOM     18  C   UNL     1       0.705  10.930  19.009  0.00  0.00    +0.000 A 
ATOM     19  C   UNL     1       1.110  11.675  20.132  0.00  0.00    +0.000 A 
ATOM     20  C   UNL     1       0.179  12.343  20.925  0.00  0.00    +0.000 A 
ATOM     21  C   UNL     1      -1.175  12.279  20.609  0.00  0.00    +0.000 A 
ATOM     22  C   UNL     1      -1.602  11.561  19.489  0.00  0.00    +0.000 A 
ATOM     23 CL   UNL     1      -3.301  11.548  19.161  0.00  0.00    +0.000 Cl
ATOM     24  C   UNL     1      -0.668  10.884  18.684  0.00  0.00    +0.000 A 
ATOM     25 CL   UNL     1      -1.209  10.004  17.288  0.00  0.00    +0.000 Cl
ENDBRANCH  17  18
ENDBRANCH   7  17
TORSDOF 4
ENDMDL
MODEL 9
REMARK VINA RESULT:      -6.6      4.863      8.390
REMARK  Name = 
REMARK  4 active torsions:
REMARK  status: ('A' for Active; 'I' for Inactive)
REMARK    1  A    between atoms: C_2  and  C_3
REMARK    2  A    between atoms: C_3  and  N_4
REMARK    3  A    between atoms: C_14  and  C_15
REMARK    4  A    between atoms: C_15  and  C_16
REMARK                            x       y       z     vdW  Elec       q    Type
REMARK                         _______ _______ _______ _____ _____    ______ ____
ROOT
ATOM      1  O   UNL     1      -1.643  12.058  17.285  0.00  0.00    +0.000 OA
ATOM      2  C   UNL     1      -1.171  11.318  18.158  0.00  0.00    +0.000 C 
ATOM      3  N   UNL     1      -0.193  10.439  17.789  0.00  0.00    +0.000 N 
ATOM      4  C   UNL     1       0.496   9.622  18.641  0.00  0.00    +0.000 A 
ATOM      5  N   UNL     1       0.468   9.632  19.941  0.00  0.00    +0.000 NA
ATOM      6  C   UNL     1       1.328   8.682  20.433  0.00  0.00    +0.000 A 
ATOM      7  C   UNL     1       2.012   7.956  19.480  0.00  0.00    +0.000 A 
ATOM      8  S   UNL     1       1.548   8.503  17.913  0.00  0.00    +0.000 S 
ATOM      9  H   UNL     1       0.041  10.413  16.813  0.00  0.00    +0.000 HD
ENDROOT
BRANCH   2  10
ATOM     10  C   UNL     1      -1.722  11.370  19.590  0.00  0.00    +0.000 C 
BRANCH  10  11
ATOM     11  N   UNL     1      -1.809  12.766  20.085  0.00  0.00    +0.000 NA
ATOM     12  C   UNL     1      -0.493  13.446  20.098  0.00  0.00    +0.000 C 
ATOM     13  C   UNL     1       0.477  12.906  21.165  0.00  0.00    +0.000 C 
ATOM     14  O   UNL     1      -0.104  12.947  22.475  0.00  0.00    +0.000 OA
ATOM     15  C   UNL     1      -1.344  12.229  22.510  0.00  0.00    +0.000 C 
ATOM     16  C   UNL     1      -2.335  12.783  21.472  0.00  0.00    +0.000 C 
ENDBRANCH  10  11
ENDBRANCH   2  10
BRANCH   7  17
ATOM     17  C   UNL     1       3.016   6.869  19.691  0.00  0.00    +0.000 C 
BRANCH  17  18
ATOM     18  C   UNL     1       2.410   5.486  19.562  0.00  0.00    +0.000 A 
ATOM     19  C   UNL     1       1.494   5.076  20.549  0.00  0.00    +0.000 A 
ATOM     20  C   UNL     1       0.951   3.793  20.538  0.00  0.00    +0.000 A 
ATOM     21  C   UNL     1       1.312   2.896  19.537  0.00  0.00    +0.000 A 
ATOM     22  C   UNL     1       2.205   3.283  18.535  0.00  0.00    +0.000 A 
ATOM     23 CL   UNL     1       2.586   2.109  17.322  0.00  0.00    +0.000 Cl
ATOM     24  C   UNL     1       2.759   4.576  18.540  0.00  0.00    +0.000 A 
ATOM     25 CL   UNL     1       3.859   5.050  17.283  0.00  0.00    +0.000 Cl
ENDBRANCH  17  18
ENDBRANCH   7  17
TORSDOF 4
ENDMDL
