MODEL 1
REMARK VINA RESULT:      -8.2      0.000      0.000
REMARK  Name = 
REMARK  5 active torsions:
REMARK  status: ('A' for Active; 'I' for Inactive)
REMARK    1  A    between atoms: C_1  and  N_2
REMARK    2  A    between atoms: N_2  and  C_3
REMARK    3  A    between atoms: C_3  and  C_4
REMARK    4  A    between atoms: C_7  and  C_8
REMARK    5  A    between atoms: C_14  and  C_16
REMARK                            x       y       z     vdW  Elec       q    Type
REMARK                         _______ _______ _______ _____ _____    ______ ____
ROOT
ATOM      1  C   UNL     1       4.069   7.493  17.399  0.00  0.00    +0.000 C 
ATOM      2  N   UNL     1       3.917   6.309  18.245  0.00  0.00    +0.000 N 
ATOM      3  C   UNL     1       2.592   5.880  18.470  0.00  0.00    +0.000 C 
ATOM      4  O   UNL     1       1.639   6.508  18.008  0.00  0.00    +0.000 OA
ENDROOT
BRANCH   3   5
ATOM      5  C   UNL     1       2.260   4.666  19.263  0.00  0.00    +0.000 A 
ATOM      6  C   UNL     1       1.852   4.758  20.596  0.00  0.00    +0.000 A 
ATOM      7  F   UNL     1       1.665   5.944  21.182  0.00  0.00    +0.000 F 
ATOM      8  C   UNL     1       1.553   3.631  21.364  0.00  0.00    +0.000 A 
ATOM      9  C   UNL     1       1.546   2.374  20.782  0.00  0.00    +0.000 A 
ATOM     10  C   UNL     1       1.850   2.255  19.428  0.00  0.00    +0.000 A 
ATOM     11  C   UNL     1       2.224   3.382  18.673  0.00  0.00    +0.000 A 
ATOM     12 CL   UNL     1       2.623   3.072  17.020  0.00  0.00    +0.000 Cl
ENDBRANCH   3   5
BRANCH   2  13
ATOM     13  C   UNL     1       5.125   5.580  18.678  0.00  0.00    +0.000 C 
BRANCH  13  14
ATOM     14  C   UNL     1       6.076   5.166  17.612  0.00  0.00    +0.000 A 
ATOM     15  N   UNL     1       7.333   4.793  17.734  0.00  0.00    +0.000 NA
ATOM     16  N   UNL     1       7.768   4.484  16.465  0.00  0.00    +0.000 NA
ATOM     17  C   UNL     1       6.747   4.678  15.651  0.00  0.00    +0.000 A 
ATOM     18  O   UNL     1       5.624   5.105  16.325  0.00  0.00    +0.000 OA
BRANCH  17  19
ATOM     19  C   UNL     1       6.811   4.510  14.233  0.00  0.00    +0.000 A 
ATOM     20  C   UNL     1       6.181   3.560  13.446  0.00  0.00    +0.000 A 
ATOM     21  C   UNL     1       6.616   3.763  12.114  0.00  0.00    +0.000 A 
ATOM     22  C   UNL     1       7.464   4.842  12.153  0.00  0.00    +0.000 A 
ATOM     23  O   UNL     1       7.587   5.304  13.422  0.00  0.00    +0.000 OA
ENDBRANCH  17  19
ENDBRANCH  13  14
ENDBRANCH   2  13
TORSDOF 4
ENDMDL
MODEL 2
REMARK VINA RESULT:      -8.0      2.779      5.901
REMARK  Name = 
REMARK  5 active torsions:
REMARK  status: ('A' for Active; 'I' for Inactive)
REMARK    1  A    between atoms: C_1  and  N_2
REMARK    2  A    between atoms: N_2  and  C_3
REMARK    3  A    between atoms: C_3  and  C_4
REMARK    4  A    between atoms: C_7  and  C_8
REMARK    5  A    between atoms: C_14  and  C_16
REMARK                            x       y       z     vdW  Elec       q    Type
REMARK                         _______ _______ _______ _____ _____    ______ ____
ROOT
ATOM      1  C   UNL     1       5.725   3.792  16.436  0.00  0.00    +0.000 C 
ATOM      2  N   UNL     1       4.872   4.026  17.601  0.00  0.00    +0.000 N 
ATOM      3  C   UNL     1       3.954   3.000  17.908  0.00  0.00    +0.000 C 
ATOM      4  O   UNL     1       3.866   1.999  17.196  0.00  0.00    +0.000 OA
ENDROOT
BRANCH   3   5
ATOM      5  C   UNL     1       3.048   3.052  19.086  0.00  0.00    +0.000 A 
ATOM      6  C   UNL     1       3.455   2.585  20.338  0.00  0.00    +0.000 A 
ATOM      7  F   UNL     1       4.702   2.151  20.541  0.00  0.00    +0.000 F 
ATOM      8  C   UNL     1       2.615   2.607  21.453  0.00  0.00    +0.000 A 
ATOM      9  C   UNL     1       1.369   3.207  21.373  0.00  0.00    +0.000 A 
ATOM     10  C   UNL     1       0.969   3.775  20.165  0.00  0.00    +0.000 A 
ATOM     11  C   UNL     1       1.785   3.685  19.022  0.00  0.00    +0.000 A 
ATOM     12 CL   UNL     1       1.133   4.389  17.584  0.00  0.00    +0.000 Cl
ENDBRANCH   3   5
BRANCH   2  13
ATOM     13  C   UNL     1       5.116   5.218  18.437  0.00  0.00    +0.000 C 
BRANCH  13  14
ATOM     14  C   UNL     1       4.101   6.303  18.369  0.00  0.00    +0.000 A 
ATOM     15  N   UNL     1       3.779   7.063  17.342  0.00  0.00    +0.000 NA
ATOM     16  N   UNL     1       2.770   7.890  17.776  0.00  0.00    +0.000 NA
ATOM     17  C   UNL     1       2.531   7.578  19.037  0.00  0.00    +0.000 A 
ATOM     18  O   UNL     1       3.344   6.556  19.477  0.00  0.00    +0.000 OA
BRANCH  17  19
ATOM     19  C   UNL     1       1.577   8.249  19.862  0.00  0.00    +0.000 A 
ATOM     20  C   UNL     1       1.124   7.896  21.123  0.00  0.00    +0.000 A 
ATOM     21  C   UNL     1       0.130   8.835  21.489  0.00  0.00    +0.000 A 
ATOM     22  C   UNL     1       0.048   9.726  20.448  0.00  0.00    +0.000 A 
ATOM     23  O   UNL     1       0.916   9.386  19.464  0.00  0.00    +0.000 OA
ENDBRANCH  17  19
ENDBRANCH  13  14
ENDBRANCH   2  13
TORSDOF 4
ENDMDL
MODEL 3
REMARK VINA RESULT:      -7.9      1.718      2.642
REMARK  Name = 
REMARK  5 active torsions:
REMARK  status: ('A' for Active; 'I' for Inactive)
REMARK    1  A    between atoms: C_1  and  N_2
REMARK    2  A    between atoms: N_2  and  C_3
REMARK    3  A    between atoms: C_3  and  C_4
REMARK    4  A    between atoms: C_7  and  C_8
REMARK    5  A    between atoms: C_14  and  C_16
REMARK                            x       y       z     vdW  Elec       q    Type
REMARK                         _______ _______ _______ _____ _____    ______ ____
ROOT
ATOM      1  C   UNL     1       3.525   1.753  17.897  0.00  0.00    +0.000 C 
ATOM      2  N   UNL     1       3.530   3.095  18.482  0.00  0.00    +0.000 N 
ATOM      3  C   UNL     1       2.280   3.747  18.537  0.00  0.00    +0.000 C 
ATOM      4  O   UNL     1       1.270   3.214  18.074  0.00  0.00    +0.000 OA
ENDROOT
BRANCH   3   5
ATOM      5  C   UNL     1       2.097   5.092  19.144  0.00  0.00    +0.000 A 
ATOM      6  C   UNL     1       1.537   5.246  20.414  0.00  0.00    +0.000 A 
ATOM      7  F   UNL     1       1.223   4.186  21.165  0.00  0.00    +0.000 F 
ATOM      8  C   UNL     1       1.339   6.500  20.996  0.00  0.00    +0.000 A 
ATOM      9  C   UNL     1       1.802   7.642  20.363  0.00  0.00    +0.000 A 
ATOM     10  C   UNL     1       2.457   7.517  19.139  0.00  0.00    +0.000 A 
ATOM     11  C   UNL     1       2.589   6.260  18.519  0.00  0.00    +0.000 A 
ATOM     12 CL   UNL     1       3.377   6.270  16.980  0.00  0.00    +0.000 Cl
ENDBRANCH   3   5
BRANCH   2  13
ATOM     13  C   UNL     1       4.776   3.607  19.085  0.00  0.00    +0.000 C 
BRANCH  13  14
ATOM     14  C   UNL     1       5.815   4.112  18.148  0.00  0.00    +0.000 A 
ATOM     15  N   UNL     1       6.973   4.673  18.432  0.00  0.00    +0.000 NA
ATOM     16  N   UNL     1       7.579   4.937  17.226  0.00  0.00    +0.000 NA
ATOM     17  C   UNL     1       6.759   4.513  16.282  0.00  0.00    +0.000 A 
ATOM     18  O   UNL     1       5.612   3.960  16.807  0.00  0.00    +0.000 OA
BRANCH  17  19
ATOM     19  C   UNL     1       7.010   4.651  14.882  0.00  0.00    +0.000 A 
ATOM     20  C   UNL     1       6.349   4.051  13.822  0.00  0.00    +0.000 A 
ATOM     21  C   UNL     1       7.014   4.446  12.636  0.00  0.00    +0.000 A 
ATOM     22  C   UNL     1       8.025   5.287  13.031  0.00  0.00    +0.000 A 
ATOM     23  O   UNL     1       8.031   5.422  14.380  0.00  0.00    +0.000 OA
ENDBRANCH  17  19
ENDBRANCH  13  14
ENDBRANCH   2  13
TORSDOF 4
ENDMDL
MODEL 4
REMARK VINA RESULT:      -7.7      0.881      1.045
REMARK  Name = 
REMARK  5 active torsions:
REMARK  status: ('A' for Active; 'I' for Inactive)
REMARK    1  A    between atoms: C_1  and  N_2
REMARK    2  A    between atoms: N_2  and  C_3
REMARK    3  A    between atoms: C_3  and  C_4
REMARK    4  A    between atoms: C_7  and  C_8
REMARK    5  A    between atoms: C_14  and  C_16
REMARK                            x       y       z     vdW  Elec       q    Type
REMARK                         _______ _______ _______ _____ _____    ______ ____
ROOT
ATOM      1  C   UNL     1       4.231   7.435  17.318  0.00  0.00    +0.000 C 
ATOM      2  N   UNL     1       4.079   6.218  18.117  0.00  0.00    +0.000 N 
ATOM      3  C   UNL     1       2.775   5.946  18.581  0.00  0.00    +0.000 C 
ATOM      4  O   UNL     1       1.849   6.724  18.351  0.00  0.00    +0.000 OA
ENDROOT
BRANCH   3   5
ATOM      5  C   UNL     1       2.434   4.727  19.362  0.00  0.00    +0.000 A 
ATOM      6  C   UNL     1       2.134   4.797  20.724  0.00  0.00    +0.000 A 
ATOM      7  F   UNL     1       2.061   5.972  21.357  0.00  0.00    +0.000 F 
ATOM      8  C   UNL     1       1.829   3.663  21.481  0.00  0.00    +0.000 A 
ATOM      9  C   UNL     1       1.705   2.429  20.866  0.00  0.00    +0.000 A 
ATOM     10  C   UNL     1       1.899   2.338  19.488  0.00  0.00    +0.000 A 
ATOM     11  C   UNL     1       2.279   3.467  18.739  0.00  0.00    +0.000 A 
ATOM     12 CL   UNL     1       2.533   3.190  17.052  0.00  0.00    +0.000 Cl
ENDBRANCH   3   5
BRANCH   2  13
ATOM     13  C   UNL     1       5.233   5.310  18.261  0.00  0.00    +0.000 C 
BRANCH  13  14
ATOM     14  C   UNL     1       6.018   5.021  17.031  0.00  0.00    +0.000 A 
ATOM     15  N   UNL     1       7.316   5.135  16.841  0.00  0.00    +0.000 NA
ATOM     16  N   UNL     1       7.554   4.723  15.550  0.00  0.00    +0.000 NA
ATOM     17  C   UNL     1       6.388   4.376  15.036  0.00  0.00    +0.000 A 
ATOM     18  O   UNL     1       5.360   4.531  15.940  0.00  0.00    +0.000 OA
BRANCH  17  19
ATOM     19  C   UNL     1       6.206   3.934  13.689  0.00  0.00    +0.000 A 
ATOM     20  C   UNL     1       7.157   3.784  12.693  0.00  0.00    +0.000 A 
ATOM     21  C   UNL     1       6.474   3.392  11.517  0.00  0.00    +0.000 A 
ATOM     22  C   UNL     1       5.149   3.295  11.863  0.00  0.00    +0.000 A 
ATOM     23  O   UNL     1       4.975   3.615  13.169  0.00  0.00    +0.000 OA
ENDBRANCH  17  19
ENDBRANCH  13  14
ENDBRANCH   2  13
TORSDOF 4
ENDMDL
MODEL 5
REMARK VINA RESULT:      -7.7      1.697      2.027
REMARK  Name = 
REMARK  5 active torsions:
REMARK  status: ('A' for Active; 'I' for Inactive)
REMARK    1  A    between atoms: C_1  and  N_2
REMARK    2  A    between atoms: N_2  and  C_3
REMARK    3  A    between atoms: C_3  and  C_4
REMARK    4  A    between atoms: C_7  and  C_8
REMARK    5  A    between atoms: C_14  and  C_16
REMARK                            x       y       z     vdW  Elec       q    Type
REMARK                         _______ _______ _______ _____ _____    ______ ____
ROOT
ATOM      1  C   UNL     1       3.444   7.839  17.826  0.00  0.00    +0.000 C 
ATOM      2  N   UNL     1       3.618   6.470  18.313  0.00  0.00    +0.000 N 
ATOM      3  C   UNL     1       2.529   5.598  18.100  0.00  0.00    +0.000 C 
ATOM      4  O   UNL     1       1.492   6.002  17.574  0.00  0.00    +0.000 OA
ENDROOT
BRANCH   3   5
ATOM      5  C   UNL     1       2.557   4.163  18.486  0.00  0.00    +0.000 A 
ATOM      6  C   UNL     1       3.012   3.181  17.603  0.00  0.00    +0.000 A 
ATOM      7  F   UNL     1       3.517   3.505  16.409  0.00  0.00    +0.000 F 
ATOM      8  C   UNL     1       3.029   1.825  17.938  0.00  0.00    +0.000 A 
ATOM      9  C   UNL     1       2.694   1.420  19.219  0.00  0.00    +0.000 A 
ATOM     10  C   UNL     1       2.331   2.384  20.158  0.00  0.00    +0.000 A 
ATOM     11  C   UNL     1       2.242   3.742  19.799  0.00  0.00    +0.000 A 
ATOM     12 CL   UNL     1       1.730   4.812  21.056  0.00  0.00    +0.000 Cl
ENDBRANCH   3   5
BRANCH   2  13
ATOM     13  C   UNL     1       4.931   6.065  18.851  0.00  0.00    +0.000 C 
BRANCH  13  14
ATOM     14  C   UNL     1       5.901   5.484  17.885  0.00  0.00    +0.000 A 
ATOM     15  N   UNL     1       7.022   4.839  18.135  0.00  0.00    +0.000 NA
ATOM     16  N   UNL     1       7.541   4.481  16.913  0.00  0.00    +0.000 NA
ATOM     17  C   UNL     1       6.702   4.922  15.994  0.00  0.00    +0.000 A 
ATOM     18  O   UNL     1       5.619   5.566  16.552  0.00  0.00    +0.000 OA
BRANCH  17  19
ATOM     19  C   UNL     1       6.912   4.789  14.587  0.00  0.00    +0.000 A 
ATOM     20  C   UNL     1       6.297   3.921  13.699  0.00  0.00    +0.000 A 
ATOM     21  C   UNL     1       6.898   4.122  12.432  0.00  0.00    +0.000 A 
ATOM     22  C   UNL     1       7.825   5.119  12.607  0.00  0.00    +0.000 A 
ATOM     23  O   UNL     1       7.841   5.532  13.898  0.00  0.00    +0.000 OA
ENDBRANCH  17  19
ENDBRANCH  13  14
ENDBRANCH   2  13
TORSDOF 4
ENDMDL
MODEL 6
REMARK VINA RESULT:      -7.7      2.826      6.084
REMARK  Name = 
REMARK  5 active torsions:
REMARK  status: ('A' for Active; 'I' for Inactive)
REMARK    1  A    between atoms: C_1  and  N_2
REMARK    2  A    between atoms: N_2  and  C_3
REMARK    3  A    between atoms: C_3  and  C_4
REMARK    4  A    between atoms: C_7  and  C_8
REMARK    5  A    between atoms: C_14  and  C_16
REMARK                            x       y       z     vdW  Elec       q    Type
REMARK                         _______ _______ _______ _____ _____    ______ ____
ROOT
ATOM      1  C   UNL     1       5.543   4.161  16.457  0.00  0.00    +0.000 C 
ATOM      2  N   UNL     1       4.708   4.333  17.647  0.00  0.00    +0.000 N 
ATOM      3  C   UNL     1       3.850   3.257  17.958  0.00  0.00    +0.000 C 
ATOM      4  O   UNL     1       3.794   2.265  17.230  0.00  0.00    +0.000 OA
ENDROOT
BRANCH   3   5
ATOM      5  C   UNL     1       2.972   3.245  19.158  0.00  0.00    +0.000 A 
ATOM      6  C   UNL     1       1.672   3.752  19.114  0.00  0.00    +0.000 A 
ATOM      7  F   UNL     1       1.140   4.190  17.969  0.00  0.00    +0.000 F 
ATOM      8  C   UNL     1       0.837   3.767  20.233  0.00  0.00    +0.000 A 
ATOM      9  C   UNL     1       1.245   3.167  21.413  0.00  0.00    +0.000 A 
ATOM     10  C   UNL     1       2.499   2.561  21.464  0.00  0.00    +0.000 A 
ATOM     11  C   UNL     1       3.368   2.612  20.359  0.00  0.00    +0.000 A 
ATOM     12 CL   UNL     1       4.909   1.862  20.589  0.00  0.00    +0.000 Cl
ENDBRANCH   3   5
BRANCH   2  13
ATOM     13  C   UNL     1       4.913   5.521  18.498  0.00  0.00    +0.000 C 
BRANCH  13  14
ATOM     14  C   UNL     1       3.879   6.588  18.421  0.00  0.00    +0.000 A 
ATOM     15  N   UNL     1       3.551   7.338  17.390  0.00  0.00    +0.000 NA
ATOM     16  N   UNL     1       2.523   8.149  17.815  0.00  0.00    +0.000 NA
ATOM     17  C   UNL     1       2.283   7.835  19.075  0.00  0.00    +0.000 A 
ATOM     18  O   UNL     1       3.111   6.830  19.523  0.00  0.00    +0.000 OA
BRANCH  17  19
ATOM     19  C   UNL     1       1.311   8.491  19.892  0.00  0.00    +0.000 A 
ATOM     20  C   UNL     1       0.629   9.672  19.645  0.00  0.00    +0.000 A 
ATOM     21  C   UNL     1      -0.167   9.942  20.784  0.00  0.00    +0.000 A 
ATOM     22  C   UNL     1       0.046   8.901  21.652  0.00  0.00    +0.000 A 
ATOM     23  O   UNL     1       0.931   8.018  21.125  0.00  0.00    +0.000 OA
ENDBRANCH  17  19
ENDBRANCH  13  14
ENDBRANCH   2  13
TORSDOF 4
ENDMDL
MODEL 7
REMARK VINA RESULT:      -7.6      2.462      3.018
REMARK  Name = 
REMARK  5 active torsions:
REMARK  status: ('A' for Active; 'I' for Inactive)
REMARK    1  A    between atoms: C_1  and  N_2
REMARK    2  A    between atoms: N_2  and  C_3
REMARK    3  A    between atoms: C_3  and  C_4
REMARK    4  A    between atoms: C_7  and  C_8
REMARK    5  A    between atoms: C_14  and  C_16
REMARK                            x       y       z     vdW  Elec       q    Type
REMARK                         _______ _______ _______ _____ _____    ______ ____
ROOT
ATOM      1  C   UNL     1       7.316   5.865  18.931  0.00  0.00    +0.000 C 
ATOM      2  N   UNL     1       6.034   5.506  18.323  0.00  0.00    +0.000 N 
ATOM      3  C   UNL     1       5.201   4.668  19.093  0.00  0.00    +0.000 C 
ATOM      4  O   UNL     1       5.574   4.242  20.188  0.00  0.00    +0.000 OA
ENDROOT
BRANCH   3   5
ATOM      5  C   UNL     1       3.845   4.248  18.649  0.00  0.00    +0.000 A 
ATOM      6  C   UNL     1       3.579   2.929  18.274  0.00  0.00    +0.000 A 
ATOM      7  F   UNL     1       4.511   1.978  18.381  0.00  0.00    +0.000 F 
ATOM      8  C   UNL     1       2.318   2.517  17.836  0.00  0.00    +0.000 A 
ATOM      9  C   UNL     1       1.249   3.397  17.868  0.00  0.00    +0.000 A 
ATOM     10  C   UNL     1       1.456   4.695  18.332  0.00  0.00    +0.000 A 
ATOM     11  C   UNL     1       2.742   5.130  18.702  0.00  0.00    +0.000 A 
ATOM     12 CL   UNL     1       2.852   6.780  19.208  0.00  0.00    +0.000 Cl
ENDBRANCH   3   5
BRANCH   2  13
ATOM     13  C   UNL     1       5.647   6.138  17.047  0.00  0.00    +0.000 C 
BRANCH  13  14
ATOM     14  C   UNL     1       6.225   5.553  15.807  0.00  0.00    +0.000 A 
ATOM     15  N   UNL     1       7.459   5.641  15.356  0.00  0.00    +0.000 NA
ATOM     16  N   UNL     1       7.497   4.909  14.193  0.00  0.00    +0.000 NA
ATOM     17  C   UNL     1       6.287   4.412  14.011  0.00  0.00    +0.000 A 
ATOM     18  O   UNL     1       5.423   4.778  15.019  0.00  0.00    +0.000 OA
BRANCH  17  19
ATOM     19  C   UNL     1       5.906   3.627  12.880  0.00  0.00    +0.000 A 
ATOM     20  C   UNL     1       4.705   3.632  12.188  0.00  0.00    +0.000 A 
ATOM     21  C   UNL     1       4.788   2.627  11.195  0.00  0.00    +0.000 A 
ATOM     22  C   UNL     1       6.042   2.081  11.312  0.00  0.00    +0.000 A 
ATOM     23  O   UNL     1       6.727   2.677  12.320  0.00  0.00    +0.000 OA
ENDBRANCH  17  19
ENDBRANCH  13  14
ENDBRANCH   2  13
TORSDOF 4
ENDMDL
MODEL 8
REMARK VINA RESULT:      -7.6      1.660      1.950
REMARK  Name = 
REMARK  5 active torsions:
REMARK  status: ('A' for Active; 'I' for Inactive)
REMARK    1  A    between atoms: C_1  and  N_2
REMARK    2  A    between atoms: N_2  and  C_3
REMARK    3  A    between atoms: C_3  and  C_4
REMARK    4  A    between atoms: C_7  and  C_8
REMARK    5  A    between atoms: C_14  and  C_16
REMARK                            x       y       z     vdW  Elec       q    Type
REMARK                         _______ _______ _______ _____ _____    ______ ____
ROOT
ATOM      1  C   UNL     1       4.230   7.742  17.399  0.00  0.00    +0.000 C 
ATOM      2  N   UNL     1       3.946   6.436  17.996  0.00  0.00    +0.000 N 
ATOM      3  C   UNL     1       2.581   6.106  18.132  0.00  0.00    +0.000 C 
ATOM      4  O   UNL     1       1.703   6.904  17.802  0.00  0.00    +0.000 OA
ENDROOT
BRANCH   3   5
ATOM      5  C   UNL     1       2.117   4.800  18.671  0.00  0.00    +0.000 A 
ATOM      6  C   UNL     1       2.234   3.623  17.927  0.00  0.00    +0.000 A 
ATOM      7  F   UNL     1       2.845   3.615  16.739  0.00  0.00    +0.000 F 
ATOM      8  C   UNL     1       1.788   2.390  18.406  0.00  0.00    +0.000 A 
ATOM      9  C   UNL     1       1.308   2.278  19.700  0.00  0.00    +0.000 A 
ATOM     10  C   UNL     1       1.270   3.414  20.507  0.00  0.00    +0.000 A 
ATOM     11  C   UNL     1       1.650   4.670  19.999  0.00  0.00    +0.000 A 
ATOM     12 CL   UNL     1       1.499   5.994  21.100  0.00  0.00    +0.000 Cl
ENDBRANCH   3   5
BRANCH   2  13
ATOM     13  C   UNL     1       5.069   5.520  18.277  0.00  0.00    +0.000 C 
BRANCH  13  14
ATOM     14  C   UNL     1       5.956   5.177  17.134  0.00  0.00    +0.000 A 
ATOM     15  N   UNL     1       7.273   5.161  17.094  0.00  0.00    +0.000 NA
ATOM     16  N   UNL     1       7.614   4.752  15.826  0.00  0.00    +0.000 NA
ATOM     17  C   UNL     1       6.486   4.536  15.174  0.00  0.00    +0.000 A 
ATOM     18  O   UNL     1       5.382   4.778  15.961  0.00  0.00    +0.000 OA
BRANCH  17  19
ATOM     19  C   UNL     1       6.417   4.141  13.802  0.00  0.00    +0.000 A 
ATOM     20  C   UNL     1       5.402   3.459  13.149  0.00  0.00    +0.000 A 
ATOM     21  C   UNL     1       5.833   3.241  11.818  0.00  0.00    +0.000 A 
ATOM     22  C   UNL     1       7.072   3.826  11.721  0.00  0.00    +0.000 A 
ATOM     23  O   UNL     1       7.432   4.374  12.907  0.00  0.00    +0.000 OA
ENDBRANCH  17  19
ENDBRANCH  13  14
ENDBRANCH   2  13
TORSDOF 4
ENDMDL
MODEL 9
REMARK VINA RESULT:      -7.5      2.494      3.041
REMARK  Name = 
REMARK  5 active torsions:
REMARK  status: ('A' for Active; 'I' for Inactive)
REMARK    1  A    between atoms: C_1  and  N_2
REMARK    2  A    between atoms: N_2  and  C_3
REMARK    3  A    between atoms: C_3  and  C_4
REMARK    4  A    between atoms: C_7  and  C_8
REMARK    5  A    between atoms: C_14  and  C_16
REMARK                            x       y       z     vdW  Elec       q    Type
REMARK                         _______ _______ _______ _____ _____    ______ ____
ROOT
ATOM      1  C   UNL     1       6.600   4.950  19.424  0.00  0.00    +0.000 C 
ATOM      2  N   UNL     1       5.211   4.705  19.032  0.00  0.00    +0.000 N 
ATOM      3  C   UNL     1       4.616   3.545  19.570  0.00  0.00    +0.000 C 
ATOM      4  O   UNL     1       5.262   2.779  20.287  0.00  0.00    +0.000 OA
ENDROOT
BRANCH   3   5
ATOM      5  C   UNL     1       3.199   3.173  19.317  0.00  0.00    +0.000 A 
ATOM      6  C   UNL     1       2.864   2.137  18.440  0.00  0.00    +0.000 A 
ATOM      7  F   UNL     1       3.808   1.389  17.863  0.00  0.00    +0.000 F 
ATOM      8  C   UNL     1       1.540   1.784  18.173  0.00  0.00    +0.000 A 
ATOM      9  C   UNL     1       0.505   2.388  18.867  0.00  0.00    +0.000 A 
ATOM     10  C   UNL     1       0.807   3.356  19.823  0.00  0.00    +0.000 A 
ATOM     11  C   UNL     1       2.137   3.764  20.038  0.00  0.00    +0.000 A 
ATOM     12 CL   UNL     1       2.351   5.010  21.217  0.00  0.00    +0.000 Cl
ENDBRANCH   3   5
BRANCH   2  13
ATOM     13  C   UNL     1       4.502   5.728  18.240  0.00  0.00    +0.000 C 
BRANCH  13  14
ATOM     14  C   UNL     1       4.883   5.849  16.807  0.00  0.00    +0.000 A 
ATOM     15  N   UNL     1       5.060   6.943  16.095  0.00  0.00    +0.000 NA
ATOM     16  N   UNL     1       5.431   6.527  14.837  0.00  0.00    +0.000 NA
ATOM     17  C   UNL     1       5.467   5.207  14.862  0.00  0.00    +0.000 A 
ATOM     18  O   UNL     1       5.137   4.707  16.103  0.00  0.00    +0.000 OA
BRANCH  17  19
ATOM     19  C   UNL     1       5.767   4.392  13.728  0.00  0.00    +0.000 A 
ATOM     20  C   UNL     1       6.981   4.225  13.081  0.00  0.00    +0.000 A 
ATOM     21  C   UNL     1       6.750   3.376  11.971  0.00  0.00    +0.000 A 
ATOM     22  C   UNL     1       5.418   3.048  12.015  0.00  0.00    +0.000 A 
ATOM     23  O   UNL     1       4.816   3.650  13.070  0.00  0.00    +0.000 OA
ENDBRANCH  17  19
ENDBRANCH  13  14
ENDBRANCH   2  13
TORSDOF 4
ENDMDL
