MODEL 1
REMARK VINA RESULT:      -8.1      0.000      0.000
REMARK  Name = 
REMARK  8 active torsions:
REMARK  status: ('A' for Active; 'I' for Inactive)
REMARK    1  A    between atoms: C_1  and  C_2
REMARK    2  A    between atoms: C_2  and  O_3
REMARK    3  A    between atoms: O_3  and  C_4
REMARK    4  A    between atoms: C_10  and  C_11
REMARK    5  A    between atoms: C_11  and  C_12
REMARK    6  A    between atoms: C_18  and  O_19
REMARK    7  A    between atoms: O_19  and  C_20
REMARK    8  A    between atoms: C_20  and  C_21
REMARK                            x       y       z     vdW  Elec       q    Type
REMARK                         _______ _______ _______ _____ _____    ______ ____
ROOT
ATOM      1  C   UNL     1       4.977   4.421  16.754  0.00  0.00    +0.000 C 
ENDROOT
BRANCH   1   8
ATOM      2  C   UNL     1       5.636   3.358  12.156  0.00  0.00    +0.000 A 
ATOM      3  C   UNL     1       6.873   3.815  11.703  0.00  0.00    +0.000 A 
ATOM      4  C   UNL     1       7.698   4.586  12.516  0.00  0.00    +0.000 A 
ATOM      5  C   UNL     1       7.265   4.862  13.821  0.00  0.00    +0.000 A 
ATOM      6  N   UNL     1       7.872   5.589  14.810  0.00  0.00    +0.000 N 
ATOM      7  C   UNL     1       7.128   5.542  15.958  0.00  0.00    +0.000 A 
ATOM      8  C   UNL     1       5.991   4.798  15.716  0.00  0.00    +0.000 A 
ATOM      9  C   UNL     1       6.051   4.395  14.330  0.00  0.00    +0.000 A 
ATOM     10  C   UNL     1       5.213   3.664  13.462  0.00  0.00    +0.000 A 
ATOM     11  H   UNL     1       8.759   6.066  14.715  0.00  0.00    +0.000 HD
BRANCH   2  12
ATOM     12  O   UNL     1       4.764   2.605  11.417  0.00  0.00    +0.000 OA
BRANCH  12  14
ATOM     13  C   UNL     1       3.364   3.942  10.022  0.00  0.00    +0.000 C 
ATOM     14  C   UNL     1       3.440   3.129  11.297  0.00  0.00    +0.000 C 
ENDBRANCH  12  14
ENDBRANCH   2  12
ENDBRANCH   1   8
BRANCH   1  15
ATOM     15  C   UNL     1       4.303   5.574  17.436  0.00  0.00    +0.000 A 
ATOM     16  C   UNL     1       4.151   6.846  16.916  0.00  0.00    +0.000 A 
ATOM     17  N   UNL     1       3.337   7.563  17.750  0.00  0.00    +0.000 N 
ATOM     18  C   UNL     1       2.934   6.780  18.806  0.00  0.00    +0.000 A 
ATOM     19  C   UNL     1       2.035   7.060  19.842  0.00  0.00    +0.000 A 
ATOM     20  C   UNL     1       1.768   6.042  20.766  0.00  0.00    +0.000 A 
ATOM     21  C   UNL     1       2.394   4.800  20.676  0.00  0.00    +0.000 A 
ATOM     22  C   UNL     1       3.300   4.549  19.634  0.00  0.00    +0.000 A 
ATOM     23  C   UNL     1       3.562   5.545  18.665  0.00  0.00    +0.000 A 
ATOM     24  H   UNL     1       3.009   8.502  17.576  0.00  0.00    +0.000 HD
BRANCH  21  25
ATOM     25  O   UNL     1       2.186   3.735  21.515  0.00  0.00    +0.000 OA
BRANCH  25  26
ATOM     26  C   UNL     1       1.767   2.512  20.911  0.00  0.00    +0.000 C 
ATOM     27  C   UNL     1       0.653   2.820  19.927  0.00  0.00    +0.000 C 
ENDBRANCH  25  26
ENDBRANCH  21  25
ENDBRANCH   1  15
TORSDOF 6
ENDMDL
MODEL 2
REMARK VINA RESULT:      -8.0      4.605      8.534
REMARK  Name = 
REMARK  8 active torsions:
REMARK  status: ('A' for Active; 'I' for Inactive)
REMARK    1  A    between atoms: C_1  and  C_2
REMARK    2  A    between atoms: C_2  and  O_3
REMARK    3  A    between atoms: O_3  and  C_4
REMARK    4  A    between atoms: C_10  and  C_11
REMARK    5  A    between atoms: C_11  and  C_12
REMARK    6  A    between atoms: C_18  and  O_19
REMARK    7  A    between atoms: O_19  and  C_20
REMARK    8  A    between atoms: C_20  and  C_21
REMARK                            x       y       z     vdW  Elec       q    Type
REMARK                         _______ _______ _______ _____ _____    ______ ____
ROOT
ATOM      1  C   UNL     1       1.868   9.084  17.732  0.00  0.00    +0.000 C 
ENDROOT
BRANCH   1   8
ATOM      2  C   UNL     1      -2.691  10.455  17.512  0.00  0.00    +0.000 A 
ATOM      3  C   UNL     1      -2.957  11.478  18.422  0.00  0.00    +0.000 A 
ATOM      4  C   UNL     1      -1.993  11.901  19.332  0.00  0.00    +0.000 A 
ATOM      5  C   UNL     1      -0.730  11.293  19.284  0.00  0.00    +0.000 A 
ATOM      6  N   UNL     1       0.380  11.516  20.056  0.00  0.00    +0.000 N 
ATOM      7  C   UNL     1       1.424  10.747  19.618  0.00  0.00    +0.000 A 
ATOM      8  C   UNL     1       0.991   9.976  18.558  0.00  0.00    +0.000 A 
ATOM      9  C   UNL     1      -0.406  10.291  18.367  0.00  0.00    +0.000 A 
ATOM     10  C   UNL     1      -1.423   9.845  17.496  0.00  0.00    +0.000 A 
ATOM     11  H   UNL     1       0.428  12.176  20.821  0.00  0.00    +0.000 HD
BRANCH   2  12
ATOM     12  O   UNL     1      -3.586   9.976  16.595  0.00  0.00    +0.000 OA
BRANCH  12  14
ATOM     13  C   UNL     1      -3.076  10.054  14.265  0.00  0.00    +0.000 C 
ATOM     14  C   UNL     1      -3.750  10.769  15.417  0.00  0.00    +0.000 C 
ENDBRANCH  12  14
ENDBRANCH   2  12
ENDBRANCH   1   8
BRANCH   1  15
ATOM     15  C   UNL     1       2.475   7.928  18.468  0.00  0.00    +0.000 A 
ATOM     16  C   UNL     1       2.039   7.418  19.677  0.00  0.00    +0.000 A 
ATOM     17  N   UNL     1       2.728   6.265  19.938  0.00  0.00    +0.000 N 
ATOM     18  C   UNL     1       3.602   5.994  18.911  0.00  0.00    +0.000 A 
ATOM     19  C   UNL     1       4.433   4.887  18.706  0.00  0.00    +0.000 A 
ATOM     20  C   UNL     1       5.190   4.848  17.527  0.00  0.00    +0.000 A 
ATOM     21  C   UNL     1       5.139   5.889  16.602  0.00  0.00    +0.000 A 
ATOM     22  C   UNL     1       4.306   6.994  16.837  0.00  0.00    +0.000 A 
ATOM     23  C   UNL     1       3.503   7.043  18.000  0.00  0.00    +0.000 A 
ATOM     24  H   UNL     1       2.562   5.656  20.724  0.00  0.00    +0.000 HD
BRANCH  21  25
ATOM     25  O   UNL     1       5.823   5.937  15.413  0.00  0.00    +0.000 OA
BRANCH  25  26
ATOM     26  C   UNL     1       6.669   4.827  15.114  0.00  0.00    +0.000 C 
ATOM     27  C   UNL     1       6.039   4.033  13.983  0.00  0.00    +0.000 C 
ENDBRANCH  25  26
ENDBRANCH  21  25
ENDBRANCH   1  15
TORSDOF 6
ENDMDL
MODEL 3
REMARK VINA RESULT:      -7.9      3.841      6.250
REMARK  Name = 
REMARK  8 active torsions:
REMARK  status: ('A' for Active; 'I' for Inactive)
REMARK    1  A    between atoms: C_1  and  C_2
REMARK    2  A    between atoms: C_2  and  O_3
REMARK    3  A    between atoms: O_3  and  C_4
REMARK    4  A    between atoms: C_10  and  C_11
REMARK    5  A    between atoms: C_11  and  C_12
REMARK    6  A    between atoms: C_18  and  O_19
REMARK    7  A    between atoms: O_19  and  C_20
REMARK    8  A    between atoms: C_20  and  C_21
REMARK                            x       y       z     vdW  Elec       q    Type
REMARK                         _______ _______ _______ _____ _____    ______ ____
ROOT
ATOM      1  C   UNL     1       2.352   6.954  19.840  0.00  0.00    +0.000 C 
ENDROOT
BRANCH   1   8
ATOM      2  C   UNL     1       5.894   6.138  16.759  0.00  0.00    +0.000 A 
ATOM      3  C   UNL     1       5.642   5.005  15.986  0.00  0.00    +0.000 A 
ATOM      4  C   UNL     1       4.536   4.197  16.232  0.00  0.00    +0.000 A 
ATOM      5  C   UNL     1       3.659   4.575  17.258  0.00  0.00    +0.000 A 
ATOM      6  N   UNL     1       2.516   3.965  17.703  0.00  0.00    +0.000 N 
ATOM      7  C   UNL     1       1.929   4.717  18.684  0.00  0.00    +0.000 A 
ATOM      8  C   UNL     1       2.713   5.829  18.917  0.00  0.00    +0.000 A 
ATOM      9  C   UNL     1       3.851   5.720  18.034  0.00  0.00    +0.000 A 
ATOM     10  C   UNL     1       5.012   6.486  17.798  0.00  0.00    +0.000 A 
ATOM     11  H   UNL     1       2.144   3.098  17.337  0.00  0.00    +0.000 HD
BRANCH   2  12
ATOM     12  O   UNL     1       6.962   6.976  16.588  0.00  0.00    +0.000 OA
BRANCH  12  14
ATOM     13  C   UNL     1       7.972   8.797  17.752  0.00  0.00    +0.000 C 
ATOM     14  C   UNL     1       7.683   7.312  17.775  0.00  0.00    +0.000 C 
ENDBRANCH  12  14
ENDBRANCH   2  12
ENDBRANCH   1   8
BRANCH   1  15
ATOM     15  C   UNL     1       1.875   8.204  19.164  0.00  0.00    +0.000 A 
ATOM     16  C   UNL     1       1.851   8.430  17.801  0.00  0.00    +0.000 A 
ATOM     17  N   UNL     1       1.190   9.604  17.564  0.00  0.00    +0.000 N 
ATOM     18  C   UNL     1       0.761  10.152  18.751  0.00  0.00    +0.000 A 
ATOM     19  C   UNL     1      -0.026  11.286  18.986  0.00  0.00    +0.000 A 
ATOM     20  C   UNL     1      -0.360  11.585  20.313  0.00  0.00    +0.000 A 
ATOM     21  C   UNL     1       0.098  10.797  21.369  0.00  0.00    +0.000 A 
ATOM     22  C   UNL     1       0.895   9.673  21.107  0.00  0.00    +0.000 A 
ATOM     23  C   UNL     1       1.217   9.325  19.775  0.00  0.00    +0.000 A 
ATOM     24  H   UNL     1       0.973   9.974  16.652  0.00  0.00    +0.000 HD
BRANCH  21  25
ATOM     25  O   UNL     1      -0.188  10.994  22.696  0.00  0.00    +0.000 OA
BRANCH  25  26
ATOM     26  C   UNL     1      -1.495  11.474  23.007  0.00  0.00    +0.000 C 
ATOM     27  C   UNL     1      -1.415  12.972  23.240  0.00  0.00    +0.000 C 
ENDBRANCH  25  26
ENDBRANCH  21  25
ENDBRANCH   1  15
TORSDOF 6
ENDMDL
MODEL 4
REMARK VINA RESULT:      -7.8      0.708      7.997
REMARK  Name = 
REMARK  8 active torsions:
REMARK  status: ('A' for Active; 'I' for Inactive)
REMARK    1  A    between atoms: C_1  and  C_2
REMARK    2  A    between atoms: C_2  and  O_3
REMARK    3  A    between atoms: O_3  and  C_4
REMARK    4  A    between atoms: C_10  and  C_11
REMARK    5  A    between atoms: C_11  and  C_12
REMARK    6  A    between atoms: C_18  and  O_19
REMARK    7  A    between atoms: O_19  and  C_20
REMARK    8  A    between atoms: C_20  and  C_21
REMARK                            x       y       z     vdW  Elec       q    Type
REMARK                         _______ _______ _______ _____ _____    ______ ____
ROOT
ATOM      1  C   UNL     1       4.454   4.322  16.412  0.00  0.00    +0.000 C 
ENDROOT
BRANCH   1   8
ATOM      2  C   UNL     1       1.489   4.433  20.141  0.00  0.00    +0.000 A 
ATOM      3  C   UNL     1       1.245   5.743  20.555  0.00  0.00    +0.000 A 
ATOM      4  C   UNL     1       1.920   6.817  19.983  0.00  0.00    +0.000 A 
ATOM      5  C   UNL     1       2.828   6.549  18.949  0.00  0.00    +0.000 A 
ATOM      6  N   UNL     1       3.614   7.408  18.228  0.00  0.00    +0.000 N 
ATOM      7  C   UNL     1       4.301   6.725  17.261  0.00  0.00    +0.000 A 
ATOM      8  C   UNL     1       3.991   5.384  17.364  0.00  0.00    +0.000 A 
ATOM      9  C   UNL     1       3.077   5.258  18.476  0.00  0.00    +0.000 A 
ATOM     10  C   UNL     1       2.420   4.186  19.116  0.00  0.00    +0.000 A 
ATOM     11  H   UNL     1       3.657   8.409  18.371  0.00  0.00    +0.000 HD
BRANCH   2  12
ATOM     12  O   UNL     1       0.877   3.325  20.659  0.00  0.00    +0.000 OA
BRANCH  12  14
ATOM     13  C   UNL     1       2.794   2.279  21.620  0.00  0.00    +0.000 C 
ATOM     14  C   UNL     1       1.413   2.839  21.891  0.00  0.00    +0.000 C 
ENDBRANCH  12  14
ENDBRANCH   2  12
ENDBRANCH   1   8
BRANCH   1  15
ATOM     15  C   UNL     1       5.601   4.713  15.529  0.00  0.00    +0.000 A 
ATOM     16  C   UNL     1       6.751   5.363  15.936  0.00  0.00    +0.000 A 
ATOM     17  N   UNL     1       7.632   5.388  14.889  0.00  0.00    +0.000 N 
ATOM     18  C   UNL     1       7.088   4.748  13.799  0.00  0.00    +0.000 A 
ATOM     19  C   UNL     1       7.655   4.453  12.554  0.00  0.00    +0.000 A 
ATOM     20  C   UNL     1       6.878   3.734  11.637  0.00  0.00    +0.000 A 
ATOM     21  C   UNL     1       5.573   3.347  11.942  0.00  0.00    +0.000 A 
ATOM     22  C   UNL     1       5.024   3.666  13.193  0.00  0.00    +0.000 A 
ATOM     23  C   UNL     1       5.798   4.359  14.152  0.00  0.00    +0.000 A 
ATOM     24  H   UNL     1       8.574   5.745  14.931  0.00  0.00    +0.000 HD
BRANCH  21  25
ATOM     25  O   UNL     1       4.741   2.626  11.123  0.00  0.00    +0.000 OA
BRANCH  25  26
ATOM     26  C   UNL     1       3.384   3.059  11.045  0.00  0.00    +0.000 C 
ATOM     27  C   UNL     1       3.239   3.972   9.840  0.00  0.00    +0.000 C 
ENDBRANCH  25  26
ENDBRANCH  21  25
ENDBRANCH   1  15
TORSDOF 6
ENDMDL
MODEL 5
REMARK VINA RESULT:      -7.7      4.614      6.865
REMARK  Name = 
REMARK  8 active torsions:
REMARK  status: ('A' for Active; 'I' for Inactive)
REMARK    1  A    between atoms: C_1  and  C_2
REMARK    2  A    between atoms: C_2  and  O_3
REMARK    3  A    between atoms: O_3  and  C_4
REMARK    4  A    between atoms: C_10  and  C_11
REMARK    5  A    between atoms: C_11  and  C_12
REMARK    6  A    between atoms: C_18  and  O_19
REMARK    7  A    between atoms: O_19  and  C_20
REMARK    8  A    between atoms: C_20  and  C_21
REMARK                            x       y       z     vdW  Elec       q    Type
REMARK                         _______ _______ _______ _____ _____    ______ ____
ROOT
ATOM      1  C   UNL     1       1.920   8.931  17.793  0.00  0.00    +0.000 C 
ENDROOT
BRANCH   1   8
ATOM      2  C   UNL     1       5.212   5.531  17.239  0.00  0.00    +0.000 A 
ATOM      3  C   UNL     1       5.153   4.596  18.272  0.00  0.00    +0.000 A 
ATOM      4  C   UNL     1       4.299   4.773  19.356  0.00  0.00    +0.000 A 
ATOM      5  C   UNL     1       3.470   5.904  19.364  0.00  0.00    +0.000 A 
ATOM      6  N   UNL     1       2.554   6.313  20.297  0.00  0.00    +0.000 N 
ATOM      7  C   UNL     1       1.913   7.444  19.868  0.00  0.00    +0.000 A 
ATOM      8  C   UNL     1       2.435   7.810  18.644  0.00  0.00    +0.000 A 
ATOM      9  C   UNL     1       3.468   6.848  18.335  0.00  0.00    +0.000 A 
ATOM     10  C   UNL     1       4.386   6.669  17.278  0.00  0.00    +0.000 A 
ATOM     11  H   UNL     1       2.360   5.831  21.165  0.00  0.00    +0.000 HD
BRANCH   2  12
ATOM     12  O   UNL     1       6.030   5.435  16.147  0.00  0.00    +0.000 OA
BRANCH  12  14
ATOM     13  C   UNL     1       6.428   4.248  14.116  0.00  0.00    +0.000 C 
ATOM     14  C   UNL     1       5.403   4.998  14.939  0.00  0.00    +0.000 C 
ENDBRANCH  12  14
ENDBRANCH   2  12
ENDBRANCH   1   8
BRANCH   1  15
ATOM     15  C   UNL     1       1.103   9.959  18.519  0.00  0.00    +0.000 A 
ATOM     16  C   UNL     1       1.585  10.881  19.429  0.00  0.00    +0.000 A 
ATOM     17  N   UNL     1       0.578  11.754  19.739  0.00  0.00    +0.000 N 
ATOM     18  C   UNL     1      -0.559  11.435  19.034  0.00  0.00    +0.000 A 
ATOM     19  C   UNL     1      -1.790  12.098  18.963  0.00  0.00    +0.000 A 
ATOM     20  C   UNL     1      -2.767  11.569  18.110  0.00  0.00    +0.000 A 
ATOM     21  C   UNL     1      -2.534  10.407  17.377  0.00  0.00    +0.000 A 
ATOM     22  C   UNL     1      -1.296   9.755  17.475  0.00  0.00    +0.000 A 
ATOM     23  C   UNL     1      -0.277  10.286  18.299  0.00  0.00    +0.000 A 
ATOM     24  H   UNL     1       0.675  12.565  20.331  0.00  0.00    +0.000 HD
BRANCH  21  25
ATOM     25  O   UNL     1      -3.416   9.823  16.502  0.00  0.00    +0.000 OA
BRANCH  25  26
ATOM     26  C   UNL     1      -3.787  10.589  15.357  0.00  0.00    +0.000 C 
ATOM     27  C   UNL     1      -3.090  10.004  14.141  0.00  0.00    +0.000 C 
ENDBRANCH  25  26
ENDBRANCH  21  25
ENDBRANCH   1  15
TORSDOF 6
ENDMDL
MODEL 6
REMARK VINA RESULT:      -7.6      2.298      3.755
REMARK  Name = 
REMARK  8 active torsions:
REMARK  status: ('A' for Active; 'I' for Inactive)
REMARK    1  A    between atoms: C_1  and  C_2
REMARK    2  A    between atoms: C_2  and  O_3
REMARK    3  A    between atoms: O_3  and  C_4
REMARK    4  A    between atoms: C_10  and  C_11
REMARK    5  A    between atoms: C_11  and  C_12
REMARK    6  A    between atoms: C_18  and  O_19
REMARK    7  A    between atoms: O_19  and  C_20
REMARK    8  A    between atoms: C_20  and  C_21
REMARK                            x       y       z     vdW  Elec       q    Type
REMARK                         _______ _______ _______ _____ _____    ______ ____
ROOT
ATOM      1  C   UNL     1       3.363   3.251  18.146  0.00  0.00    +0.000 C 
ENDROOT
BRANCH   1   8
ATOM      2  C   UNL     1       5.856   4.197  14.197  0.00  0.00    +0.000 A 
ATOM      3  C   UNL     1       7.166   4.566  14.501  0.00  0.00    +0.000 A 
ATOM      4  C   UNL     1       7.579   4.736  15.819  0.00  0.00    +0.000 A 
ATOM      5  C   UNL     1       6.648   4.490  16.838  0.00  0.00    +0.000 A 
ATOM      6  N   UNL     1       6.790   4.586  18.197  0.00  0.00    +0.000 N 
ATOM      7  C   UNL     1       5.642   4.183  18.823  0.00  0.00    +0.000 A 
ATOM      8  C   UNL     1       4.710   3.846  17.863  0.00  0.00    +0.000 A 
ATOM      9  C   UNL     1       5.336   4.084  16.583  0.00  0.00    +0.000 A 
ATOM     10  C   UNL     1       4.933   3.976  15.235  0.00  0.00    +0.000 A 
ATOM     11  H   UNL     1       7.634   4.882  18.670  0.00  0.00    +0.000 HD
BRANCH   2  12
ATOM     12  O   UNL     1       5.371   4.019  12.930  0.00  0.00    +0.000 OA
BRANCH  12  14
ATOM     13  C   UNL     1       5.556   2.071  11.565  0.00  0.00    +0.000 C 
ATOM     14  C   UNL     1       6.241   3.342  12.022  0.00  0.00    +0.000 C 
ENDBRANCH  12  14
ENDBRANCH   2  12
ENDBRANCH   1   8
BRANCH   1  15
ATOM     15  C   UNL     1       2.589   3.918  19.243  0.00  0.00    +0.000 A 
ATOM     16  C   UNL     1       2.180   3.325  20.423  0.00  0.00    +0.000 A 
ATOM     17  N   UNL     1       1.660   4.292  21.240  0.00  0.00    +0.000 N 
ATOM     18  C   UNL     1       1.735   5.520  20.625  0.00  0.00    +0.000 A 
ATOM     19  C   UNL     1       1.413   6.792  21.114  0.00  0.00    +0.000 A 
ATOM     20  C   UNL     1       1.642   7.890  20.275  0.00  0.00    +0.000 A 
ATOM     21  C   UNL     1       2.148   7.723  18.987  0.00  0.00    +0.000 A 
ATOM     22  C   UNL     1       2.452   6.437  18.517  0.00  0.00    +0.000 A 
ATOM     23  C   UNL     1       2.266   5.312  19.354  0.00  0.00    +0.000 A 
ATOM     24  H   UNL     1       1.346   4.144  22.187  0.00  0.00    +0.000 HD
BRANCH  21  25
ATOM     25  O   UNL     1       2.425   8.732  18.099  0.00  0.00    +0.000 OA
BRANCH  25  26
ATOM     26  C   UNL     1       1.746   9.971  18.302  0.00  0.00    +0.000 C 
ATOM     27  C   UNL     1       0.301   9.803  17.866  0.00  0.00    +0.000 C 
ENDBRANCH  25  26
ENDBRANCH  21  25
ENDBRANCH   1  15
TORSDOF 6
ENDMDL
MODEL 7
REMARK VINA RESULT:      -7.6      4.747      7.328
REMARK  Name = 
REMARK  8 active torsions:
REMARK  status: ('A' for Active; 'I' for Inactive)
REMARK    1  A    between atoms: C_1  and  C_2
REMARK    2  A    between atoms: C_2  and  O_3
REMARK    3  A    between atoms: O_3  and  C_4
REMARK    4  A    between atoms: C_10  and  C_11
REMARK    5  A    between atoms: C_11  and  C_12
REMARK    6  A    between atoms: C_18  and  O_19
REMARK    7  A    between atoms: O_19  and  C_20
REMARK    8  A    between atoms: C_20  and  C_21
REMARK                            x       y       z     vdW  Elec       q    Type
REMARK                         _______ _______ _______ _____ _____    ______ ____
ROOT
ATOM      1  C   UNL     1       1.693   9.229  18.375  0.00  0.00    +0.000 C 
ENDROOT
BRANCH   1   8
ATOM      2  C   UNL     1       4.504   5.535  17.299  0.00  0.00    +0.000 A 
ATOM      3  C   UNL     1       4.385   4.516  18.244  0.00  0.00    +0.000 A 
ATOM      4  C   UNL     1       3.619   4.684  19.393  0.00  0.00    +0.000 A 
ATOM      5  C   UNL     1       2.938   5.899  19.558  0.00  0.00    +0.000 A 
ATOM      6  N   UNL     1       2.131   6.319  20.582  0.00  0.00    +0.000 N 
ATOM      7  C   UNL     1       1.613   7.555  20.301  0.00  0.00    +0.000 A 
ATOM      8  C   UNL     1       2.110   7.976  19.084  0.00  0.00    +0.000 A 
ATOM      9  C   UNL     1       2.998   6.934  18.622  0.00  0.00    +0.000 A 
ATOM     10  C   UNL     1       3.829   6.753  17.496  0.00  0.00    +0.000 A 
ATOM     11  H   UNL     1       1.924   5.780  21.413  0.00  0.00    +0.000 HD
BRANCH   2  12
ATOM     12  O   UNL     1       5.244   5.451  16.152  0.00  0.00    +0.000 OA
BRANCH  12  14
ATOM     13  C   UNL     1       7.270   6.352  17.033  0.00  0.00    +0.000 C 
ATOM     14  C   UNL     1       6.634   5.172  16.329  0.00  0.00    +0.000 C 
ENDBRANCH  12  14
ENDBRANCH   2  12
ENDBRANCH   1   8
BRANCH   1  15
ATOM     15  C   UNL     1       0.737  10.101  19.132  0.00  0.00    +0.000 A 
ATOM     16  C   UNL     1       1.043  10.864  20.244  0.00  0.00    +0.000 A 
ATOM     17  N   UNL     1      -0.035  11.652  20.542  0.00  0.00    +0.000 N 
ATOM     18  C   UNL     1      -1.045  11.435  19.633  0.00  0.00    +0.000 A 
ATOM     19  C   UNL     1      -2.281  12.077  19.492  0.00  0.00    +0.000 A 
ATOM     20  C   UNL     1      -3.103  11.681  18.428  0.00  0.00    +0.000 A 
ATOM     21  C   UNL     1      -2.717  10.666  17.555  0.00  0.00    +0.000 A 
ATOM     22  C   UNL     1      -1.478  10.031  17.726  0.00  0.00    +0.000 A 
ATOM     23  C   UNL     1      -0.611  10.434  18.768  0.00  0.00    +0.000 A 
ATOM     24  H   UNL     1      -0.060  12.352  21.268  0.00  0.00    +0.000 HD
BRANCH  21  25
ATOM     25  O   UNL     1      -3.438  10.222  16.475  0.00  0.00    +0.000 OA
BRANCH  25  26
ATOM     26  C   UNL     1      -3.172  10.851  15.222  0.00  0.00    +0.000 C 
ATOM     27  C   UNL     1      -3.625   9.920  14.112  0.00  0.00    +0.000 C 
ENDBRANCH  25  26
ENDBRANCH  21  25
ENDBRANCH   1  15
TORSDOF 6
ENDMDL
MODEL 8
REMARK VINA RESULT:      -7.6      3.708      8.836
REMARK  Name = 
REMARK  8 active torsions:
REMARK  status: ('A' for Active; 'I' for Inactive)
REMARK    1  A    between atoms: C_1  and  C_2
REMARK    2  A    between atoms: C_2  and  O_3
REMARK    3  A    between atoms: O_3  and  C_4
REMARK    4  A    between atoms: C_10  and  C_11
REMARK    5  A    between atoms: C_11  and  C_12
REMARK    6  A    between atoms: C_18  and  O_19
REMARK    7  A    between atoms: O_19  and  C_20
REMARK    8  A    between atoms: C_20  and  C_21
REMARK                            x       y       z     vdW  Elec       q    Type
REMARK                         _______ _______ _______ _____ _____    ______ ____
ROOT
ATOM      1  C   UNL     1       2.256   6.514  19.764  0.00  0.00    +0.000 C 
ENDROOT
BRANCH   1   8
ATOM      2  C   UNL     1      -0.098  10.450  21.061  0.00  0.00    +0.000 A 
ATOM      3  C   UNL     1      -0.158  11.371  20.016  0.00  0.00    +0.000 A 
ATOM      4  C   UNL     1       0.518  11.149  18.820  0.00  0.00    +0.000 A 
ATOM      5  C   UNL     1       1.234   9.952  18.680  0.00  0.00    +0.000 A 
ATOM      6  N   UNL     1       1.978   9.494  17.625  0.00  0.00    +0.000 N 
ATOM      7  C   UNL     1       2.449   8.236  17.888  0.00  0.00    +0.000 A 
ATOM      8  C   UNL     1       2.038   7.866  19.153  0.00  0.00    +0.000 A 
ATOM      9  C   UNL     1       1.293   8.984  19.685  0.00  0.00    +0.000 A 
ATOM     10  C   UNL     1       0.645   9.265  20.906  0.00  0.00    +0.000 A 
ATOM     11  H   UNL     1       2.131  10.001  16.763  0.00  0.00    +0.000 HD
BRANCH   2  12
ATOM     12  O   UNL     1      -0.723  10.598  22.268  0.00  0.00    +0.000 OA
BRANCH  12  14
ATOM     13  C   UNL     1      -2.436  11.987  23.180  0.00  0.00    +0.000 C 
ATOM     14  C   UNL     1      -1.017  11.943  22.653  0.00  0.00    +0.000 C 
ENDBRANCH  12  14
ENDBRANCH   2  12
ENDBRANCH   1   8
BRANCH   1  15
ATOM     15  C   UNL     1       2.664   5.438  18.803  0.00  0.00    +0.000 A 
ATOM     16  C   UNL     1       1.816   4.532  18.194  0.00  0.00    +0.000 A 
ATOM     17  N   UNL     1       2.526   3.831  17.258  0.00  0.00    +0.000 N 
ATOM     18  C   UNL     1       3.829   4.271  17.227  0.00  0.00    +0.000 A 
ATOM     19  C   UNL     1       4.880   3.912  16.373  0.00  0.00    +0.000 A 
ATOM     20  C   UNL     1       6.106   4.569  16.537  0.00  0.00    +0.000 A 
ATOM     21  C   UNL     1       6.285   5.529  17.532  0.00  0.00    +0.000 A 
ATOM     22  C   UNL     1       5.219   5.862  18.381  0.00  0.00    +0.000 A 
ATOM     23  C   UNL     1       3.959   5.242  18.216  0.00  0.00    +0.000 A 
ATOM     24  H   UNL     1       2.137   3.150  16.624  0.00  0.00    +0.000 HD
BRANCH  21  25
ATOM     25  O   UNL     1       7.436   6.241  17.758  0.00  0.00    +0.000 OA
BRANCH  25  26
ATOM     26  C   UNL     1       7.508   7.546  17.185  0.00  0.00    +0.000 C 
ATOM     27  C   UNL     1       8.194   8.469  18.177  0.00  0.00    +0.000 C 
ENDBRANCH  25  26
ENDBRANCH  21  25
ENDBRANCH   1  15
TORSDOF 6
ENDMDL
MODEL 9
REMARK VINA RESULT:      -7.5      3.645      6.329
REMARK  Name = 
REMARK  8 active torsions:
REMARK  status: ('A' for Active; 'I' for Inactive)
REMARK    1  A    between atoms: C_1  and  C_2
REMARK    2  A    between atoms: C_2  and  O_3
REMARK    3  A    between atoms: O_3  and  C_4
REMARK    4  A    between atoms: C_10  and  C_11
REMARK    5  A    between atoms: C_11  and  C_12
REMARK    6  A    between atoms: C_18  and  O_19
REMARK    7  A    between atoms: O_19  and  C_20
REMARK    8  A    between atoms: C_20  and  C_21
REMARK                            x       y       z     vdW  Elec       q    Type
REMARK                         _______ _______ _______ _____ _____    ______ ____
ROOT
ATOM      1  C   UNL     1       2.143   6.371  20.938  0.00  0.00    +0.000 C 
ENDROOT
BRANCH   1   8
ATOM      2  C   UNL     1       4.683   3.899  17.753  0.00  0.00    +0.000 A 
ATOM      3  C   UNL     1       3.958   2.816  17.257  0.00  0.00    +0.000 A 
ATOM      4  C   UNL     1       2.706   2.491  17.772  0.00  0.00    +0.000 A 
ATOM      5  C   UNL     1       2.176   3.308  18.781  0.00  0.00    +0.000 A 
ATOM      6  N   UNL     1       0.986   3.212  19.452  0.00  0.00    +0.000 N 
ATOM      7  C   UNL     1       0.841   4.267  20.312  0.00  0.00    +0.000 A 
ATOM      8  C   UNL     1       1.967   5.059  20.234  0.00  0.00    +0.000 A 
ATOM      9  C   UNL     1       2.850   4.424  19.283  0.00  0.00    +0.000 A 
ATOM     10  C   UNL     1       4.141   4.692  18.781  0.00  0.00    +0.000 A 
ATOM     11  H   UNL     1       0.301   2.481  19.310  0.00  0.00    +0.000 HD
BRANCH   2  12
ATOM     12  O   UNL     1       5.921   4.276  17.309  0.00  0.00    +0.000 OA
BRANCH  12  14
ATOM     13  C   UNL     1       5.545   5.494  15.292  0.00  0.00    +0.000 C 
ATOM     14  C   UNL     1       6.114   4.227  15.894  0.00  0.00    +0.000 C 
ENDBRANCH  12  14
ENDBRANCH   2  12
ENDBRANCH   1   8
BRANCH   1  15
ATOM     15  C   UNL     1       1.905   7.586  20.092  0.00  0.00    +0.000 A 
ATOM     16  C   UNL     1       2.277   7.737  18.769  0.00  0.00    +0.000 A 
ATOM     17  N   UNL     1       1.736   8.900  18.294  0.00  0.00    +0.000 N 
ATOM     18  C   UNL     1       0.996   9.514  19.278  0.00  0.00    +0.000 A 
ATOM     19  C   UNL     1       0.198  10.663  19.220  0.00  0.00    +0.000 A 
ATOM     20  C   UNL     1      -0.495  11.035  20.379  0.00  0.00    +0.000 A 
ATOM     21  C   UNL     1      -0.374  10.304  21.560  0.00  0.00    +0.000 A 
ATOM     22  C   UNL     1       0.442   9.162  21.595  0.00  0.00    +0.000 A 
ATOM     23  C   UNL     1       1.124   8.741  20.430  0.00  0.00    +0.000 A 
ATOM     24  H   UNL     1       1.797   9.222  17.340  0.00  0.00    +0.000 HD
BRANCH  21  25
ATOM     25  O   UNL     1      -1.024  10.573  22.738  0.00  0.00    +0.000 OA
BRANCH  25  26
ATOM     26  C   UNL     1      -1.303  11.944  23.018  0.00  0.00    +0.000 C 
ATOM     27  C   UNL     1      -2.790  12.086  23.290  0.00  0.00    +0.000 C 
ENDBRANCH  25  26
ENDBRANCH  21  25
ENDBRANCH   1  15
TORSDOF 6
ENDMDL
