MODEL 1
REMARK VINA RESULT:      -5.3      0.000      0.000
REMARK  Name = 
REMARK  3 active torsions:
REMARK  status: ('A' for Active; 'I' for Inactive)
REMARK    1  A    between atoms: C_1  and  C_2
REMARK    2  A    between atoms: C_4  and  N_5
REMARK    3  A    between atoms: C_8  and  N_9
REMARK                            x       y       z     vdW  Elec       q    Type
REMARK                         _______ _______ _______ _____ _____    ______ ____
ROOT
ATOM      1  C   UNL     1       1.421   2.669  21.224  0.00  0.00    +0.000 C 
ATOM      2  C   UNL     1       2.234   3.743  20.558  0.00  0.00    +0.000 A 
ATOM      3  C   UNL     1       1.786   5.073  20.666  0.00  0.00    +0.000 A 
ATOM      4  C   UNL     1       2.495   6.105  20.065  0.00  0.00    +0.000 A 
ATOM      5  N   UNL     1       3.623   5.898  19.371  0.00  0.00    +0.000 NA
ATOM      6  C   UNL     1       4.065   4.619  19.271  0.00  0.00    +0.000 A 
ATOM      7  C   UNL     1       3.420   3.522  19.839  0.00  0.00    +0.000 A 
ENDROOT
BRANCH   4   8
ATOM      8  N   UNL     1       2.085   7.425  20.208  0.00  0.00    +0.000 N 
ATOM      9  H   UNL     1       2.639   7.930  20.889  0.00  0.00    +0.000 HD
ATOM     10  H   UNL     1       1.099   7.413  20.454  0.00  0.00    +0.000 HD
ENDBRANCH   4   8
BRANCH   7  11
ATOM     11  N   UNL     1       4.037   2.205  19.655  0.00  0.00    +0.000 N 
ATOM     12  O   UNL     1       4.952   1.864  20.415  0.00  0.00    +0.000 OA
ATOM     13  O   UNL     1       3.604   1.493  18.737  0.00  0.00    +0.000 OA
ENDBRANCH   7  11
TORSDOF 2
ENDMDL
MODEL 2
REMARK VINA RESULT:      -5.2      3.739      4.939
REMARK  Name = 
REMARK  3 active torsions:
REMARK  status: ('A' for Active; 'I' for Inactive)
REMARK    1  A    between atoms: C_1  and  C_2
REMARK    2  A    between atoms: C_4  and  N_5
REMARK    3  A    between atoms: C_8  and  N_9
REMARK                            x       y       z     vdW  Elec       q    Type
REMARK                         _______ _______ _______ _____ _____    ______ ____
ROOT
ATOM      1  C   UNL     1       3.494   3.731  16.757  0.00  0.00    +0.000 C 
ATOM      2  C   UNL     1       4.920   4.206  16.757  0.00  0.00    +0.000 A 
ATOM      3  C   UNL     1       5.535   4.447  15.515  0.00  0.00    +0.000 A 
ATOM      4  C   UNL     1       6.853   4.882  15.457  0.00  0.00    +0.000 A 
ATOM      5  N   UNL     1       7.592   5.097  16.554  0.00  0.00    +0.000 NA
ATOM      6  C   UNL     1       7.000   4.876  17.755  0.00  0.00    +0.000 A 
ATOM      7  C   UNL     1       5.687   4.439  17.911  0.00  0.00    +0.000 A 
ENDROOT
BRANCH   4   8
ATOM      8  N   UNL     1       7.452   5.168  14.236  0.00  0.00    +0.000 N 
ATOM      9  H   UNL     1       7.002   5.939  13.756  0.00  0.00    +0.000 HD
ATOM     10  H   UNL     1       7.440   4.316  13.683  0.00  0.00    +0.000 HD
ENDBRANCH   4   8
BRANCH   7  11
ATOM     11  N   UNL     1       5.190   4.264  19.278  0.00  0.00    +0.000 N 
ATOM     12  O   UNL     1       4.764   5.252  19.889  0.00  0.00    +0.000 OA
ATOM     13  O   UNL     1       5.221   3.120  19.758  0.00  0.00    +0.000 OA
ENDBRANCH   7  11
TORSDOF 2
ENDMDL
MODEL 3
REMARK VINA RESULT:      -5.2      4.087      5.370
REMARK  Name = 
REMARK  3 active torsions:
REMARK  status: ('A' for Active; 'I' for Inactive)
REMARK    1  A    between atoms: C_1  and  C_2
REMARK    2  A    between atoms: C_4  and  N_5
REMARK    3  A    between atoms: C_8  and  N_9
REMARK                            x       y       z     vdW  Elec       q    Type
REMARK                         _______ _______ _______ _____ _____    ______ ____
ROOT
ATOM      1  C   UNL     1       4.248   3.357  17.285  0.00  0.00    +0.000 C 
ATOM      2  C   UNL     1       5.378   4.252  16.861  0.00  0.00    +0.000 A 
ATOM      3  C   UNL     1       5.761   4.236  15.507  0.00  0.00    +0.000 A 
ATOM      4  C   UNL     1       6.803   5.039  15.062  0.00  0.00    +0.000 A 
ATOM      5  N   UNL     1       7.482   5.859  15.876  0.00  0.00    +0.000 NA
ATOM      6  C   UNL     1       7.111   5.886  17.181  0.00  0.00    +0.000 A 
ATOM      7  C   UNL     1       6.081   5.117  17.717  0.00  0.00    +0.000 A 
ENDROOT
BRANCH   4   8
ATOM      8  N   UNL     1       7.155   5.064  13.718  0.00  0.00    +0.000 N 
ATOM      9  H   UNL     1       8.158   5.053  13.580  0.00  0.00    +0.000 HD
ATOM     10  H   UNL     1       6.723   5.887  13.305  0.00  0.00    +0.000 HD
ENDBRANCH   4   8
BRANCH   7  11
ATOM     11  N   UNL     1       5.791   5.275  19.145  0.00  0.00    +0.000 N 
ATOM     12  O   UNL     1       4.635   5.545  19.493  0.00  0.00    +0.000 OA
ATOM     13  O   UNL     1       6.731   5.126  19.940  0.00  0.00    +0.000 OA
ENDBRANCH   7  11
TORSDOF 2
ENDMDL
MODEL 4
REMARK VINA RESULT:      -5.1      3.533      4.599
REMARK  Name = 
REMARK  3 active torsions:
REMARK  status: ('A' for Active; 'I' for Inactive)
REMARK    1  A    between atoms: C_1  and  C_2
REMARK    2  A    between atoms: C_4  and  N_5
REMARK    3  A    between atoms: C_8  and  N_9
REMARK                            x       y       z     vdW  Elec       q    Type
REMARK                         _______ _______ _______ _____ _____    ______ ____
ROOT
ATOM      1  C   UNL     1       5.257   4.098  15.110  0.00  0.00    +0.000 C 
ATOM      2  C   UNL     1       5.012   4.308  16.578  0.00  0.00    +0.000 A 
ATOM      3  C   UNL     1       3.734   4.005  17.083  0.00  0.00    +0.000 A 
ATOM      4  C   UNL     1       3.451   4.185  18.431  0.00  0.00    +0.000 A 
ATOM      5  N   UNL     1       4.359   4.640  19.306  0.00  0.00    +0.000 NA
ATOM      6  C   UNL     1       5.596   4.925  18.825  0.00  0.00    +0.000 A 
ATOM      7  C   UNL     1       5.970   4.777  17.491  0.00  0.00    +0.000 A 
ENDROOT
BRANCH   4   8
ATOM      8  N   UNL     1       2.207   3.843  18.946  0.00  0.00    +0.000 N 
ATOM      9  H   UNL     1       1.712   3.185  18.356  0.00  0.00    +0.000 HD
ATOM     10  H   UNL     1       1.684   4.704  19.079  0.00  0.00    +0.000 HD
ENDBRANCH   4   8
BRANCH   7  11
ATOM     11  N   UNL     1       7.352   5.111  17.135  0.00  0.00    +0.000 N 
ATOM     12  O   UNL     1       7.590   6.223  16.647  0.00  0.00    +0.000 OA
ATOM     13  O   UNL     1       8.222   4.253  17.347  0.00  0.00    +0.000 OA
ENDBRANCH   7  11
TORSDOF 2
ENDMDL
MODEL 5
REMARK VINA RESULT:      -5.1      2.444      3.162
REMARK  Name = 
REMARK  3 active torsions:
REMARK  status: ('A' for Active; 'I' for Inactive)
REMARK    1  A    between atoms: C_1  and  C_2
REMARK    2  A    between atoms: C_4  and  N_5
REMARK    3  A    between atoms: C_8  and  N_9
REMARK                            x       y       z     vdW  Elec       q    Type
REMARK                         _______ _______ _______ _____ _____    ______ ____
ROOT
ATOM      1  C   UNL     1       1.937   5.937  20.372  0.00  0.00    +0.000 C 
ATOM      2  C   UNL     1       2.973   4.886  20.085  0.00  0.00    +0.000 A 
ATOM      3  C   UNL     1       4.200   5.302  19.536  0.00  0.00    +0.000 A 
ATOM      4  C   UNL     1       5.190   4.373  19.246  0.00  0.00    +0.000 A 
ATOM      5  N   UNL     1       5.040   3.061  19.474  0.00  0.00    +0.000 NA
ATOM      6  C   UNL     1       3.863   2.656  20.014  0.00  0.00    +0.000 A 
ATOM      7  C   UNL     1       2.813   3.513  20.335  0.00  0.00    +0.000 A 
ENDROOT
BRANCH   4   8
ATOM      8  N   UNL     1       6.422   4.782  18.749  0.00  0.00    +0.000 N 
ATOM      9  H   UNL     1       6.600   4.427  17.816  0.00  0.00    +0.000 HD
ATOM     10  H   UNL     1       7.133   4.484  19.411  0.00  0.00    +0.000 HD
ENDBRANCH   4   8
BRANCH   7  11
ATOM     11  N   UNL     1       1.612   2.919  20.928  0.00  0.00    +0.000 N 
ATOM     12  O   UNL     1       1.618   2.637  22.133  0.00  0.00    +0.000 OA
ATOM     13  O   UNL     1       0.639   2.729  20.183  0.00  0.00    +0.000 OA
ENDBRANCH   7  11
TORSDOF 2
ENDMDL
MODEL 6
REMARK VINA RESULT:      -5.1      4.152      5.465
REMARK  Name = 
REMARK  3 active torsions:
REMARK  status: ('A' for Active; 'I' for Inactive)
REMARK    1  A    between atoms: C_1  and  C_2
REMARK    2  A    between atoms: C_4  and  N_5
REMARK    3  A    between atoms: C_8  and  N_9
REMARK                            x       y       z     vdW  Elec       q    Type
REMARK                         _______ _______ _______ _____ _____    ______ ____
ROOT
ATOM      1  C   UNL     1       4.189   6.629  17.358  0.00  0.00    +0.000 C 
ATOM      2  C   UNL     1       5.414   5.867  16.935  0.00  0.00    +0.000 A 
ATOM      3  C   UNL     1       5.745   5.855  15.568  0.00  0.00    +0.000 A 
ATOM      4  C   UNL     1       6.862   5.163  15.121  0.00  0.00    +0.000 A 
ATOM      5  N   UNL     1       7.674   4.489  15.948  0.00  0.00    +0.000 NA
ATOM      6  C   UNL     1       7.365   4.505  17.270  0.00  0.00    +0.000 A 
ATOM      7  C   UNL     1       6.265   5.170  17.808  0.00  0.00    +0.000 A 
ENDROOT
BRANCH   4   8
ATOM      8  N   UNL     1       7.222   5.187  13.779  0.00  0.00    +0.000 N 
ATOM      9  H   UNL     1       8.215   5.040  13.642  0.00  0.00    +0.000 HD
ATOM     10  H   UNL     1       6.912   6.075  13.395  0.00  0.00    +0.000 HD
ENDBRANCH   4   8
BRANCH   7  11
ATOM     11  N   UNL     1       6.081   5.105  19.261  0.00  0.00    +0.000 N 
ATOM     12  O   UNL     1       7.000   5.486  19.996  0.00  0.00    +0.000 OA
ATOM     13  O   UNL     1       4.999   4.668  19.682  0.00  0.00    +0.000 OA
ENDBRANCH   7  11
TORSDOF 2
ENDMDL
MODEL 7
REMARK VINA RESULT:      -5.0      2.681      3.876
REMARK  Name = 
REMARK  3 active torsions:
REMARK  status: ('A' for Active; 'I' for Inactive)
REMARK    1  A    between atoms: C_1  and  C_2
REMARK    2  A    between atoms: C_4  and  N_5
REMARK    3  A    between atoms: C_8  and  N_9
REMARK                            x       y       z     vdW  Elec       q    Type
REMARK                         _______ _______ _______ _____ _____    ______ ____
ROOT
ATOM      1  C   UNL     1       0.926   4.084  20.350  0.00  0.00    +0.000 C 
ATOM      2  C   UNL     1       2.386   4.054  19.993  0.00  0.00    +0.000 A 
ATOM      3  C   UNL     1       3.083   2.844  20.169  0.00  0.00    +0.000 A 
ATOM      4  C   UNL     1       4.435   2.761  19.860  0.00  0.00    +0.000 A 
ATOM      5  N   UNL     1       5.132   3.801  19.382  0.00  0.00    +0.000 NA
ATOM      6  C   UNL     1       4.462   4.967  19.201  0.00  0.00    +0.000 A 
ATOM      7  C   UNL     1       3.110   5.144  19.484  0.00  0.00    +0.000 A 
ENDROOT
BRANCH   4   8
ATOM      8  N   UNL     1       5.118   1.558  19.986  0.00  0.00    +0.000 N 
ATOM      9  H   UNL     1       5.883   1.614  20.648  0.00  0.00    +0.000 HD
ATOM     10  H   UNL     1       5.437   1.289  19.059  0.00  0.00    +0.000 HD
ENDBRANCH   4   8
BRANCH   7  11
ATOM     11  N   UNL     1       2.530   6.463  19.215  0.00  0.00    +0.000 N 
ATOM     12  O   UNL     1       2.238   7.192  20.171  0.00  0.00    +0.000 OA
ATOM     13  O   UNL     1       2.361   6.784  18.029  0.00  0.00    +0.000 OA
ENDBRANCH   7  11
TORSDOF 2
ENDMDL
MODEL 8
REMARK VINA RESULT:      -5.0      2.722      3.691
REMARK  Name = 
REMARK  3 active torsions:
REMARK  status: ('A' for Active; 'I' for Inactive)
REMARK    1  A    between atoms: C_1  and  C_2
REMARK    2  A    between atoms: C_4  and  N_5
REMARK    3  A    between atoms: C_8  and  N_9
REMARK                            x       y       z     vdW  Elec       q    Type
REMARK                         _______ _______ _______ _____ _____    ______ ____
ROOT
ATOM      1  C   UNL     1       2.465   6.656  18.201  0.00  0.00    +0.000 C 
ATOM      2  C   UNL     1       3.360   5.528  18.633  0.00  0.00    +0.000 A 
ATOM      3  C   UNL     1       4.740   5.783  18.735  0.00  0.00    +0.000 A 
ATOM      4  C   UNL     1       5.613   4.776  19.124  0.00  0.00    +0.000 A 
ATOM      5  N   UNL     1       5.200   3.536  19.424  0.00  0.00    +0.000 NA
ATOM      6  C   UNL     1       3.868   3.288  19.337  0.00  0.00    +0.000 A 
ATOM      7  C   UNL     1       2.920   4.234  18.954  0.00  0.00    +0.000 A 
ENDROOT
BRANCH   4   8
ATOM      8  N   UNL     1       6.971   5.033  19.274  0.00  0.00    +0.000 N 
ATOM      9  H   UNL     1       7.535   4.541  18.591  0.00  0.00    +0.000 HD
ATOM     10  H   UNL     1       7.225   4.785  20.227  0.00  0.00    +0.000 HD
ENDBRANCH   4   8
BRANCH   7  11
ATOM     11  N   UNL     1       1.516   3.811  18.927  0.00  0.00    +0.000 N 
ATOM     12  O   UNL     1       1.057   3.336  17.881  0.00  0.00    +0.000 OA
ATOM     13  O   UNL     1       0.855   3.953  19.967  0.00  0.00    +0.000 OA
ENDBRANCH   7  11
TORSDOF 2
ENDMDL
MODEL 9
REMARK VINA RESULT:      -5.0      3.229      4.500
REMARK  Name = 
REMARK  3 active torsions:
REMARK  status: ('A' for Active; 'I' for Inactive)
REMARK    1  A    between atoms: C_1  and  C_2
REMARK    2  A    between atoms: C_4  and  N_5
REMARK    3  A    between atoms: C_8  and  N_9
REMARK                            x       y       z     vdW  Elec       q    Type
REMARK                         _______ _______ _______ _____ _____    ______ ____
ROOT
ATOM      1  C   UNL     1       2.977   7.280  18.074  0.00  0.00    +0.000 C 
ATOM      2  C   UNL     1       3.855   6.182  17.545  0.00  0.00    +0.000 A 
ATOM      3  C   UNL     1       5.110   6.538  17.016  0.00  0.00    +0.000 A 
ATOM      4  C   UNL     1       5.960   5.564  16.508  0.00  0.00    +0.000 A 
ATOM      5  N   UNL     1       5.644   4.261  16.500  0.00  0.00    +0.000 NA
ATOM      6  C   UNL     1       4.439   3.912  17.019  0.00  0.00    +0.000 A 
ATOM      7  C   UNL     1       3.523   4.817  17.548  0.00  0.00    +0.000 A 
ENDROOT
BRANCH   4   8
ATOM      8  N   UNL     1       7.219   5.902  16.029  0.00  0.00    +0.000 N 
ATOM      9  H   UNL     1       7.178   6.575  15.273  0.00  0.00    +0.000 HD
ATOM     10  H   UNL     1       7.680   5.041  15.746  0.00  0.00    +0.000 HD
ENDBRANCH   4   8
BRANCH   7  11
ATOM     11  N   UNL     1       2.271   4.277  18.086  0.00  0.00    +0.000 N 
ATOM     12  O   UNL     1       1.300   4.155  17.329  0.00  0.00    +0.000 OA
ATOM     13  O   UNL     1       2.252   3.964  19.286  0.00  0.00    +0.000 OA
ENDBRANCH   7  11
TORSDOF 2
ENDMDL
