MODEL 1
REMARK VINA RESULT:      -7.2      0.000      0.000
REMARK  Name = 
REMARK  8 active torsions:
REMARK  status: ('A' for Active; 'I' for Inactive)
REMARK    1  A    between atoms: C_1  and  C_2
REMARK    2  A    between atoms: C_4  and  C_5
REMARK    3  A    between atoms: C_5  and  C_7
REMARK    4  A    between atoms: C_7  and  C_8
REMARK    5  A    between atoms: C_7  and  C_10
REMARK    6  A    between atoms: N_12  and  C_13
REMARK    7  A    between atoms: C_13  and  C_14
REMARK    8  A    between atoms: C_14  and  C_15
REMARK                            x       y       z     vdW  Elec       q    Type
REMARK                         _______ _______ _______ _____ _____    ______ ____
ROOT
ATOM      1  C   UNL     1       5.420   5.582  18.710  0.00  0.00    +0.000 C 
ATOM      2  O   UNL     1       5.062   4.683  19.473  0.00  0.00    +0.000 OA
ATOM      3  N   UNL     1       4.547   6.578  18.331  0.00  0.00    +0.000 N 
ATOM      4  H   UNL     1       4.839   7.248  17.613  0.00  0.00    +0.000 HD
ENDROOT
BRANCH   1   5
ATOM      5  C   UNL     1       6.854   5.616  18.182  0.00  0.00    +0.000 C 
BRANCH   5   6
ATOM      6  C   UNL     1       7.174   4.639  17.061  0.00  0.00    +0.000 C 
ATOM      7  O   UNL     1       8.257   4.071  16.944  0.00  0.00    +0.000 OA
BRANCH   6  11
ATOM      8  C   UNL     1       5.910   3.705  13.502  0.00  0.00    +0.000 C 
ATOM      9  C   UNL     1       6.462   4.603  14.557  0.00  0.00    +0.000 C 
ATOM     10  C   UNL     1       5.552   5.575  15.255  0.00  0.00    +0.000 C 
ATOM     11  C   UNL     1       6.119   4.394  16.021  0.00  0.00    +0.000 C 
ENDBRANCH   6  11
ENDBRANCH   5   6
BRANCH   5  12
ATOM     12  C   UNL     1       7.128   7.023  17.678  0.00  0.00    +0.000 C 
ATOM     13  N   UNL     1       7.356   8.191  17.260  0.00  0.00    +0.000 NA
ENDBRANCH   5  12
ENDBRANCH   1   5
BRANCH   3  14
ATOM     14  C   UNL     1       3.179   6.637  18.818  0.00  0.00    +0.000 C 
BRANCH  14  15
ATOM     15  C   UNL     1       2.171   5.963  17.881  0.00  0.00    +0.000 C 
BRANCH  15  16
ATOM     16  C   UNL     1       1.999   4.499  18.217  0.00  0.00    +0.000 A 
ATOM     17  C   UNL     1       1.328   4.106  19.384  0.00  0.00    +0.000 A 
ATOM     18  C   UNL     1       1.217   2.754  19.715  0.00  0.00    +0.000 A 
ATOM     19  C   UNL     1       1.774   1.782  18.886  0.00  0.00    +0.000 A 
ATOM     20  C   UNL     1       2.439   2.161  17.723  0.00  0.00    +0.000 A 
ATOM     21  C   UNL     1       2.553   3.513  17.390  0.00  0.00    +0.000 A 
ENDBRANCH  15  16
ENDBRANCH  14  15
ENDBRANCH   3  14
TORSDOF 7
ENDMDL
MODEL 2
REMARK VINA RESULT:      -7.1      3.626      7.456
REMARK  Name = 
REMARK  8 active torsions:
REMARK  status: ('A' for Active; 'I' for Inactive)
REMARK    1  A    between atoms: C_1  and  C_2
REMARK    2  A    between atoms: C_4  and  C_5
REMARK    3  A    between atoms: C_5  and  C_7
REMARK    4  A    between atoms: C_7  and  C_8
REMARK    5  A    between atoms: C_7  and  C_10
REMARK    6  A    between atoms: N_12  and  C_13
REMARK    7  A    between atoms: C_13  and  C_14
REMARK    8  A    between atoms: C_14  and  C_15
REMARK                            x       y       z     vdW  Elec       q    Type
REMARK                         _______ _______ _______ _____ _____    ______ ____
ROOT
ATOM      1  C   UNL     1       7.405   6.073  18.192  0.00  0.00    +0.000 C 
ATOM      2  O   UNL     1       8.015   5.644  19.172  0.00  0.00    +0.000 OA
ATOM      3  N   UNL     1       7.531   7.388  17.800  0.00  0.00    +0.000 N 
ATOM      4  H   UNL     1       6.931   7.743  17.049  0.00  0.00    +0.000 HD
ENDROOT
BRANCH   1   5
ATOM      5  C   UNL     1       6.504   5.144  17.379  0.00  0.00    +0.000 C 
BRANCH   5   6
ATOM      6  C   UNL     1       5.022   5.484  17.382  0.00  0.00    +0.000 C 
ATOM      7  O   UNL     1       4.562   6.521  16.907  0.00  0.00    +0.000 OA
BRANCH   6  11
ATOM      8  C   UNL     1       3.422   1.983  17.951  0.00  0.00    +0.000 C 
ATOM      9  C   UNL     1       3.616   3.296  17.269  0.00  0.00    +0.000 C 
ATOM     10  C   UNL     1       2.653   4.420  17.534  0.00  0.00    +0.000 C 
ATOM     11  C   UNL     1       4.081   4.518  18.041  0.00  0.00    +0.000 C 
ENDBRANCH   6  11
ENDBRANCH   5   6
BRANCH   5  12
ATOM     12  C   UNL     1       6.993   5.166  15.940  0.00  0.00    +0.000 C 
ATOM     13  N   UNL     1       7.398   5.186  14.746  0.00  0.00    +0.000 NA
ENDBRANCH   5  12
ENDBRANCH   1   5
BRANCH   3  14
ATOM     14  C   UNL     1       8.396   8.326  18.496  0.00  0.00    +0.000 C 
BRANCH  14  15
ATOM     15  C   UNL     1       8.372   9.736  17.896  0.00  0.00    +0.000 C 
BRANCH  15  16
ATOM     16  C   UNL     1       9.398  10.632  18.549  0.00  0.00    +0.000 A 
ATOM     17  C   UNL     1      10.350  11.313  17.776  0.00  0.00    +0.000 A 
ATOM     18  C   UNL     1      11.328  12.099  18.389  0.00  0.00    +0.000 A 
ATOM     19  C   UNL     1      11.366  12.213  19.778  0.00  0.00    +0.000 A 
ATOM     20  C   UNL     1      10.424  11.543  20.555  0.00  0.00    +0.000 A 
ATOM     21  C   UNL     1       9.445  10.756  19.944  0.00  0.00    +0.000 A 
ENDBRANCH  15  16
ENDBRANCH  14  15
ENDBRANCH   3  14
TORSDOF 7
ENDMDL
MODEL 3
REMARK VINA RESULT:      -6.9      1.515      2.011
REMARK  Name = 
REMARK  8 active torsions:
REMARK  status: ('A' for Active; 'I' for Inactive)
REMARK    1  A    between atoms: C_1  and  C_2
REMARK    2  A    between atoms: C_4  and  C_5
REMARK    3  A    between atoms: C_5  and  C_7
REMARK    4  A    between atoms: C_7  and  C_8
REMARK    5  A    between atoms: C_7  and  C_10
REMARK    6  A    between atoms: N_12  and  C_13
REMARK    7  A    between atoms: C_13  and  C_14
REMARK    8  A    between atoms: C_14  and  C_15
REMARK                            x       y       z     vdW  Elec       q    Type
REMARK                         _______ _______ _______ _____ _____    ______ ____
ROOT
ATOM      1  C   UNL     1       5.244   4.831  16.848  0.00  0.00    +0.000 C 
ATOM      2  O   UNL     1       4.701   3.732  16.971  0.00  0.00    +0.000 OA
ATOM      3  N   UNL     1       4.560   5.994  17.128  0.00  0.00    +0.000 N 
ATOM      4  H   UNL     1       5.000   6.894  16.913  0.00  0.00    +0.000 HD
ENDROOT
BRANCH   1   5
ATOM      5  C   UNL     1       6.701   4.923  16.396  0.00  0.00    +0.000 C 
BRANCH   5   6
ATOM      6  C   UNL     1       6.943   4.782  14.901  0.00  0.00    +0.000 C 
ATOM      7  O   UNL     1       7.726   5.490  14.270  0.00  0.00    +0.000 OA
BRANCH   6  11
ATOM      8  C   UNL     1       6.252   2.359  11.936  0.00  0.00    +0.000 C 
ATOM      9  C   UNL     1       6.272   3.672  12.643  0.00  0.00    +0.000 C 
ATOM     10  C   UNL     1       5.009   4.203  13.261  0.00  0.00    +0.000 C 
ATOM     11  C   UNL     1       6.149   3.750  14.155  0.00  0.00    +0.000 C 
ENDBRANCH   6  11
ENDBRANCH   5   6
BRANCH   5  12
ATOM     12  C   UNL     1       7.240   6.273  16.838  0.00  0.00    +0.000 C 
ATOM     13  N   UNL     1       7.686   7.394  17.205  0.00  0.00    +0.000 NA
ENDBRANCH   5  12
ENDBRANCH   1   5
BRANCH   3  14
ATOM     14  C   UNL     1       3.185   5.991  17.598  0.00  0.00    +0.000 C 
BRANCH  14  15
ATOM     15  C   UNL     1       3.064   6.089  19.123  0.00  0.00    +0.000 C 
BRANCH  15  16
ATOM     16  C   UNL     1       2.356   4.886  19.700  0.00  0.00    +0.000 A 
ATOM     17  C   UNL     1       2.485   4.561  21.058  0.00  0.00    +0.000 A 
ATOM     18  C   UNL     1       1.870   3.418  21.575  0.00  0.00    +0.000 A 
ATOM     19  C   UNL     1       1.121   2.590  20.742  0.00  0.00    +0.000 A 
ATOM     20  C   UNL     1       0.982   2.904  19.392  0.00  0.00    +0.000 A 
ATOM     21  C   UNL     1       1.598   4.046  18.873  0.00  0.00    +0.000 A 
ENDBRANCH  15  16
ENDBRANCH  14  15
ENDBRANCH   3  14
TORSDOF 7
ENDMDL
MODEL 4
REMARK VINA RESULT:      -6.9      1.471      2.071
REMARK  Name = 
REMARK  8 active torsions:
REMARK  status: ('A' for Active; 'I' for Inactive)
REMARK    1  A    between atoms: C_1  and  C_2
REMARK    2  A    between atoms: C_4  and  C_5
REMARK    3  A    between atoms: C_5  and  C_7
REMARK    4  A    between atoms: C_7  and  C_8
REMARK    5  A    between atoms: C_7  and  C_10
REMARK    6  A    between atoms: N_12  and  C_13
REMARK    7  A    between atoms: C_13  and  C_14
REMARK    8  A    between atoms: C_14  and  C_15
REMARK                            x       y       z     vdW  Elec       q    Type
REMARK                         _______ _______ _______ _____ _____    ______ ____
ROOT
ATOM      1  C   UNL     1       5.319   4.965  16.989  0.00  0.00    +0.000 C 
ATOM      2  O   UNL     1       4.815   3.856  17.171  0.00  0.00    +0.000 OA
ATOM      3  N   UNL     1       4.585   6.116  17.177  0.00  0.00    +0.000 N 
ATOM      4  H   UNL     1       4.997   7.017  16.914  0.00  0.00    +0.000 HD
ENDROOT
BRANCH   1   5
ATOM      5  C   UNL     1       6.783   5.084  16.564  0.00  0.00    +0.000 C 
BRANCH   5   6
ATOM      6  C   UNL     1       7.061   4.900  15.080  0.00  0.00    +0.000 C 
ATOM      7  O   UNL     1       7.842   5.604  14.443  0.00  0.00    +0.000 OA
BRANCH   6  11
ATOM      8  C   UNL     1       6.319   2.577  12.048  0.00  0.00    +0.000 C 
ATOM      9  C   UNL     1       6.275   3.844  12.833  0.00  0.00    +0.000 C 
ATOM     10  C   UNL     1       5.036   4.197  13.606  0.00  0.00    +0.000 C 
ATOM     11  C   UNL     1       6.306   3.827  14.351  0.00  0.00    +0.000 C 
ENDBRANCH   6  11
ENDBRANCH   5   6
BRANCH   5  12
ATOM     12  C   UNL     1       7.272   6.463  16.971  0.00  0.00    +0.000 C 
ATOM     13  N   UNL     1       7.680   7.608  17.309  0.00  0.00    +0.000 NA
ENDBRANCH   5  12
ENDBRANCH   1   5
BRANCH   3  14
ATOM     14  C   UNL     1       3.200   6.089  17.617  0.00  0.00    +0.000 C 
BRANCH  14  15
ATOM     15  C   UNL     1       3.045   6.158  19.140  0.00  0.00    +0.000 C 
BRANCH  15  16
ATOM     16  C   UNL     1       2.404   4.903  19.687  0.00  0.00    +0.000 A 
ATOM     17  C   UNL     1       1.608   4.090  18.868  0.00  0.00    +0.000 A 
ATOM     18  C   UNL     1       0.976   2.960  19.392  0.00  0.00    +0.000 A 
ATOM     19  C   UNL     1       1.133   2.631  20.737  0.00  0.00    +0.000 A 
ATOM     20  C   UNL     1       1.926   3.429  21.559  0.00  0.00    +0.000 A 
ATOM     21  C   UNL     1       2.557   4.560  21.037  0.00  0.00    +0.000 A 
ENDBRANCH  15  16
ENDBRANCH  14  15
ENDBRANCH   3  14
TORSDOF 7
ENDMDL
MODEL 5
REMARK VINA RESULT:      -6.8      2.275      3.459
REMARK  Name = 
REMARK  8 active torsions:
REMARK  status: ('A' for Active; 'I' for Inactive)
REMARK    1  A    between atoms: C_1  and  C_2
REMARK    2  A    between atoms: C_4  and  C_5
REMARK    3  A    between atoms: C_5  and  C_7
REMARK    4  A    between atoms: C_7  and  C_8
REMARK    5  A    between atoms: C_7  and  C_10
REMARK    6  A    between atoms: N_12  and  C_13
REMARK    7  A    between atoms: C_13  and  C_14
REMARK    8  A    between atoms: C_14  and  C_15
REMARK                            x       y       z     vdW  Elec       q    Type
REMARK                         _______ _______ _______ _____ _____    ______ ____
ROOT
ATOM      1  C   UNL     1       7.017   4.929  15.982  0.00  0.00    +0.000 C 
ATOM      2  O   UNL     1       7.454   6.068  16.156  0.00  0.00    +0.000 OA
ATOM      3  N   UNL     1       6.535   4.187  17.037  0.00  0.00    +0.000 N 
ATOM      4  H   UNL     1       6.279   3.206  16.881  0.00  0.00    +0.000 HD
ENDROOT
BRANCH   1   5
ATOM      5  C   UNL     1       6.987   4.323  14.579  0.00  0.00    +0.000 C 
BRANCH   5   6
ATOM      6  C   UNL     1       5.610   4.154  13.957  0.00  0.00    +0.000 C 
ATOM      7  O   UNL     1       4.569   4.116  14.610  0.00  0.00    +0.000 OA
BRANCH   6  11
ATOM      8  C   UNL     1       3.744   3.573  10.592  0.00  0.00    +0.000 C 
ATOM      9  C   UNL     1       4.385   3.175  11.879  0.00  0.00    +0.000 C 
ATOM     10  C   UNL     1       5.777   2.609  11.871  0.00  0.00    +0.000 C 
ATOM     11  C   UNL     1       5.528   3.982  12.468  0.00  0.00    +0.000 C 
ENDBRANCH   6  11
ENDBRANCH   5   6
BRANCH   5  12
ATOM     12  C   UNL     1       7.812   5.219  13.670  0.00  0.00    +0.000 C 
ATOM     13  N   UNL     1       8.497   5.962  12.916  0.00  0.00    +0.000 NA
ENDBRANCH   5  12
ENDBRANCH   1   5
BRANCH   3  14
ATOM     14  C   UNL     1       6.494   4.704  18.395  0.00  0.00    +0.000 C 
BRANCH  14  15
ATOM     15  C   UNL     1       5.193   5.445  18.724  0.00  0.00    +0.000 C 
BRANCH  15  16
ATOM     16  C   UNL     1       3.992   4.537  18.596  0.00  0.00    +0.000 A 
ATOM     17  C   UNL     1       3.970   3.285  19.227  0.00  0.00    +0.000 A 
ATOM     18  C   UNL     1       2.879   2.428  19.063  0.00  0.00    +0.000 A 
ATOM     19  C   UNL     1       1.801   2.812  18.268  0.00  0.00    +0.000 A 
ATOM     20  C   UNL     1       1.810   4.055  17.639  0.00  0.00    +0.000 A 
ATOM     21  C   UNL     1       2.901   4.913  17.801  0.00  0.00    +0.000 A 
ENDBRANCH  15  16
ENDBRANCH  14  15
ENDBRANCH   3  14
TORSDOF 7
ENDMDL
MODEL 6
REMARK VINA RESULT:      -6.8      1.888      2.584
REMARK  Name = 
REMARK  8 active torsions:
REMARK  status: ('A' for Active; 'I' for Inactive)
REMARK    1  A    between atoms: C_1  and  C_2
REMARK    2  A    between atoms: C_4  and  C_5
REMARK    3  A    between atoms: C_5  and  C_7
REMARK    4  A    between atoms: C_7  and  C_8
REMARK    5  A    between atoms: C_7  and  C_10
REMARK    6  A    between atoms: N_12  and  C_13
REMARK    7  A    between atoms: C_13  and  C_14
REMARK    8  A    between atoms: C_14  and  C_15
REMARK                            x       y       z     vdW  Elec       q    Type
REMARK                         _______ _______ _______ _____ _____    ______ ____
ROOT
ATOM      1  C   UNL     1       6.680   4.850  18.413  0.00  0.00    +0.000 C 
ATOM      2  O   UNL     1       7.413   5.179  19.346  0.00  0.00    +0.000 OA
ATOM      3  N   UNL     1       5.655   3.949  18.600  0.00  0.00    +0.000 N 
ATOM      4  H   UNL     1       5.132   3.613  17.786  0.00  0.00    +0.000 HD
ENDROOT
BRANCH   1   5
ATOM      5  C   UNL     1       6.885   5.455  17.024  0.00  0.00    +0.000 C 
BRANCH   5   6
ATOM      6  C   UNL     1       5.670   5.448  16.109  0.00  0.00    +0.000 C 
ATOM      7  O   UNL     1       4.514   5.542  16.515  0.00  0.00    +0.000 OA
BRANCH   6  11
ATOM      8  C   UNL     1       5.626   3.459  12.765  0.00  0.00    +0.000 C 
ATOM      9  C   UNL     1       6.167   3.882  14.090  0.00  0.00    +0.000 C 
ATOM     10  C   UNL     1       7.285   4.885  14.149  0.00  0.00    +0.000 C 
ATOM     11  C   UNL     1       5.900   5.273  14.636  0.00  0.00    +0.000 C 
ENDBRANCH   6  11
ENDBRANCH   5   6
BRANCH   5  12
ATOM     12  C   UNL     1       7.333   6.895  17.207  0.00  0.00    +0.000 C 
ATOM     13  N   UNL     1       7.705   8.091  17.358  0.00  0.00    +0.000 NA
ENDBRANCH   5  12
ENDBRANCH   1   5
BRANCH   3  14
ATOM     14  C   UNL     1       5.370   3.357  19.897  0.00  0.00    +0.000 C 
BRANCH  14  15
ATOM     15  C   UNL     1       4.520   2.085  19.811  0.00  0.00    +0.000 C 
BRANCH  15  16
ATOM     16  C   UNL     1       3.043   2.407  19.815  0.00  0.00    +0.000 A 
ATOM     17  C   UNL     1       2.256   2.172  18.678  0.00  0.00    +0.000 A 
ATOM     18  C   UNL     1       0.903   2.520  18.670  0.00  0.00    +0.000 A 
ATOM     19  C   UNL     1       0.324   3.104  19.795  0.00  0.00    +0.000 A 
ATOM     20  C   UNL     1       1.095   3.338  20.930  0.00  0.00    +0.000 A 
ATOM     21  C   UNL     1       2.449   2.992  20.940  0.00  0.00    +0.000 A 
ENDBRANCH  15  16
ENDBRANCH  14  15
ENDBRANCH   3  14
TORSDOF 7
ENDMDL
MODEL 7
REMARK VINA RESULT:      -6.8      3.326      7.370
REMARK  Name = 
REMARK  8 active torsions:
REMARK  status: ('A' for Active; 'I' for Inactive)
REMARK    1  A    between atoms: C_1  and  C_2
REMARK    2  A    between atoms: C_4  and  C_5
REMARK    3  A    between atoms: C_5  and  C_7
REMARK    4  A    between atoms: C_7  and  C_8
REMARK    5  A    between atoms: C_7  and  C_10
REMARK    6  A    between atoms: N_12  and  C_13
REMARK    7  A    between atoms: C_13  and  C_14
REMARK    8  A    between atoms: C_14  and  C_15
REMARK                            x       y       z     vdW  Elec       q    Type
REMARK                         _______ _______ _______ _____ _____    ______ ____
ROOT
ATOM      1  C   UNL     1       6.787   6.469  17.052  0.00  0.00    +0.000 C 
ATOM      2  O   UNL     1       7.579   6.385  16.113  0.00  0.00    +0.000 OA
ATOM      3  N   UNL     1       7.077   7.238  18.157  0.00  0.00    +0.000 N 
ATOM      4  H   UNL     1       6.449   7.203  18.967  0.00  0.00    +0.000 HD
ENDROOT
BRANCH   1   5
ATOM      5  C   UNL     1       5.450   5.729  16.999  0.00  0.00    +0.000 C 
BRANCH   5   6
ATOM      6  C   UNL     1       5.309   4.543  17.941  0.00  0.00    +0.000 C 
ATOM      7  O   UNL     1       6.119   4.279  18.827  0.00  0.00    +0.000 OA
BRANCH   6  11
ATOM      8  C   UNL     1       1.539   3.592  18.084  0.00  0.00    +0.000 C 
ATOM      9  C   UNL     1       2.913   3.791  18.628  0.00  0.00    +0.000 C 
ATOM     10  C   UNL     1       3.815   2.603  18.820  0.00  0.00    +0.000 C 
ATOM     11  C   UNL     1       4.137   3.626  17.745  0.00  0.00    +0.000 C 
ENDBRANCH   6  11
ENDBRANCH   5   6
BRANCH   5  12
ATOM     12  C   UNL     1       4.353   6.728  17.326  0.00  0.00    +0.000 C 
ATOM     13  N   UNL     1       3.443   7.558  17.597  0.00  0.00    +0.000 NA
ENDBRANCH   5  12
ENDBRANCH   1   5
BRANCH   3  14
ATOM     14  C   UNL     1       8.308   8.002  18.269  0.00  0.00    +0.000 C 
BRANCH  14  15
ATOM     15  C   UNL     1       8.157   9.465  17.838  0.00  0.00    +0.000 C 
BRANCH  15  16
ATOM     16  C   UNL     1       9.173  10.350  18.521  0.00  0.00    +0.000 A 
ATOM     17  C   UNL     1      10.147  11.030  17.776  0.00  0.00    +0.000 A 
ATOM     18  C   UNL     1      11.116  11.806  18.417  0.00  0.00    +0.000 A 
ATOM     19  C   UNL     1      11.121  11.910  19.807  0.00  0.00    +0.000 A 
ATOM     20  C   UNL     1      10.156  11.242  20.557  0.00  0.00    +0.000 A 
ATOM     21  C   UNL     1       9.188  10.465  19.918  0.00  0.00    +0.000 A 
ENDBRANCH  15  16
ENDBRANCH  14  15
ENDBRANCH   3  14
TORSDOF 7
ENDMDL
MODEL 8
REMARK VINA RESULT:      -6.7      3.353      7.312
REMARK  Name = 
REMARK  8 active torsions:
REMARK  status: ('A' for Active; 'I' for Inactive)
REMARK    1  A    between atoms: C_1  and  C_2
REMARK    2  A    between atoms: C_4  and  C_5
REMARK    3  A    between atoms: C_5  and  C_7
REMARK    4  A    between atoms: C_7  and  C_8
REMARK    5  A    between atoms: C_7  and  C_10
REMARK    6  A    between atoms: N_12  and  C_13
REMARK    7  A    between atoms: C_13  and  C_14
REMARK    8  A    between atoms: C_14  and  C_15
REMARK                            x       y       z     vdW  Elec       q    Type
REMARK                         _______ _______ _______ _____ _____    ______ ____
ROOT
ATOM      1  C   UNL     1       6.806   6.473  16.966  0.00  0.00    +0.000 C 
ATOM      2  O   UNL     1       7.613   6.351  16.044  0.00  0.00    +0.000 OA
ATOM      3  N   UNL     1       7.082   7.283  18.046  0.00  0.00    +0.000 N 
ATOM      4  H   UNL     1       6.442   7.281  18.847  0.00  0.00    +0.000 HD
ENDROOT
BRANCH   1   5
ATOM      5  C   UNL     1       5.468   5.735  16.921  0.00  0.00    +0.000 C 
BRANCH   5   6
ATOM      6  C   UNL     1       5.328   4.553  17.869  0.00  0.00    +0.000 C 
ATOM      7  O   UNL     1       6.141   4.293  18.754  0.00  0.00    +0.000 OA
BRANCH   6  11
ATOM      8  C   UNL     1       1.564   3.590  18.071  0.00  0.00    +0.000 C 
ATOM      9  C   UNL     1       2.948   3.783  18.592  0.00  0.00    +0.000 C 
ATOM     10  C   UNL     1       3.856   2.595  18.744  0.00  0.00    +0.000 C 
ATOM     11  C   UNL     1       4.155   3.637  17.681  0.00  0.00    +0.000 C 
ENDBRANCH   6  11
ENDBRANCH   5   6
BRANCH   5  12
ATOM     12  C   UNL     1       4.374   6.737  17.248  0.00  0.00    +0.000 C 
ATOM     13  N   UNL     1       3.466   7.570  17.518  0.00  0.00    +0.000 NA
ENDBRANCH   5  12
ENDBRANCH   1   5
BRANCH   3  14
ATOM     14  C   UNL     1       8.314   8.048  18.147  0.00  0.00    +0.000 C 
BRANCH  14  15
ATOM     15  C   UNL     1       8.116   9.551  17.926  0.00  0.00    +0.000 C 
BRANCH  15  16
ATOM     16  C   UNL     1       9.197  10.357  18.609  0.00  0.00    +0.000 A 
ATOM     17  C   UNL     1       9.175  10.553  19.997  0.00  0.00    +0.000 A 
ATOM     18  C   UNL     1      10.148  11.341  20.616  0.00  0.00    +0.000 A 
ATOM     19  C   UNL     1      11.150  11.941  19.856  0.00  0.00    +0.000 A 
ATOM     20  C   UNL     1      11.183  11.750  18.477  0.00  0.00    +0.000 A 
ATOM     21  C   UNL     1      10.211  10.963  17.856  0.00  0.00    +0.000 A 
ENDBRANCH  15  16
ENDBRANCH  14  15
ENDBRANCH   3  14
TORSDOF 7
ENDMDL
MODEL 9
REMARK VINA RESULT:      -6.7      2.098      3.760
REMARK  Name = 
REMARK  8 active torsions:
REMARK  status: ('A' for Active; 'I' for Inactive)
REMARK    1  A    between atoms: C_1  and  C_2
REMARK    2  A    between atoms: C_4  and  C_5
REMARK    3  A    between atoms: C_5  and  C_7
REMARK    4  A    between atoms: C_7  and  C_8
REMARK    5  A    between atoms: C_7  and  C_10
REMARK    6  A    between atoms: N_12  and  C_13
REMARK    7  A    between atoms: C_13  and  C_14
REMARK    8  A    between atoms: C_14  and  C_15
REMARK                            x       y       z     vdW  Elec       q    Type
REMARK                         _______ _______ _______ _____ _____    ______ ____
ROOT
ATOM      1  C   UNL     1       5.535   3.972  16.449  0.00  0.00    +0.000 C 
ATOM      2  O   UNL     1       5.886   3.339  15.453  0.00  0.00    +0.000 OA
ATOM      3  N   UNL     1       4.602   3.458  17.323  0.00  0.00    +0.000 N 
ATOM      4  H   UNL     1       4.251   4.051  18.081  0.00  0.00    +0.000 HD
ENDROOT
BRANCH   1   5
ATOM      5  C   UNL     1       6.147   5.342  16.745  0.00  0.00    +0.000 C 
BRANCH   5   6
ATOM      6  C   UNL     1       5.228   6.537  16.543  0.00  0.00    +0.000 C 
ATOM      7  O   UNL     1       5.090   7.113  15.465  0.00  0.00    +0.000 OA
BRANCH   6  11
ATOM      8  C   UNL     1       2.748   6.266  19.528  0.00  0.00    +0.000 C 
ATOM      9  C   UNL     1       3.146   6.452  18.102  0.00  0.00    +0.000 C 
ATOM     10  C   UNL     1       3.199   7.837  17.521  0.00  0.00    +0.000 C 
ATOM     11  C   UNL     1       4.487   7.063  17.737  0.00  0.00    +0.000 C 
ENDBRANCH   6  11
ENDBRANCH   5   6
BRANCH   5  12
ATOM     12  C   UNL     1       6.611   5.340  18.191  0.00  0.00    +0.000 C 
ATOM     13  N   UNL     1       6.997   5.339  19.392  0.00  0.00    +0.000 NA
ENDBRANCH   5  12
ENDBRANCH   1   5
BRANCH   3  14
ATOM     14  C   UNL     1       4.002   2.148  17.134  0.00  0.00    +0.000 C 
BRANCH  14  15
ATOM     15  C   UNL     1       3.781   1.386  18.445  0.00  0.00    +0.000 C 
BRANCH  15  16
ATOM     16  C   UNL     1       2.858   2.140  19.374  0.00  0.00    +0.000 A 
ATOM     17  C   UNL     1       3.262   2.466  20.676  0.00  0.00    +0.000 A 
ATOM     18  C   UNL     1       2.386   3.117  21.547  0.00  0.00    +0.000 A 
ATOM     19  C   UNL     1       1.099   3.449  21.127  0.00  0.00    +0.000 A 
ATOM     20  C   UNL     1       0.689   3.134  19.834  0.00  0.00    +0.000 A 
ATOM     21  C   UNL     1       1.563   2.481  18.962  0.00  0.00    +0.000 A 
ENDBRANCH  15  16
ENDBRANCH  14  15
ENDBRANCH   3  14
TORSDOF 7
ENDMDL
