MODEL 1
REMARK VINA RESULT:      -9.0      0.000      0.000
REMARK  Name = 
REMARK  5 active torsions:
REMARK  status: ('A' for Active; 'I' for Inactive)
REMARK    1  A    between atoms: C_2  and  C_3
REMARK    2  A    between atoms: C_8  and  O_9
REMARK    3  A    between atoms: O_9  and  C_10
REMARK    4  A    between atoms: N_19  and  C_20
REMARK    5  A    between atoms: C_20  and  C_21
REMARK                            x       y       z     vdW  Elec       q    Type
REMARK                         _______ _______ _______ _____ _____    ______ ____
ROOT
ATOM      1  C   UNL     1       2.321   6.317  19.029  0.00  0.00    +0.000 A 
ATOM      2  C   UNL     1       2.003   6.068  20.373  0.00  0.00    +0.000 A 
ATOM      3 CL   UNL     1       2.309   4.523  21.086  0.00  0.00    +0.000 Cl
ATOM      4  C   UNL     1       1.424   7.060  21.174  0.00  0.00    +0.000 A 
ATOM      5  C   UNL     1       1.178   8.349  20.681  0.00  0.00    +0.000 A 
ATOM      6  C   UNL     1       1.611   8.610  19.378  0.00  0.00    +0.000 A 
ATOM      7  C   UNL     1       2.190   7.642  18.565  0.00  0.00    +0.000 A 
ATOM      8  N   UNL     1       2.512   8.200  17.355  0.00  0.00    +0.000 NA
ATOM      9  N   UNL     1       2.143   9.468  17.365  0.00  0.00    +0.000 NA
ATOM     10  N   UNL     1       1.617   9.727  18.580  0.00  0.00    +0.000 N 
ENDROOT
BRANCH   1  11
ATOM     11  O   UNL     1       2.761   5.262  18.235  0.00  0.00    +0.000 OA
BRANCH  11  17
ATOM     12  C   UNL     1       6.458   5.175  18.659  0.00  0.00    +0.000 A 
ATOM     13  C   UNL     1       6.819   4.754  17.377  0.00  0.00    +0.000 A 
ATOM     14  C   UNL     1       5.833   4.565  16.408  0.00  0.00    +0.000 A 
ATOM     15 CL   UNL     1       6.286   4.074  14.823  0.00  0.00    +0.000 Cl
ATOM     16  C   UNL     1       4.485   4.755  16.712  0.00  0.00    +0.000 A 
ATOM     17  C   UNL     1       4.117   5.145  17.999  0.00  0.00    +0.000 A 
ATOM     18  C   UNL     1       5.110   5.410  18.955  0.00  0.00    +0.000 A 
BRANCH  12  20
ATOM     19  N   UNL     1       8.246   5.476  20.518  0.00  0.00    +0.000 NA
ATOM     20  C   UNL     1       7.453   5.341  19.677  0.00  0.00    +0.000 C 
ENDBRANCH  12  20
ENDBRANCH  11  17
ENDBRANCH   1  11
BRANCH  10  21
ATOM     21  C   UNL     1       1.354  11.103  18.945  0.00  0.00    +0.000 C 
BRANCH  21  22
ATOM     22  C   UNL     1      -0.085  11.366  19.214  0.00  0.00    +0.000 A 
ATOM     23  N   UNL     1      -0.434  12.207  20.205  0.00  0.00    +0.000 NA
ATOM     24  N   UNL     1      -1.759  12.387  20.017  0.00  0.00    +0.000 N 
ATOM     25  C   UNL     1      -2.269  11.683  18.968  0.00  0.00    +0.000 A 
ATOM     26  N   UNL     1      -3.534  11.736  18.516  0.00  0.00    +0.000 NA
ATOM     27  C   UNL     1      -3.747  10.973  17.428  0.00  0.00    +0.000 A 
ATOM     28  N   UNL     1      -4.997  11.100  16.824  0.00  0.00    +0.000 N 
ATOM     29  C   UNL     1      -2.780  10.159  16.838  0.00  0.00    +0.000 A 
ATOM     30  C   UNL     1      -1.479  10.126  17.352  0.00  0.00    +0.000 A 
ATOM     31  C   UNL     1      -1.211  10.953  18.449  0.00  0.00    +0.000 A 
ATOM     32  H   UNL     1      -2.261  13.038  20.609  0.00  0.00    +0.000 HD
ATOM     33  H   UNL     1      -5.575  11.689  17.417  0.00  0.00    +0.000 HD
ATOM     34  H   UNL     1      -5.425  10.206  16.622  0.00  0.00    +0.000 HD
ENDBRANCH  21  22
ENDBRANCH  10  21
TORSDOF 5
ENDMDL
MODEL 2
REMARK VINA RESULT:      -8.8      1.604      2.043
REMARK  Name = 
REMARK  5 active torsions:
REMARK  status: ('A' for Active; 'I' for Inactive)
REMARK    1  A    between atoms: C_2  and  C_3
REMARK    2  A    between atoms: C_8  and  O_9
REMARK    3  A    between atoms: O_9  and  C_10
REMARK    4  A    between atoms: N_19  and  C_20
REMARK    5  A    between atoms: C_20  and  C_21
REMARK                            x       y       z     vdW  Elec       q    Type
REMARK                         _______ _______ _______ _____ _____    ______ ____
ROOT
ATOM      1  C   UNL     1       2.382   5.980  19.199  0.00  0.00    +0.000 A 
ATOM      2  C   UNL     1       2.045   5.852  20.555  0.00  0.00    +0.000 A 
ATOM      3 CL   UNL     1       2.315   4.369  21.401  0.00  0.00    +0.000 Cl
ATOM      4  C   UNL     1       1.476   6.920  21.262  0.00  0.00    +0.000 A 
ATOM      5  C   UNL     1       1.260   8.166  20.658  0.00  0.00    +0.000 A 
ATOM      6  C   UNL     1       1.711   8.307  19.343  0.00  0.00    +0.000 A 
ATOM      7  C   UNL     1       2.280   7.262  18.623  0.00  0.00    +0.000 A 
ATOM      8  N   UNL     1       2.625   7.708  17.373  0.00  0.00    +0.000 NA
ATOM      9  N   UNL     1       2.280   8.979  17.271  0.00  0.00    +0.000 NA
ATOM     10  N   UNL     1       1.746   9.351  18.452  0.00  0.00    +0.000 N 
ENDROOT
BRANCH   1  11
ATOM     11  O   UNL     1       2.810   4.853  18.504  0.00  0.00    +0.000 OA
BRANCH  11  17
ATOM     12  C   UNL     1       5.801   4.552  16.310  0.00  0.00    +0.000 A 
ATOM     13  C   UNL     1       6.785   4.948  17.219  0.00  0.00    +0.000 A 
ATOM     14  C   UNL     1       6.429   5.248  18.534  0.00  0.00    +0.000 A 
ATOM     15 CL   UNL     1       7.649   5.708  19.657  0.00  0.00    +0.000 Cl
ATOM     16  C   UNL     1       5.098   5.196  18.946  0.00  0.00    +0.000 A 
ATOM     17  C   UNL     1       4.109   4.831  18.034  0.00  0.00    +0.000 A 
ATOM     18  C   UNL     1       4.470   4.454  16.732  0.00  0.00    +0.000 A 
BRANCH  12  20
ATOM     19  N   UNL     1       6.435   4.032  13.846  0.00  0.00    +0.000 NA
ATOM     20  C   UNL     1       6.142   4.272  14.947  0.00  0.00    +0.000 C 
ENDBRANCH  12  20
ENDBRANCH  11  17
ENDBRANCH   1  11
BRANCH  10  21
ATOM     21  C   UNL     1       1.506  10.758  18.695  0.00  0.00    +0.000 C 
BRANCH  21  22
ATOM     22  C   UNL     1       0.086  11.054  19.029  0.00  0.00    +0.000 A 
ATOM     23  N   UNL     1      -0.199  11.856  20.071  0.00  0.00    +0.000 NA
ATOM     24  N   UNL     1      -1.522  12.088  19.941  0.00  0.00    +0.000 N 
ATOM     25  C   UNL     1      -2.093  11.451  18.880  0.00  0.00    +0.000 A 
ATOM     26  N   UNL     1      -3.371  11.567  18.478  0.00  0.00    +0.000 NA
ATOM     27  C   UNL     1      -3.647  10.865  17.364  0.00  0.00    +0.000 A 
ATOM     28  N   UNL     1      -4.913  11.060  16.813  0.00  0.00    +0.000 N 
ATOM     29  C   UNL     1      -2.730  10.049  16.701  0.00  0.00    +0.000 A 
ATOM     30  C   UNL     1      -1.413   9.950  17.163  0.00  0.00    +0.000 A 
ATOM     31  C   UNL     1      -1.079  10.713  18.288  0.00  0.00    +0.000 A 
ATOM     32  H   UNL     1      -1.981  12.725  20.581  0.00  0.00    +0.000 HD
ATOM     33  H   UNL     1      -5.449  11.638  17.454  0.00  0.00    +0.000 HD
ATOM     34  H   UNL     1      -5.378  10.191  16.585  0.00  0.00    +0.000 HD
ENDBRANCH  21  22
ENDBRANCH  10  21
TORSDOF 5
ENDMDL
MODEL 3
REMARK VINA RESULT:      -8.3      1.684      2.464
REMARK  Name = 
REMARK  5 active torsions:
REMARK  status: ('A' for Active; 'I' for Inactive)
REMARK    1  A    between atoms: C_2  and  C_3
REMARK    2  A    between atoms: C_8  and  O_9
REMARK    3  A    between atoms: O_9  and  C_10
REMARK    4  A    between atoms: N_19  and  C_20
REMARK    5  A    between atoms: C_20  and  C_21
REMARK                            x       y       z     vdW  Elec       q    Type
REMARK                         _______ _______ _______ _____ _____    ______ ____
ROOT
ATOM      1  C   UNL     1       2.706   4.583  18.318  0.00  0.00    +0.000 A 
ATOM      2  C   UNL     1       2.376   3.463  19.096  0.00  0.00    +0.000 A 
ATOM      3 CL   UNL     1       2.845   1.872  18.608  0.00  0.00    +0.000 Cl
ATOM      4  C   UNL     1       1.654   3.600  20.290  0.00  0.00    +0.000 A 
ATOM      5  C   UNL     1       1.270   4.858  20.773  0.00  0.00    +0.000 A 
ATOM      6  C   UNL     1       1.711   5.966  20.044  0.00  0.00    +0.000 A 
ATOM      7  C   UNL     1       2.430   5.854  18.859  0.00  0.00    +0.000 A 
ATOM      8  N   UNL     1       2.722   7.108  18.386  0.00  0.00    +0.000 NA
ATOM      9  N   UNL     1       2.201   7.999  19.210  0.00  0.00    +0.000 NA
ATOM     10  N   UNL     1       1.607   7.324  20.216  0.00  0.00    +0.000 N 
ENDROOT
BRANCH   1  11
ATOM     11  O   UNL     1       3.297   4.385  17.074  0.00  0.00    +0.000 OA
BRANCH  11  17
ATOM     12  C   UNL     1       6.887   5.018  17.826  0.00  0.00    +0.000 A 
ATOM     13  C   UNL     1       7.397   4.982  16.526  0.00  0.00    +0.000 A 
ATOM     14  C   UNL     1       6.529   4.803  15.448  0.00  0.00    +0.000 A 
ATOM     15 CL   UNL     1       7.159   4.788  13.847  0.00  0.00    +0.000 Cl
ATOM     16  C   UNL     1       5.162   4.620  15.653  0.00  0.00    +0.000 A 
ATOM     17  C   UNL     1       4.653   4.624  16.950  0.00  0.00    +0.000 A 
ATOM     18  C   UNL     1       5.509   4.881  18.032  0.00  0.00    +0.000 A 
BRANCH  12  20
ATOM     19  N   UNL     1       8.485   5.269  19.858  0.00  0.00    +0.000 NA
ATOM     20  C   UNL     1       7.766   5.168  18.947  0.00  0.00    +0.000 C 
ENDBRANCH  12  20
ENDBRANCH  11  17
ENDBRANCH   1  11
BRANCH  10  21
ATOM     21  C   UNL     1       1.166   8.060  21.382  0.00  0.00    +0.000 C 
BRANCH  21  22
ATOM     22  C   UNL     1       0.828   9.477  21.080  0.00  0.00    +0.000 A 
ATOM     23  N   UNL     1       1.479  10.467  21.718  0.00  0.00    +0.000 NA
ATOM     24  N   UNL     1       1.101  11.577  21.050  0.00  0.00    +0.000 N 
ATOM     25  C   UNL     1       0.224  11.340  20.035  0.00  0.00    +0.000 A 
ATOM     26  N   UNL     1      -0.252  12.250  19.167  0.00  0.00    +0.000 NA
ATOM     27  C   UNL     1      -1.062  11.725  18.230  0.00  0.00    +0.000 A 
ATOM     28  N   UNL     1      -1.469  12.590  17.215  0.00  0.00    +0.000 N 
ATOM     29  C   UNL     1      -1.428  10.380  18.172  0.00  0.00    +0.000 A 
ATOM     30  C   UNL     1      -0.917   9.471  19.104  0.00  0.00    +0.000 A 
ATOM     31  C   UNL     1      -0.026   9.977  20.058  0.00  0.00    +0.000 A 
ATOM     32  H   UNL     1       1.506  12.471  21.303  0.00  0.00    +0.000 HD
ATOM     33  H   UNL     1      -1.151  13.526  17.453  0.00  0.00    +0.000 HD
ATOM     34  H   UNL     1      -2.465  12.546  17.041  0.00  0.00    +0.000 HD
ENDBRANCH  21  22
ENDBRANCH  10  21
TORSDOF 5
ENDMDL
MODEL 4
REMARK VINA RESULT:      -8.3      1.472      2.254
REMARK  Name = 
REMARK  5 active torsions:
REMARK  status: ('A' for Active; 'I' for Inactive)
REMARK    1  A    between atoms: C_2  and  C_3
REMARK    2  A    between atoms: C_8  and  O_9
REMARK    3  A    between atoms: O_9  and  C_10
REMARK    4  A    between atoms: N_19  and  C_20
REMARK    5  A    between atoms: C_20  and  C_21
REMARK                            x       y       z     vdW  Elec       q    Type
REMARK                         _______ _______ _______ _____ _____    ______ ____
ROOT
ATOM      1  C   UNL     1       2.126   6.690  19.006  0.00  0.00    +0.000 A 
ATOM      2  C   UNL     1       1.842   6.427  20.355  0.00  0.00    +0.000 A 
ATOM      3 CL   UNL     1       2.071   4.848  21.019  0.00  0.00    +0.000 Cl
ATOM      4  C   UNL     1       1.362   7.435  21.202  0.00  0.00    +0.000 A 
ATOM      5  C   UNL     1       1.184   8.749  20.749  0.00  0.00    +0.000 A 
ATOM      6  C   UNL     1       1.584   9.016  19.437  0.00  0.00    +0.000 A 
ATOM      7  C   UNL     1       2.066   8.032  18.579  0.00  0.00    +0.000 A 
ATOM      8  N   UNL     1       2.379   8.599  17.370  0.00  0.00    +0.000 NA
ATOM      9  N   UNL     1       2.096   9.888  17.425  0.00  0.00    +0.000 NA
ATOM     10  N   UNL     1       1.635  10.150  18.665  0.00  0.00    +0.000 N 
ENDROOT
BRANCH   1  11
ATOM     11  O   UNL     1       2.463   5.629  18.172  0.00  0.00    +0.000 OA
BRANCH  11  17
ATOM     12  C   UNL     1       6.147   5.257  18.557  0.00  0.00    +0.000 A 
ATOM     13  C   UNL     1       6.455   4.765  17.285  0.00  0.00    +0.000 A 
ATOM     14  C   UNL     1       5.443   4.626  16.335  0.00  0.00    +0.000 A 
ATOM     15 CL   UNL     1       5.833   4.047  14.762  0.00  0.00    +0.000 Cl
ATOM     16  C   UNL     1       4.119   4.934  16.647  0.00  0.00    +0.000 A 
ATOM     17  C   UNL     1       3.802   5.395  17.924  0.00  0.00    +0.000 A 
ATOM     18  C   UNL     1       4.826   5.610  18.859  0.00  0.00    +0.000 A 
BRANCH  12  20
ATOM     19  N   UNL     1       7.979   5.467  20.384  0.00  0.00    +0.000 NA
ATOM     20  C   UNL     1       7.166   5.375  19.556  0.00  0.00    +0.000 C 
ENDBRANCH  12  20
ENDBRANCH  11  17
ENDBRANCH   1  11
BRANCH  10  21
ATOM     21  C   UNL     1       1.478  11.530  19.072  0.00  0.00    +0.000 C 
BRANCH  21  22
ATOM     22  C   UNL     1       0.055  11.926  19.245  0.00  0.00    +0.000 A 
ATOM     23  N   UNL     1      -0.766  11.942  18.178  0.00  0.00    +0.000 NA
ATOM     24  N   UNL     1      -1.990  12.110  18.722  0.00  0.00    +0.000 N 
ATOM     25  C   UNL     1      -1.981  12.224  20.080  0.00  0.00    +0.000 A 
ATOM     26  N   UNL     1      -3.060  12.322  20.876  0.00  0.00    +0.000 NA
ATOM     27  C   UNL     1      -2.756  12.367  22.186  0.00  0.00    +0.000 A 
ATOM     28  N   UNL     1      -3.835  12.320  23.068  0.00  0.00    +0.000 N 
ATOM     29  C   UNL     1      -1.457  12.362  22.692  0.00  0.00    +0.000 A 
ATOM     30  C   UNL     1      -0.364  12.270  21.824  0.00  0.00    +0.000 A 
ATOM     31  C   UNL     1      -0.648  12.166  20.458  0.00  0.00    +0.000 A 
ATOM     32  H   UNL     1      -2.807  12.098  18.122  0.00  0.00    +0.000 HD
ATOM     33  H   UNL     1      -4.691  12.378  22.522  0.00  0.00    +0.000 HD
ATOM     34  H   UNL     1      -3.781  13.027  23.790  0.00  0.00    +0.000 HD
ENDBRANCH  21  22
ENDBRANCH  10  21
TORSDOF 5
ENDMDL
MODEL 5
REMARK VINA RESULT:      -8.3      3.406      8.917
REMARK  Name = 
REMARK  5 active torsions:
REMARK  status: ('A' for Active; 'I' for Inactive)
REMARK    1  A    between atoms: C_2  and  C_3
REMARK    2  A    between atoms: C_8  and  O_9
REMARK    3  A    between atoms: O_9  and  C_10
REMARK    4  A    between atoms: N_19  and  C_20
REMARK    5  A    between atoms: C_20  and  C_21
REMARK                            x       y       z     vdW  Elec       q    Type
REMARK                         _______ _______ _______ _____ _____    ______ ____
ROOT
ATOM      1  C   UNL     1       0.693  10.158  19.923  0.00  0.00    +0.000 A 
ATOM      2  C   UNL     1       0.447   9.998  21.296  0.00  0.00    +0.000 A 
ATOM      3 CL   UNL     1      -0.481  11.163  22.173  0.00  0.00    +0.000 Cl
ATOM      4  C   UNL     1       0.947   8.892  21.996  0.00  0.00    +0.000 A 
ATOM      5  C   UNL     1       1.677   7.885  21.349  0.00  0.00    +0.000 A 
ATOM      6  C   UNL     1       1.810   8.005  19.963  0.00  0.00    +0.000 A 
ATOM      7  C   UNL     1       1.319   9.091  19.247  0.00  0.00    +0.000 A 
ATOM      8  N   UNL     1       1.596   8.920  17.915  0.00  0.00    +0.000 NA
ATOM      9  N   UNL     1       2.256   7.785  17.767  0.00  0.00    +0.000 NA
ATOM     10  N   UNL     1       2.374   7.221  18.987  0.00  0.00    +0.000 N 
ENDROOT
BRANCH   1  11
ATOM     11  O   UNL     1       0.299  11.340  19.303  0.00  0.00    +0.000 OA
BRANCH  11  17
ATOM     12  C   UNL     1      -2.494  10.954  16.873  0.00  0.00    +0.000 A 
ATOM     13  C   UNL     1      -3.546  11.414  17.669  0.00  0.00    +0.000 A 
ATOM     14  C   UNL     1      -3.286  11.881  18.957  0.00  0.00    +0.000 A 
ATOM     15 CL   UNL     1      -4.582  12.473  19.922  0.00  0.00    +0.000 Cl
ATOM     16  C   UNL     1      -1.992  11.862  19.478  0.00  0.00    +0.000 A 
ATOM     17  C   UNL     1      -0.943  11.375  18.699  0.00  0.00    +0.000 A 
ATOM     18  C   UNL     1      -1.188  10.975  17.376  0.00  0.00    +0.000 A 
BRANCH  12  20
ATOM     19  N   UNL     1      -2.971  10.012  14.500  0.00  0.00    +0.000 NA
ATOM     20  C   UNL     1      -2.746  10.438  15.561  0.00  0.00    +0.000 C 
ENDBRANCH  12  20
ENDBRANCH  11  17
ENDBRANCH   1  11
BRANCH  10  21
ATOM     21  C   UNL     1       2.843   5.855  19.080  0.00  0.00    +0.000 C 
BRANCH  21  22
ATOM     22  C   UNL     1       4.296   5.720  18.790  0.00  0.00    +0.000 A 
ATOM     23  N   UNL     1       5.135   5.321  19.763  0.00  0.00    +0.000 NA
ATOM     24  N   UNL     1       6.293   5.088  19.109  0.00  0.00    +0.000 N 
ATOM     25  C   UNL     1       6.233   5.344  17.773  0.00  0.00    +0.000 A 
ATOM     26  N   UNL     1       7.214   5.128  16.878  0.00  0.00    +0.000 NA
ATOM     27  C   UNL     1       6.860   5.422  15.614  0.00  0.00    +0.000 A 
ATOM     28  N   UNL     1       7.780   5.080  14.623  0.00  0.00    +0.000 N 
ATOM     29  C   UNL     1       5.621   5.947  15.246  0.00  0.00    +0.000 A 
ATOM     30  C   UNL     1       4.634   6.166  16.214  0.00  0.00    +0.000 A 
ATOM     31  C   UNL     1       4.953   5.818  17.532  0.00  0.00    +0.000 A 
ATOM     32  H   UNL     1       7.085   4.714  19.619  0.00  0.00    +0.000 HD
ATOM     33  H   UNL     1       8.631   4.763  15.080  0.00  0.00    +0.000 HD
ATOM     34  H   UNL     1       7.943   5.832  13.967  0.00  0.00    +0.000 HD
ENDBRANCH  21  22
ENDBRANCH  10  21
TORSDOF 5
ENDMDL
MODEL 6
REMARK VINA RESULT:      -8.3      2.068      2.547
REMARK  Name = 
REMARK  5 active torsions:
REMARK  status: ('A' for Active; 'I' for Inactive)
REMARK    1  A    between atoms: C_2  and  C_3
REMARK    2  A    between atoms: C_8  and  O_9
REMARK    3  A    between atoms: O_9  and  C_10
REMARK    4  A    between atoms: N_19  and  C_20
REMARK    5  A    between atoms: C_20  and  C_21
REMARK                            x       y       z     vdW  Elec       q    Type
REMARK                         _______ _______ _______ _____ _____    ______ ____
ROOT
ATOM      1  C   UNL     1       2.768   5.250  18.561  0.00  0.00    +0.000 A 
ATOM      2  C   UNL     1       2.531   4.394  19.647  0.00  0.00    +0.000 A 
ATOM      3 CL   UNL     1       3.035   2.741  19.601  0.00  0.00    +0.000 Cl
ATOM      4  C   UNL     1       1.877   4.852  20.799  0.00  0.00    +0.000 A 
ATOM      5  C   UNL     1       1.471   6.186  20.929  0.00  0.00    +0.000 A 
ATOM      6  C   UNL     1       1.821   7.048  19.886  0.00  0.00    +0.000 A 
ATOM      7  C   UNL     1       2.473   6.617  18.735  0.00  0.00    +0.000 A 
ATOM      8  N   UNL     1       2.684   7.689  17.905  0.00  0.00    +0.000 NA
ATOM      9  N   UNL     1       2.176   8.767  18.475  0.00  0.00    +0.000 NA
ATOM     10  N   UNL     1       1.672   8.396  19.670  0.00  0.00    +0.000 N 
ENDROOT
BRANCH   1  11
ATOM     11  O   UNL     1       3.291   4.717  17.387  0.00  0.00    +0.000 OA
BRANCH  11  17
ATOM     12  C   UNL     1       6.575   5.107  15.679  0.00  0.00    +0.000 A 
ATOM     13  C   UNL     1       7.373   5.386  16.792  0.00  0.00    +0.000 A 
ATOM     14  C   UNL     1       6.806   5.383  18.066  0.00  0.00    +0.000 A 
ATOM     15 CL   UNL     1       7.799   5.700  19.436  0.00  0.00    +0.000 Cl
ATOM     16  C   UNL     1       5.444   5.143  18.244  0.00  0.00    +0.000 A 
ATOM     17  C   UNL     1       4.638   4.894  17.134  0.00  0.00    +0.000 A 
ATOM     18  C   UNL     1       5.217   4.820  15.858  0.00  0.00    +0.000 A 
BRANCH  12  20
ATOM     19  N   UNL     1       7.590   5.143  13.289  0.00  0.00    +0.000 NA
ATOM     20  C   UNL     1       7.132   5.138  14.360  0.00  0.00    +0.000 C 
ENDBRANCH  12  20
ENDBRANCH  11  17
ENDBRANCH   1  11
BRANCH  10  21
ATOM     21  C   UNL     1       1.272   9.425  20.606  0.00  0.00    +0.000 C 
BRANCH  21  22
ATOM     22  C   UNL     1       0.567  10.560  19.952  0.00  0.00    +0.000 A 
ATOM     23  N   UNL     1       1.099  11.795  20.007  0.00  0.00    +0.000 NA
ATOM     24  N   UNL     1       0.345  12.504  19.140  0.00  0.00    +0.000 N 
ATOM     25  C   UNL     1      -0.652  11.783  18.556  0.00  0.00    +0.000 A 
ATOM     26  N   UNL     1      -1.496  12.220  17.604  0.00  0.00    +0.000 NA
ATOM     27  C   UNL     1      -2.348  11.274  17.169  0.00  0.00    +0.000 A 
ATOM     28  N   UNL     1      -3.148  11.622  16.081  0.00  0.00    +0.000 N 
ATOM     29  C   UNL     1      -2.405   9.975  17.674  0.00  0.00    +0.000 A 
ATOM     30  C   UNL     1      -1.514   9.568  18.673  0.00  0.00    +0.000 A 
ATOM     31  C   UNL     1      -0.577  10.514  19.107  0.00  0.00    +0.000 A 
ATOM     32  H   UNL     1       0.583  13.471  18.951  0.00  0.00    +0.000 HD
ATOM     33  H   UNL     1      -3.006  12.610  15.889  0.00  0.00    +0.000 HD
ATOM     34  H   UNL     1      -4.121  11.385  16.221  0.00  0.00    +0.000 HD
ENDBRANCH  21  22
ENDBRANCH  10  21
TORSDOF 5
ENDMDL
MODEL 7
REMARK VINA RESULT:      -8.3      1.310      1.581
REMARK  Name = 
REMARK  5 active torsions:
REMARK  status: ('A' for Active; 'I' for Inactive)
REMARK    1  A    between atoms: C_2  and  C_3
REMARK    2  A    between atoms: C_8  and  O_9
REMARK    3  A    between atoms: O_9  and  C_10
REMARK    4  A    between atoms: N_19  and  C_20
REMARK    5  A    between atoms: C_20  and  C_21
REMARK                            x       y       z     vdW  Elec       q    Type
REMARK                         _______ _______ _______ _____ _____    ______ ____
ROOT
ATOM      1  C   UNL     1       2.664   5.157  18.537  0.00  0.00    +0.000 A 
ATOM      2  C   UNL     1       2.362   4.295  19.602  0.00  0.00    +0.000 A 
ATOM      3 CL   UNL     1       2.791   2.621  19.538  0.00  0.00    +0.000 Cl
ATOM      4  C   UNL     1       1.703   4.763  20.746  0.00  0.00    +0.000 A 
ATOM      5  C   UNL     1       1.355   6.113  20.890  0.00  0.00    +0.000 A 
ATOM      6  C   UNL     1       1.769   6.975  19.871  0.00  0.00    +0.000 A 
ATOM      7  C   UNL     1       2.427   6.533  18.728  0.00  0.00    +0.000 A 
ATOM      8  N   UNL     1       2.706   7.607  17.922  0.00  0.00    +0.000 NA
ATOM      9  N   UNL     1       2.235   8.699  18.499  0.00  0.00    +0.000 NA
ATOM     10  N   UNL     1       1.686   8.331  19.676  0.00  0.00    +0.000 N 
ENDROOT
BRANCH   1  11
ATOM     11  O   UNL     1       3.190   4.620  17.366  0.00  0.00    +0.000 OA
BRANCH  11  17
ATOM     12  C   UNL     1       6.857   4.982  17.886  0.00  0.00    +0.000 A 
ATOM     13  C   UNL     1       7.289   4.780  16.573  0.00  0.00    +0.000 A 
ATOM     14  C   UNL     1       6.351   4.584  15.560  0.00  0.00    +0.000 A 
ATOM     15 CL   UNL     1       6.888   4.364  13.940  0.00  0.00    +0.000 Cl
ATOM     16  C   UNL     1       4.986   4.549  15.844  0.00  0.00    +0.000 A 
ATOM     17  C   UNL     1       4.552   4.720  17.157  0.00  0.00    +0.000 A 
ATOM     18  C   UNL     1       5.486   4.993  18.168  0.00  0.00    +0.000 A 
BRANCH  12  20
ATOM     19  N   UNL     1       8.593   5.281  19.794  0.00  0.00    +0.000 NA
ATOM     20  C   UNL     1       7.806   5.152  18.946  0.00  0.00    +0.000 C 
ENDBRANCH  12  20
ENDBRANCH  11  17
ENDBRANCH   1  11
BRANCH  10  21
ATOM     21  C   UNL     1       1.312   9.362  20.620  0.00  0.00    +0.000 C 
BRANCH  21  22
ATOM     22  C   UNL     1       0.620  10.512  19.978  0.00  0.00    +0.000 A 
ATOM     23  N   UNL     1       1.166  11.741  20.048  0.00  0.00    +0.000 NA
ATOM     24  N   UNL     1       0.422  12.468  19.187  0.00  0.00    +0.000 N 
ATOM     25  C   UNL     1      -0.582  11.764  18.594  0.00  0.00    +0.000 A 
ATOM     26  N   UNL     1      -1.420  12.221  17.646  0.00  0.00    +0.000 NA
ATOM     27  C   UNL     1      -2.282  11.290  17.199  0.00  0.00    +0.000 A 
ATOM     28  N   UNL     1      -3.076  11.658  16.114  0.00  0.00    +0.000 N 
ATOM     29  C   UNL     1      -2.354   9.986  17.689  0.00  0.00    +0.000 A 
ATOM     30  C   UNL     1      -1.469   9.558  18.685  0.00  0.00    +0.000 A 
ATOM     31  C   UNL     1      -0.522  10.488  19.131  0.00  0.00    +0.000 A 
ATOM     32  H   UNL     1       0.670  13.434  19.010  0.00  0.00    +0.000 HD
ATOM     33  H   UNL     1      -2.922  12.647  15.933  0.00  0.00    +0.000 HD
ATOM     34  H   UNL     1      -4.052  11.431  16.249  0.00  0.00    +0.000 HD
ENDBRANCH  21  22
ENDBRANCH  10  21
TORSDOF 5
ENDMDL
MODEL 8
REMARK VINA RESULT:      -8.2      2.106      2.933
REMARK  Name = 
REMARK  5 active torsions:
REMARK  status: ('A' for Active; 'I' for Inactive)
REMARK    1  A    between atoms: C_2  and  C_3
REMARK    2  A    between atoms: C_8  and  O_9
REMARK    3  A    between atoms: O_9  and  C_10
REMARK    4  A    between atoms: N_19  and  C_20
REMARK    5  A    between atoms: C_20  and  C_21
REMARK                            x       y       z     vdW  Elec       q    Type
REMARK                         _______ _______ _______ _____ _____    ______ ____
ROOT
ATOM      1  C   UNL     1       3.007   4.769  18.794  0.00  0.00    +0.000 A 
ATOM      2  C   UNL     1       2.596   4.136  19.978  0.00  0.00    +0.000 A 
ATOM      3 CL   UNL     1       3.017   2.490  20.297  0.00  0.00    +0.000 Cl
ATOM      4  C   UNL     1       1.829   4.818  20.933  0.00  0.00    +0.000 A 
ATOM      5  C   UNL     1       1.479   6.164  20.765  0.00  0.00    +0.000 A 
ATOM      6  C   UNL     1       1.998   6.807  19.638  0.00  0.00    +0.000 A 
ATOM      7  C   UNL     1       2.762   6.152  18.679  0.00  0.00    +0.000 A 
ATOM      8  N   UNL     1       3.128   7.044  17.703  0.00  0.00    +0.000 NA
ATOM      9  N   UNL     1       2.610   8.223  17.998  0.00  0.00    +0.000 NA
ATOM     10  N   UNL     1       1.945   8.095  19.164  0.00  0.00    +0.000 N 
ENDROOT
BRANCH   1  11
ATOM     11  O   UNL     1       3.642   4.013  17.814  0.00  0.00    +0.000 OA
BRANCH  11  17
ATOM     12  C   UNL     1       6.670   4.868  15.826  0.00  0.00    +0.000 A 
ATOM     13  C   UNL     1       7.529   5.221  16.869  0.00  0.00    +0.000 A 
ATOM     14  C   UNL     1       7.093   5.113  18.190  0.00  0.00    +0.000 A 
ATOM     15 CL   UNL     1       8.164   5.523  19.472  0.00  0.00    +0.000 Cl
ATOM     16  C   UNL     1       5.795   4.694  18.484  0.00  0.00    +0.000 A 
ATOM     17  C   UNL     1       4.925   4.370  17.444  0.00  0.00    +0.000 A 
ATOM     18  C   UNL     1       5.382   4.403  16.119  0.00  0.00    +0.000 A 
BRANCH  12  20
ATOM     19  N   UNL     1       7.442   5.129  13.360  0.00  0.00    +0.000 NA
ATOM     20  C   UNL     1       7.088   5.003  14.462  0.00  0.00    +0.000 C 
ENDBRANCH  12  20
ENDBRANCH  11  17
ENDBRANCH   1  11
BRANCH  10  21
ATOM     21  C   UNL     1       1.486   9.291  19.839  0.00  0.00    +0.000 C 
BRANCH  21  22
ATOM     22  C   UNL     1       0.415  10.003  19.091  0.00  0.00    +0.000 A 
ATOM     23  N   UNL     1       0.155   9.662  17.816  0.00  0.00    +0.000 NA
ATOM     24  N   UNL     1      -0.990  10.323  17.538  0.00  0.00    +0.000 N 
ATOM     25  C   UNL     1      -1.453  11.083  18.570  0.00  0.00    +0.000 A 
ATOM     26  N   UNL     1      -2.604  11.778  18.589  0.00  0.00    +0.000 NA
ATOM     27  C   UNL     1      -2.836  12.396  19.762  0.00  0.00    +0.000 A 
ATOM     28  N   UNL     1      -4.081  13.010  19.896  0.00  0.00    +0.000 N 
ATOM     29  C   UNL     1      -1.962  12.374  20.849  0.00  0.00    +0.000 A 
ATOM     30  C   UNL     1      -0.770  11.645  20.778  0.00  0.00    +0.000 A 
ATOM     31  C   UNL     1      -0.526  10.945  19.591  0.00  0.00    +0.000 A 
ATOM     32  H   UNL     1      -1.437  10.186  16.640  0.00  0.00    +0.000 HD
ATOM     33  H   UNL     1      -4.551  12.968  18.996  0.00  0.00    +0.000 HD
ATOM     34  H   UNL     1      -4.014  13.952  20.261  0.00  0.00    +0.000 HD
ENDBRANCH  21  22
ENDBRANCH  10  21
TORSDOF 5
ENDMDL
MODEL 9
REMARK VINA RESULT:      -8.2      2.288      3.121
REMARK  Name = 
REMARK  5 active torsions:
REMARK  status: ('A' for Active; 'I' for Inactive)
REMARK    1  A    between atoms: C_2  and  C_3
REMARK    2  A    between atoms: C_8  and  O_9
REMARK    3  A    between atoms: O_9  and  C_10
REMARK    4  A    between atoms: N_19  and  C_20
REMARK    5  A    between atoms: C_20  and  C_21
REMARK                            x       y       z     vdW  Elec       q    Type
REMARK                         _______ _______ _______ _____ _____    ______ ____
ROOT
ATOM      1  C   UNL     1       2.838   4.629  18.456  0.00  0.00    +0.000 A 
ATOM      2  C   UNL     1       2.619   3.544  19.319  0.00  0.00    +0.000 A 
ATOM      3 CL   UNL     1       3.142   1.952  18.894  0.00  0.00    +0.000 Cl
ATOM      4  C   UNL     1       1.967   3.718  20.547  0.00  0.00    +0.000 A 
ATOM      5  C   UNL     1       1.546   4.982  20.980  0.00  0.00    +0.000 A 
ATOM      6  C   UNL     1       1.879   6.064  20.161  0.00  0.00    +0.000 A 
ATOM      7  C   UNL     1       2.528   5.916  18.940  0.00  0.00    +0.000 A 
ATOM      8  N   UNL     1       2.721   7.151  18.376  0.00  0.00    +0.000 NA
ATOM      9  N   UNL     1       2.204   8.064  19.179  0.00  0.00    +0.000 NA
ATOM     10  N   UNL     1       1.712   7.423  20.259  0.00  0.00    +0.000 N 
ENDROOT
BRANCH   1  11
ATOM     11  O   UNL     1       3.360   4.385  17.189  0.00  0.00    +0.000 OA
BRANCH  11  17
ATOM     12  C   UNL     1       6.639   5.057  15.562  0.00  0.00    +0.000 A 
ATOM     13  C   UNL     1       7.394   5.358  16.699  0.00  0.00    +0.000 A 
ATOM     14  C   UNL     1       6.806   5.277  17.961  0.00  0.00    +0.000 A 
ATOM     15 CL   UNL     1       7.748   5.621  19.359  0.00  0.00    +0.000 Cl
ATOM     16  C   UNL     1       5.461   4.936  18.103  0.00  0.00    +0.000 A 
ATOM     17  C   UNL     1       4.695   4.665  16.970  0.00  0.00    +0.000 A 
ATOM     18  C   UNL     1       5.301   4.670  15.705  0.00  0.00    +0.000 A 
BRANCH  12  20
ATOM     19  N   UNL     1       7.706   5.254  13.203  0.00  0.00    +0.000 NA
ATOM     20  C   UNL     1       7.217   5.167  14.256  0.00  0.00    +0.000 C 
ENDBRANCH  12  20
ENDBRANCH  11  17
ENDBRANCH   1  11
BRANCH  10  21
ATOM     21  C   UNL     1       1.306   8.206  21.407  0.00  0.00    +0.000 C 
BRANCH  21  22
ATOM     22  C   UNL     1       0.880   9.585  21.047  0.00  0.00    +0.000 A 
ATOM     23  N   UNL     1       1.498  10.640  21.609  0.00  0.00    +0.000 NA
ATOM     24  N   UNL     1       1.036  11.693  20.901  0.00  0.00    +0.000 N 
ATOM     25  C   UNL     1       0.139  11.356  19.932  0.00  0.00    +0.000 A 
ATOM     26  N   UNL     1      -0.416  12.194  19.039  0.00  0.00    +0.000 NA
ATOM     27  C   UNL     1      -1.228  11.577  18.161  0.00  0.00    +0.000 A 
ATOM     28  N   UNL     1      -1.718  12.365  17.119  0.00  0.00    +0.000 N 
ATOM     29  C   UNL     1      -1.522  10.214  18.184  0.00  0.00    +0.000 A 
ATOM     30  C   UNL     1      -0.929   9.383  19.141  0.00  0.00    +0.000 A 
ATOM     31  C   UNL     1      -0.035   9.985  20.034  0.00  0.00    +0.000 A 
ATOM     32  H   UNL     1       1.400  12.619  21.093  0.00  0.00    +0.000 HD
ATOM     33  H   UNL     1      -1.443  13.328  17.297  0.00  0.00    +0.000 HD
ATOM     34  H   UNL     1      -2.715  12.260  16.985  0.00  0.00    +0.000 HD
ENDBRANCH  21  22
ENDBRANCH  10  21
TORSDOF 5
ENDMDL
