MODEL 1
REMARK VINA RESULT:      -8.1      0.000      0.000
REMARK  Name = 
REMARK  6 active torsions:
REMARK  status: ('A' for Active; 'I' for Inactive)
REMARK    1  A    between atoms: C_1  and  C_2
REMARK    2  A    between atoms: C_2  and  O_3
REMARK    3  A    between atoms: C_2  and  C_4
REMARK    4  A    between atoms: C_2  and  C_11
REMARK    5  A    between atoms: C_4  and  N_5
REMARK    6  A    between atoms: N_13  and  C_14
REMARK                            x       y       z     vdW  Elec       q    Type
REMARK                         _______ _______ _______ _____ _____    ______ ____
ROOT
ATOM      1  C   UNL     1       7.280   6.887  17.849  0.00  0.00    +0.000 C 
ATOM      2  C   UNL     1       7.090   5.425  18.253  0.00  0.00    +0.000 C 
ENDROOT
BRANCH   2   3
ATOM      3  C   UNL     1       5.621   5.042  18.537  0.00  0.00    +0.000 C 
ATOM      4  O   UNL     1       4.744   5.901  18.460  0.00  0.00    +0.000 OA
ATOM      5  N   UNL     1       5.372   3.695  18.738  0.00  0.00    +0.000 N 
ATOM      6  H   UNL     1       6.169   3.078  18.815  0.00  0.00    +0.000 HD
BRANCH   5   7
ATOM      7  C   UNL     1       4.089   3.121  18.921  0.00  0.00    +0.000 A 
ATOM      8  C   UNL     1       3.373   2.516  17.889  0.00  0.00    +0.000 A 
ATOM      9  C   UNL     1       2.107   2.022  18.142  0.00  0.00    +0.000 A 
ATOM     10  N   UNL     1       1.515   2.081  19.348  0.00  0.00    +0.000 NA
ATOM     11  C   UNL     1       2.235   2.650  20.334  0.00  0.00    +0.000 A 
ATOM     12 CL   UNL     1       1.427   2.718  21.846  0.00  0.00    +0.000 Cl
ATOM     13  C   UNL     1       3.514   3.167  20.188  0.00  0.00    +0.000 A 
ENDBRANCH   5   7
ENDBRANCH   2   3
BRANCH   2  14
ATOM     14  O   UNL     1       7.791   5.273  19.509  0.00  0.00    +0.000 OA
ATOM     15  H   UNL     1       8.393   6.034  19.609  0.00  0.00    +0.000 HD
ENDBRANCH   2  14
BRANCH   2  16
ATOM     16  C   UNL     1       7.685   4.437  17.218  0.00  0.00    +0.000 C 
BRANCH  16  17
ATOM     17  N   UNL     1       7.109   4.497  15.884  0.00  0.00    +0.000 N 
ATOM     18  C   UNL     1       6.026   3.797  15.422  0.00  0.00    +0.000 A 
ATOM     19  C   UNL     1       5.879   4.184  14.121  0.00  0.00    +0.000 A 
ATOM     20  F   UNL     1       4.958   3.791  13.292  0.00  0.00    +0.000 F 
ATOM     21  C   UNL     1       6.907   5.093  13.862  0.00  0.00    +0.000 A 
ATOM     22  N   UNL     1       7.688   5.269  14.935  0.00  0.00    +0.000 NA
ENDBRANCH  16  17
ENDBRANCH   2  16
TORSDOF 5
ENDMDL
MODEL 2
REMARK VINA RESULT:      -7.8      1.526      1.675
REMARK  Name = 
REMARK  6 active torsions:
REMARK  status: ('A' for Active; 'I' for Inactive)
REMARK    1  A    between atoms: C_1  and  C_2
REMARK    2  A    between atoms: C_2  and  O_3
REMARK    3  A    between atoms: C_2  and  C_4
REMARK    4  A    between atoms: C_2  and  C_11
REMARK    5  A    between atoms: C_4  and  N_5
REMARK    6  A    between atoms: N_13  and  C_14
REMARK                            x       y       z     vdW  Elec       q    Type
REMARK                         _______ _______ _______ _____ _____    ______ ____
ROOT
ATOM      1  C   UNL     1       7.466   6.634  17.543  0.00  0.00    +0.000 C 
ATOM      2  C   UNL     1       6.844   5.404  16.881  0.00  0.00    +0.000 C 
ENDROOT
BRANCH   2   3
ATOM      3  C   UNL     1       5.962   4.563  17.830  0.00  0.00    +0.000 C 
ATOM      4  O   UNL     1       6.339   4.355  18.982  0.00  0.00    +0.000 OA
ATOM      5  N   UNL     1       4.718   4.201  17.342  0.00  0.00    +0.000 N 
ATOM      6  H   UNL     1       4.522   4.394  16.370  0.00  0.00    +0.000 HD
BRANCH   5   7
ATOM      7  C   UNL     1       3.722   3.512  18.079  0.00  0.00    +0.000 A 
ATOM      8  C   UNL     1       3.546   2.131  18.011  0.00  0.00    +0.000 A 
ATOM      9  C   UNL     1       2.519   1.544  18.727  0.00  0.00    +0.000 A 
ATOM     10  N   UNL     1       1.669   2.235  19.507  0.00  0.00    +0.000 NA
ATOM     11  C   UNL     1       1.873   3.564  19.573  0.00  0.00    +0.000 A 
ATOM     12 CL   UNL     1       0.751   4.400  20.566  0.00  0.00    +0.000 Cl
ATOM     13  C   UNL     1       2.877   4.249  18.905  0.00  0.00    +0.000 A 
ENDBRANCH   5   7
ENDBRANCH   2   3
BRANCH   2  14
ATOM     14  O   UNL     1       7.956   4.555  16.513  0.00  0.00    +0.000 OA
ATOM     15  H   UNL     1       8.488   5.033  15.849  0.00  0.00    +0.000 HD
ENDBRANCH   2  14
BRANCH   2  16
ATOM     16  C   UNL     1       6.034   5.757  15.608  0.00  0.00    +0.000 C 
BRANCH  16  17
ATOM     17  N   UNL     1       6.436   5.068  14.392  0.00  0.00    +0.000 N 
ATOM     18  C   UNL     1       5.808   4.005  13.800  0.00  0.00    +0.000 A 
ATOM     19  C   UNL     1       6.560   3.713  12.699  0.00  0.00    +0.000 A 
ATOM     20  F   UNL     1       6.325   2.785  11.820  0.00  0.00    +0.000 F 
ATOM     21  C   UNL     1       7.627   4.615  12.700  0.00  0.00    +0.000 A 
ATOM     22  N   UNL     1       7.574   5.435  13.757  0.00  0.00    +0.000 NA
ENDBRANCH  16  17
ENDBRANCH   2  16
TORSDOF 5
ENDMDL
MODEL 3
REMARK VINA RESULT:      -7.8      1.889      2.178
REMARK  Name = 
REMARK  6 active torsions:
REMARK  status: ('A' for Active; 'I' for Inactive)
REMARK    1  A    between atoms: C_1  and  C_2
REMARK    2  A    between atoms: C_2  and  O_3
REMARK    3  A    between atoms: C_2  and  C_4
REMARK    4  A    between atoms: C_2  and  C_11
REMARK    5  A    between atoms: C_4  and  N_5
REMARK    6  A    between atoms: N_13  and  C_14
REMARK                            x       y       z     vdW  Elec       q    Type
REMARK                         _______ _______ _______ _____ _____    ______ ____
ROOT
ATOM      1  C   UNL     1       7.492   6.850  17.741  0.00  0.00    +0.000 C 
ATOM      2  C   UNL     1       6.671   5.696  17.166  0.00  0.00    +0.000 C 
ENDROOT
BRANCH   2   3
ATOM      3  C   UNL     1       5.633   5.116  18.151  0.00  0.00    +0.000 C 
ATOM      4  O   UNL     1       6.018   4.561  19.180  0.00  0.00    +0.000 OA
ATOM      5  N   UNL     1       4.306   5.381  17.862  0.00  0.00    +0.000 N 
ATOM      6  H   UNL     1       4.098   5.816  16.973  0.00  0.00    +0.000 HD
BRANCH   5   7
ATOM      7  C   UNL     1       3.205   5.024  18.680  0.00  0.00    +0.000 A 
ATOM      8  C   UNL     1       2.819   5.760  19.800  0.00  0.00    +0.000 A 
ATOM      9  C   UNL     1       1.762   5.316  20.571  0.00  0.00    +0.000 A 
ATOM     10  N   UNL     1       1.062   4.199  20.298  0.00  0.00    +0.000 NA
ATOM     11  C   UNL     1       1.439   3.517  19.200  0.00  0.00    +0.000 A 
ATOM     12 CL   UNL     1       0.528   2.094  18.909  0.00  0.00    +0.000 Cl
ATOM     13  C   UNL     1       2.477   3.882  18.355  0.00  0.00    +0.000 A 
ENDBRANCH   5   7
ENDBRANCH   2   3
BRANCH   2  14
ATOM     14  O   UNL     1       7.618   4.632  16.912  0.00  0.00    +0.000 OA
ATOM     15  H   UNL     1       8.156   4.513  17.717  0.00  0.00    +0.000 HD
ENDBRANCH   2  14
BRANCH   2  16
ATOM     16  C   UNL     1       5.963   6.070  15.839  0.00  0.00    +0.000 C 
BRANCH  16  17
ATOM     17  N   UNL     1       6.292   5.239  14.691  0.00  0.00    +0.000 N 
ATOM     18  C   UNL     1       5.535   4.228  14.162  0.00  0.00    +0.000 A 
ATOM     19  C   UNL     1       6.263   3.749  13.109  0.00  0.00    +0.000 A 
ATOM     20  F   UNL     1       5.920   2.796  12.296  0.00  0.00    +0.000 F 
ATOM     21  C   UNL     1       7.443   4.495  13.076  0.00  0.00    +0.000 A 
ATOM     22  N   UNL     1       7.482   5.396  14.066  0.00  0.00    +0.000 NA
ENDBRANCH  16  17
ENDBRANCH   2  16
TORSDOF 5
ENDMDL
MODEL 4
REMARK VINA RESULT:      -7.7      0.982      1.219
REMARK  Name = 
REMARK  6 active torsions:
REMARK  status: ('A' for Active; 'I' for Inactive)
REMARK    1  A    between atoms: C_1  and  C_2
REMARK    2  A    between atoms: C_2  and  O_3
REMARK    3  A    between atoms: C_2  and  C_4
REMARK    4  A    between atoms: C_2  and  C_11
REMARK    5  A    between atoms: C_4  and  N_5
REMARK    6  A    between atoms: N_13  and  C_14
REMARK                            x       y       z     vdW  Elec       q    Type
REMARK                         _______ _______ _______ _____ _____    ______ ____
ROOT
ATOM      1  C   UNL     1       8.087   5.962  19.287  0.00  0.00    +0.000 C 
ATOM      2  C   UNL     1       7.240   5.247  18.234  0.00  0.00    +0.000 C 
ENDROOT
BRANCH   2   3
ATOM      3  C   UNL     1       5.823   4.872  18.721  0.00  0.00    +0.000 C 
ATOM      4  O   UNL     1       5.107   5.736  19.226  0.00  0.00    +0.000 OA
ATOM      5  N   UNL     1       5.401   3.586  18.430  0.00  0.00    +0.000 N 
ATOM      6  H   UNL     1       6.080   2.947  18.042  0.00  0.00    +0.000 HD
BRANCH   5   7
ATOM      7  C   UNL     1       4.109   3.070  18.704  0.00  0.00    +0.000 A 
ATOM      8  C   UNL     1       3.248   2.610  17.708  0.00  0.00    +0.000 A 
ATOM      9  C   UNL     1       1.987   2.165  18.057  0.00  0.00    +0.000 A 
ATOM     10  N   UNL     1       1.532   2.141  19.323  0.00  0.00    +0.000 NA
ATOM     11  C   UNL     1       2.389   2.570  20.268  0.00  0.00    +0.000 A 
ATOM     12 CL   UNL     1       1.754   2.537  21.861  0.00  0.00    +0.000 Cl
ATOM     13  C   UNL     1       3.677   3.026  20.027  0.00  0.00    +0.000 A 
ENDBRANCH   5   7
ENDBRANCH   2   3
BRANCH   2  14
ATOM     14  O   UNL     1       7.916   3.995  17.973  0.00  0.00    +0.000 OA
ATOM     15  H   UNL     1       8.380   3.731  18.790  0.00  0.00    +0.000 HD
ENDBRANCH   2  14
BRANCH   2  16
ATOM     16  C   UNL     1       7.131   6.048  16.911  0.00  0.00    +0.000 C 
BRANCH  16  17
ATOM     17  N   UNL     1       6.606   5.315  15.770  0.00  0.00    +0.000 N 
ATOM     18  C   UNL     1       7.322   4.790  14.727  0.00  0.00    +0.000 A 
ATOM     19  C   UNL     1       6.393   4.207  13.913  0.00  0.00    +0.000 A 
ATOM     20  F   UNL     1       6.623   3.562  12.809  0.00  0.00    +0.000 F 
ATOM     21  C   UNL     1       5.150   4.435  14.508  0.00  0.00    +0.000 A 
ATOM     22  N   UNL     1       5.270   5.143  15.638  0.00  0.00    +0.000 NA
ENDBRANCH  16  17
ENDBRANCH   2  16
TORSDOF 5
ENDMDL
MODEL 5
REMARK VINA RESULT:      -7.6      1.677      1.949
REMARK  Name = 
REMARK  6 active torsions:
REMARK  status: ('A' for Active; 'I' for Inactive)
REMARK    1  A    between atoms: C_1  and  C_2
REMARK    2  A    between atoms: C_2  and  O_3
REMARK    3  A    between atoms: C_2  and  C_4
REMARK    4  A    between atoms: C_2  and  C_11
REMARK    5  A    between atoms: C_4  and  N_5
REMARK    6  A    between atoms: N_13  and  C_14
REMARK                            x       y       z     vdW  Elec       q    Type
REMARK                         _______ _______ _______ _____ _____    ______ ____
ROOT
ATOM      1  C   UNL     1       6.313   6.948  17.070  0.00  0.00    +0.000 C 
ATOM      2  C   UNL     1       6.744   5.721  17.873  0.00  0.00    +0.000 C 
ENDROOT
BRANCH   2   3
ATOM      3  C   UNL     1       5.583   5.015  18.606  0.00  0.00    +0.000 C 
ATOM      4  O   UNL     1       5.830   4.133  19.427  0.00  0.00    +0.000 OA
ATOM      5  N   UNL     1       4.317   5.528  18.376  0.00  0.00    +0.000 N 
ATOM      6  H   UNL     1       4.221   6.232  17.657  0.00  0.00    +0.000 HD
BRANCH   5   7
ATOM      7  C   UNL     1       3.131   5.090  19.016  0.00  0.00    +0.000 A 
ATOM      8  C   UNL     1       2.583   5.734  20.124  0.00  0.00    +0.000 A 
ATOM      9  C   UNL     1       1.448   5.214  20.717  0.00  0.00    +0.000 A 
ATOM     10  N   UNL     1       0.821   4.108  20.277  0.00  0.00    +0.000 NA
ATOM     11  C   UNL     1       1.356   3.516  19.192  0.00  0.00    +0.000 A 
ATOM     12 CL   UNL     1       0.531   2.100  18.684  0.00  0.00    +0.000 Cl
ATOM     13  C   UNL     1       2.484   3.961  18.518  0.00  0.00    +0.000 A 
ENDBRANCH   5   7
ENDBRANCH   2   3
BRANCH   2  14
ATOM     14  O   UNL     1       7.623   6.221  18.908  0.00  0.00    +0.000 OA
ATOM     15  H   UNL     1       8.329   6.739  18.475  0.00  0.00    +0.000 HD
ENDBRANCH   2  14
BRANCH   2  16
ATOM     16  C   UNL     1       7.512   4.685  17.014  0.00  0.00    +0.000 C 
BRANCH  16  17
ATOM     17  N   UNL     1       7.078   4.565  15.631  0.00  0.00    +0.000 N 
ATOM     18  C   UNL     1       6.074   3.768  15.149  0.00  0.00    +0.000 A 
ATOM     19  C   UNL     1       6.052   3.997  13.803  0.00  0.00    +0.000 A 
ATOM     20  F   UNL     1       5.237   3.470  12.938  0.00  0.00    +0.000 F 
ATOM     21  C   UNL     1       7.071   4.915  13.543  0.00  0.00    +0.000 A 
ATOM     22  N   UNL     1       7.728   5.248  14.661  0.00  0.00    +0.000 NA
ENDBRANCH  16  17
ENDBRANCH   2  16
TORSDOF 5
ENDMDL
MODEL 6
REMARK VINA RESULT:      -7.5      0.957      1.021
REMARK  Name = 
REMARK  6 active torsions:
REMARK  status: ('A' for Active; 'I' for Inactive)
REMARK    1  A    between atoms: C_1  and  C_2
REMARK    2  A    between atoms: C_2  and  O_3
REMARK    3  A    between atoms: C_2  and  C_4
REMARK    4  A    between atoms: C_2  and  C_11
REMARK    5  A    between atoms: C_4  and  N_5
REMARK    6  A    between atoms: N_13  and  C_14
REMARK                            x       y       z     vdW  Elec       q    Type
REMARK                         _______ _______ _______ _____ _____    ______ ____
ROOT
ATOM      1  C   UNL     1       7.933   6.289  18.623  0.00  0.00    +0.000 C 
ATOM      2  C   UNL     1       6.995   5.408  17.797  0.00  0.00    +0.000 C 
ENDROOT
BRANCH   2   3
ATOM      3  C   UNL     1       5.814   4.826  18.603  0.00  0.00    +0.000 C 
ATOM      4  O   UNL     1       5.480   5.359  19.660  0.00  0.00    +0.000 OA
ATOM      5  N   UNL     1       5.116   3.794  17.999  0.00  0.00    +0.000 N 
ATOM      6  H   UNL     1       5.495   3.409  17.145  0.00  0.00    +0.000 HD
BRANCH   5   7
ATOM      7  C   UNL     1       3.948   3.183  18.522  0.00  0.00    +0.000 A 
ATOM      8  C   UNL     1       3.067   2.436  17.742  0.00  0.00    +0.000 A 
ATOM      9  C   UNL     1       1.926   1.913  18.322  0.00  0.00    +0.000 A 
ATOM     10  N   UNL     1       1.612   2.076  19.620  0.00  0.00    +0.000 NA
ATOM     11  C   UNL     1       2.490   2.783  20.357  0.00  0.00    +0.000 A 
ATOM     12 CL   UNL     1       2.033   2.978  21.999  0.00  0.00    +0.000 Cl
ATOM     13  C   UNL     1       3.665   3.341  19.876  0.00  0.00    +0.000 A 
ENDBRANCH   5   7
ENDBRANCH   2   3
BRANCH   2  14
ATOM     14  O   UNL     1       7.791   4.274  17.380  0.00  0.00    +0.000 OA
ATOM     15  H   UNL     1       8.513   4.162  18.028  0.00  0.00    +0.000 HD
ENDBRANCH   2  14
BRANCH   2  16
ATOM     16  C   UNL     1       6.449   6.132  16.540  0.00  0.00    +0.000 C 
BRANCH  16  17
ATOM     17  N   UNL     1       6.535   5.386  15.294  0.00  0.00    +0.000 N 
ATOM     18  C   UNL     1       5.572   4.579  14.749  0.00  0.00    +0.000 A 
ATOM     19  C   UNL     1       6.119   4.102  13.592  0.00  0.00    +0.000 A 
ATOM     20  F   UNL     1       5.550   3.312  12.731  0.00  0.00    +0.000 F 
ATOM     21  C   UNL     1       7.406   4.638  13.514  0.00  0.00    +0.000 A 
ATOM     22  N   UNL     1       7.681   5.408  14.575  0.00  0.00    +0.000 NA
ENDBRANCH  16  17
ENDBRANCH   2  16
TORSDOF 5
ENDMDL
MODEL 7
REMARK VINA RESULT:      -7.4      1.917      2.312
REMARK  Name = 
REMARK  6 active torsions:
REMARK  status: ('A' for Active; 'I' for Inactive)
REMARK    1  A    between atoms: C_1  and  C_2
REMARK    2  A    between atoms: C_2  and  O_3
REMARK    3  A    between atoms: C_2  and  C_4
REMARK    4  A    between atoms: C_2  and  C_11
REMARK    5  A    between atoms: C_4  and  N_5
REMARK    6  A    between atoms: N_13  and  C_14
REMARK                            x       y       z     vdW  Elec       q    Type
REMARK                         _______ _______ _______ _____ _____    ______ ____
ROOT
ATOM      1  C   UNL     1       7.879   6.423  18.422  0.00  0.00    +0.000 C 
ATOM      2  C   UNL     1       6.968   5.466  17.652  0.00  0.00    +0.000 C 
ENDROOT
BRANCH   2   3
ATOM      3  C   UNL     1       5.801   4.904  18.492  0.00  0.00    +0.000 C 
ATOM      4  O   UNL     1       6.043   4.206  19.475  0.00  0.00    +0.000 OA
ATOM      5  N   UNL     1       4.535   5.343  18.143  0.00  0.00    +0.000 N 
ATOM      6  H   UNL     1       4.445   5.889  17.298  0.00  0.00    +0.000 HD
BRANCH   5   7
ATOM      7  C   UNL     1       3.341   5.024  18.839  0.00  0.00    +0.000 A 
ATOM      8  C   UNL     1       2.883   5.753  19.935  0.00  0.00    +0.000 A 
ATOM      9  C   UNL     1       1.733   5.347  20.585  0.00  0.00    +0.000 A 
ATOM     10  N   UNL     1       1.008   4.276  20.212  0.00  0.00    +0.000 NA
ATOM     11  C   UNL     1       1.459   3.601  19.137  0.00  0.00    +0.000 A 
ATOM     12 CL   UNL     1       0.511   2.235  18.716  0.00  0.00    +0.000 Cl
ATOM     13  C   UNL     1       2.593   3.930  18.410  0.00  0.00    +0.000 A 
ENDBRANCH   5   7
ENDBRANCH   2   3
BRANCH   2  14
ATOM     14  O   UNL     1       7.796   4.331  17.309  0.00  0.00    +0.000 OA
ATOM     15  H   UNL     1       8.063   4.427  16.375  0.00  0.00    +0.000 HD
ENDBRANCH   2  14
BRANCH   2  16
ATOM     16  C   UNL     1       6.407   6.094  16.351  0.00  0.00    +0.000 C 
BRANCH  16  17
ATOM     17  N   UNL     1       6.383   5.220  15.188  0.00  0.00    +0.000 N 
ATOM     18  C   UNL     1       7.202   5.284  14.092  0.00  0.00    +0.000 A 
ATOM     19  C   UNL     1       6.790   4.268  13.278  0.00  0.00    +0.000 A 
ATOM     20  F   UNL     1       7.301   3.934  12.131  0.00  0.00    +0.000 F 
ATOM     21  C   UNL     1       5.718   3.653  13.928  0.00  0.00    +0.000 A 
ATOM     22  N   UNL     1       5.442   4.253  15.093  0.00  0.00    +0.000 NA
ENDBRANCH  16  17
ENDBRANCH   2  16
TORSDOF 5
ENDMDL
MODEL 8
REMARK VINA RESULT:      -7.4      1.485      1.755
REMARK  Name = 
REMARK  6 active torsions:
REMARK  status: ('A' for Active; 'I' for Inactive)
REMARK    1  A    between atoms: C_1  and  C_2
REMARK    2  A    between atoms: C_2  and  O_3
REMARK    3  A    between atoms: C_2  and  C_4
REMARK    4  A    between atoms: C_2  and  C_11
REMARK    5  A    between atoms: C_4  and  N_5
REMARK    6  A    between atoms: N_13  and  C_14
REMARK                            x       y       z     vdW  Elec       q    Type
REMARK                         _______ _______ _______ _____ _____    ______ ____
ROOT
ATOM      1  C   UNL     1       7.658   6.899  17.387  0.00  0.00    +0.000 C 
ATOM      2  C   UNL     1       6.911   5.585  17.153  0.00  0.00    +0.000 C 
ENDROOT
BRANCH   2   3
ATOM      3  C   UNL     1       6.180   5.052  18.404  0.00  0.00    +0.000 C 
ATOM      4  O   UNL     1       6.484   5.484  19.515  0.00  0.00    +0.000 OA
ATOM      5  N   UNL     1       5.117   4.196  18.168  0.00  0.00    +0.000 N 
ATOM      6  H   UNL     1       4.973   3.879  17.220  0.00  0.00    +0.000 HD
BRANCH   5   7
ATOM      7  C   UNL     1       4.258   3.669  19.165  0.00  0.00    +0.000 A 
ATOM      8  C   UNL     1       4.596   2.574  19.958  0.00  0.00    +0.000 A 
ATOM      9  C   UNL     1       3.680   2.094  20.875  0.00  0.00    +0.000 A 
ATOM     10  N   UNL     1       2.462   2.635  21.060  0.00  0.00    +0.000 NA
ATOM     11  C   UNL     1       2.167   3.705  20.298  0.00  0.00    +0.000 A 
ATOM     12 CL   UNL     1       0.597   4.343  20.559  0.00  0.00    +0.000 Cl
ATOM     13  C   UNL     1       3.016   4.269  19.357  0.00  0.00    +0.000 A 
ENDBRANCH   5   7
ENDBRANCH   2   3
BRANCH   2  14
ATOM     14  O   UNL     1       7.930   4.607  16.840  0.00  0.00    +0.000 OA
ATOM     15  H   UNL     1       8.611   4.652  17.538  0.00  0.00    +0.000 HD
ENDBRANCH   2  14
BRANCH   2  16
ATOM     16  C   UNL     1       5.911   5.669  15.972  0.00  0.00    +0.000 C 
BRANCH  16  17
ATOM     17  N   UNL     1       6.351   5.060  14.727  0.00  0.00    +0.000 N 
ATOM     18  C   UNL     1       5.752   4.026  14.059  0.00  0.00    +0.000 A 
ATOM     19  C   UNL     1       6.533   3.810  12.960  0.00  0.00    +0.000 A 
ATOM     20  F   UNL     1       6.331   2.932  12.022  0.00  0.00    +0.000 F 
ATOM     21  C   UNL     1       7.585   4.724  13.039  0.00  0.00    +0.000 A 
ATOM     22  N   UNL     1       7.497   5.479  14.141  0.00  0.00    +0.000 NA
ENDBRANCH  16  17
ENDBRANCH   2  16
TORSDOF 5
ENDMDL
MODEL 9
REMARK VINA RESULT:      -7.3      2.802      3.828
REMARK  Name = 
REMARK  6 active torsions:
REMARK  status: ('A' for Active; 'I' for Inactive)
REMARK    1  A    between atoms: C_1  and  C_2
REMARK    2  A    between atoms: C_2  and  O_3
REMARK    3  A    between atoms: C_2  and  C_4
REMARK    4  A    between atoms: C_2  and  C_11
REMARK    5  A    between atoms: C_4  and  N_5
REMARK    6  A    between atoms: N_13  and  C_14
REMARK                            x       y       z     vdW  Elec       q    Type
REMARK                         _______ _______ _______ _____ _____    ______ ____
ROOT
ATOM      1  C   UNL     1       5.502   4.130  13.867  0.00  0.00    +0.000 C 
ATOM      2  C   UNL     1       5.710   4.839  15.206  0.00  0.00    +0.000 C 
ENDROOT
BRANCH   2   3
ATOM      3  C   UNL     1       4.765   4.350  16.325  0.00  0.00    +0.000 C 
ATOM      4  O   UNL     1       4.821   3.179  16.698  0.00  0.00    +0.000 OA
ATOM      5  N   UNL     1       3.988   5.322  16.932  0.00  0.00    +0.000 N 
ATOM      6  H   UNL     1       3.994   6.247  16.526  0.00  0.00    +0.000 HD
BRANCH   5   7
ATOM      7  C   UNL     1       3.126   5.105  18.036  0.00  0.00    +0.000 A 
ATOM      8  C   UNL     1       3.133   5.909  19.175  0.00  0.00    +0.000 A 
ATOM      9  C   UNL     1       2.291   5.600  20.227  0.00  0.00    +0.000 A 
ATOM     10  N   UNL     1       1.442   4.556  20.216  0.00  0.00    +0.000 NA
ATOM     11  C   UNL     1       1.439   3.808  19.097  0.00  0.00    +0.000 A 
ATOM     12 CL   UNL     1       0.354   2.480  19.143  0.00  0.00    +0.000 Cl
ATOM     13  C   UNL     1       2.234   4.037  17.984  0.00  0.00    +0.000 A 
ENDBRANCH   5   7
ENDBRANCH   2   3
BRANCH   2  14
ATOM     14  O   UNL     1       5.368   6.224  14.972  0.00  0.00    +0.000 OA
ATOM     15  H   UNL     1       6.026   6.594  14.352  0.00  0.00    +0.000 HD
ENDBRANCH   2  14
BRANCH   2  16
ATOM     16  C   UNL     1       7.176   4.757  15.703  0.00  0.00    +0.000 C 
BRANCH  16  17
ATOM     17  N   UNL     1       7.453   5.425  16.965  0.00  0.00    +0.000 N 
ATOM     18  C   UNL     1       7.567   4.842  18.199  0.00  0.00    +0.000 A 
ATOM     19  C   UNL     1       7.822   5.872  19.059  0.00  0.00    +0.000 A 
ATOM     20  F   UNL     1       8.028   5.783  20.339  0.00  0.00    +0.000 F 
ATOM     21  C   UNL     1       7.826   7.036  18.288  0.00  0.00    +0.000 A 
ATOM     22  N   UNL     1       7.570   6.773  17.001  0.00  0.00    +0.000 NA
ENDBRANCH  16  17
ENDBRANCH   2  16
TORSDOF 5
ENDMDL
