MODEL 1
REMARK VINA RESULT:      -7.3      0.000      0.000
REMARK  Name = 
REMARK  7 active torsions:
REMARK  status: ('A' for Active; 'I' for Inactive)
REMARK    1  A    between atoms: C_2  and  C_3
REMARK    2  A    between atoms: C_3  and  N_4
REMARK    3  A    between atoms: N_4  and  C_5
REMARK    4  A    between atoms: C_5  and  N_7
REMARK    5  A    between atoms: N_7  and  N_8
REMARK    6  A    between atoms: C_9  and  C_11
REMARK    7  A    between atoms: C_11  and  C_12
REMARK                            x       y       z     vdW  Elec       q    Type
REMARK                         _______ _______ _______ _____ _____    ______ ____
ROOT
ATOM      1  N   UNL     1       4.665   6.035  16.357  0.00  0.00    +0.000 N 
ATOM      2  C   UNL     1       4.236   6.579  17.552  0.00  0.00    +0.000 C 
ATOM      3  O   UNL     1       4.966   7.315  18.218  0.00  0.00    +0.000 OA
ATOM      4  H   UNL     1       4.122   5.389  15.796  0.00  0.00    +0.000 HD
ENDROOT
BRANCH   1   5
ATOM      5  N   UNL     1       6.005   6.239  15.981  0.00  0.00    +0.000 N 
ATOM      6  H   UNL     1       6.100   6.812  15.140  0.00  0.00    +0.000 HD
BRANCH   5   7
ATOM      7  C   UNL     1       6.973   5.288  16.203  0.00  0.00    +0.000 C 
ATOM      8  S   UNL     1       7.481   4.741  17.697  0.00  0.00    +0.000 S 
BRANCH   7   9
ATOM      9  N   UNL     1       7.576   4.808  15.065  0.00  0.00    +0.000 N 
ATOM     10  H   UNL     1       8.584   4.704  15.114  0.00  0.00    +0.000 HD
BRANCH   9  11
ATOM     11  C   UNL     1       6.999   4.908  13.739  0.00  0.00    +0.000 C 
BRANCH  11  13
ATOM     12  C   UNL     1       5.870   3.303  12.220  0.00  0.00    +0.000 C 
ATOM     13  C   UNL     1       6.164   3.701  13.465  0.00  0.00    +0.000 C 
ENDBRANCH  11  13
ENDBRANCH   9  11
ENDBRANCH   7   9
ENDBRANCH   5   7
ENDBRANCH   1   5
BRANCH   2  14
ATOM     14  C   UNL     1       2.828   6.160  17.969  0.00  0.00    +0.000 C 
BRANCH  14  15
ATOM     15  C   UNL     1       2.651   4.744  18.583  0.00  0.00    +0.000 C 
ATOM     16  C   UNL     1       1.549   4.740  19.676  0.00  0.00    +0.000 C 
ATOM     17  C   UNL     1       1.354   3.332  20.268  0.00  0.00    +0.000 C 
ATOM     18  C   UNL     1       0.915   2.378  19.148  0.00  0.00    +0.000 C 
ATOM     19  C   UNL     1       2.001   2.319  18.062  0.00  0.00    +0.000 C 
ATOM     20  C   UNL     1       3.307   1.814  18.698  0.00  0.00    +0.000 C 
ATOM     21  C   UNL     1       3.765   2.793  19.791  0.00  0.00    +0.000 C 
ATOM     22  C   UNL     1       2.683   2.860  20.879  0.00  0.00    +0.000 C 
ATOM     23  C   UNL     1       3.972   4.195  19.183  0.00  0.00    +0.000 C 
ATOM     24  C   UNL     1       2.219   3.731  17.475  0.00  0.00    +0.000 C 
ENDBRANCH  14  15
ENDBRANCH   2  14
TORSDOF 7
ENDMDL
MODEL 2
REMARK VINA RESULT:      -7.3      1.417      2.454
REMARK  Name = 
REMARK  7 active torsions:
REMARK  status: ('A' for Active; 'I' for Inactive)
REMARK    1  A    between atoms: C_2  and  C_3
REMARK    2  A    between atoms: C_3  and  N_4
REMARK    3  A    between atoms: N_4  and  C_5
REMARK    4  A    between atoms: C_5  and  N_7
REMARK    5  A    between atoms: N_7  and  N_8
REMARK    6  A    between atoms: C_9  and  C_11
REMARK    7  A    between atoms: C_11  and  C_12
REMARK                            x       y       z     vdW  Elec       q    Type
REMARK                         _______ _______ _______ _____ _____    ______ ____
ROOT
ATOM      1  N   UNL     1       4.375   6.052  16.311  0.00  0.00    +0.000 N 
ATOM      2  C   UNL     1       4.027   6.676  17.493  0.00  0.00    +0.000 C 
ATOM      3  O   UNL     1       4.789   7.474  18.043  0.00  0.00    +0.000 OA
ATOM      4  H   UNL     1       3.806   5.355  15.845  0.00  0.00    +0.000 HD
ENDROOT
BRANCH   1   5
ATOM      5  N   UNL     1       5.676   6.250  15.817  0.00  0.00    +0.000 N 
ATOM      6  H   UNL     1       5.749   7.065  15.204  0.00  0.00    +0.000 HD
BRANCH   5   7
ATOM      7  C   UNL     1       6.523   5.199  15.562  0.00  0.00    +0.000 C 
ATOM      8  S   UNL     1       6.407   4.140  14.275  0.00  0.00    +0.000 S 
BRANCH   7   9
ATOM      9  N   UNL     1       7.511   5.017  16.501  0.00  0.00    +0.000 N 
ATOM     10  H   UNL     1       8.433   4.811  16.133  0.00  0.00    +0.000 HD
BRANCH   9  11
ATOM     11  C   UNL     1       7.260   4.628  17.874  0.00  0.00    +0.000 C 
BRANCH  11  13
ATOM     12  C   UNL     1       8.020   6.893  18.545  0.00  0.00    +0.000 C 
ATOM     13  C   UNL     1       7.946   5.580  18.797  0.00  0.00    +0.000 C 
ENDBRANCH  11  13
ENDBRANCH   9  11
ENDBRANCH   7   9
ENDBRANCH   5   7
ENDBRANCH   1   5
BRANCH   2  14
ATOM     14  C   UNL     1       2.666   6.264  18.051  0.00  0.00    +0.000 C 
BRANCH  14  15
ATOM     15  C   UNL     1       2.540   4.844  18.668  0.00  0.00    +0.000 C 
ATOM     16  C   UNL     1       1.462   4.810  19.783  0.00  0.00    +0.000 C 
ATOM     17  C   UNL     1       1.317   3.397  20.378  0.00  0.00    +0.000 C 
ATOM     18  C   UNL     1       0.883   2.431  19.266  0.00  0.00    +0.000 C 
ATOM     19  C   UNL     1       1.947   2.402  18.159  0.00  0.00    +0.000 C 
ATOM     20  C   UNL     1       3.279   1.934  18.768  0.00  0.00    +0.000 C 
ATOM     21  C   UNL     1       3.733   2.925  19.851  0.00  0.00    +0.000 C 
ATOM     22  C   UNL     1       2.671   2.962  20.962  0.00  0.00    +0.000 C 
ATOM     23  C   UNL     1       3.889   4.332  19.241  0.00  0.00    +0.000 C 
ATOM     24  C   UNL     1       2.114   3.820  17.568  0.00  0.00    +0.000 C 
ENDBRANCH  14  15
ENDBRANCH   2  14
TORSDOF 7
ENDMDL
MODEL 3
REMARK VINA RESULT:      -7.2      1.719      3.099
REMARK  Name = 
REMARK  7 active torsions:
REMARK  status: ('A' for Active; 'I' for Inactive)
REMARK    1  A    between atoms: C_2  and  C_3
REMARK    2  A    between atoms: C_3  and  N_4
REMARK    3  A    between atoms: N_4  and  C_5
REMARK    4  A    between atoms: C_5  and  N_7
REMARK    5  A    between atoms: N_7  and  N_8
REMARK    6  A    between atoms: C_9  and  C_11
REMARK    7  A    between atoms: C_11  and  C_12
REMARK                            x       y       z     vdW  Elec       q    Type
REMARK                         _______ _______ _______ _____ _____    ______ ____
ROOT
ATOM      1  N   UNL     1       4.306   6.024  17.434  0.00  0.00    +0.000 N 
ATOM      2  C   UNL     1       3.372   6.911  17.934  0.00  0.00    +0.000 C 
ATOM      3  O   UNL     1       3.152   7.989  17.377  0.00  0.00    +0.000 OA
ATOM      4  H   UNL     1       4.556   5.149  17.879  0.00  0.00    +0.000 HD
ENDROOT
BRANCH   1   5
ATOM      5  N   UNL     1       5.094   6.438  16.345  0.00  0.00    +0.000 N 
ATOM      6  H   UNL     1       4.551   6.905  15.615  0.00  0.00    +0.000 HD
BRANCH   5   7
ATOM      7  C   UNL     1       6.203   5.733  15.944  0.00  0.00    +0.000 C 
ATOM      8  S   UNL     1       6.195   4.327  15.041  0.00  0.00    +0.000 S 
BRANCH   7   9
ATOM      9  N   UNL     1       7.400   6.246  16.387  0.00  0.00    +0.000 N 
ATOM     10  H   UNL     1       8.179   5.598  16.393  0.00  0.00    +0.000 HD
BRANCH   9  11
ATOM     11  C   UNL     1       7.513   7.405  17.250  0.00  0.00    +0.000 C 
BRANCH  11  13
ATOM     12  C   UNL     1       7.794   5.776  19.101  0.00  0.00    +0.000 C 
ATOM     13  C   UNL     1       8.040   6.987  18.582  0.00  0.00    +0.000 C 
ENDBRANCH  11  13
ENDBRANCH   9  11
ENDBRANCH   7   9
ENDBRANCH   5   7
ENDBRANCH   1   5
BRANCH   2  14
ATOM     14  C   UNL     1       2.691   6.455  19.223  0.00  0.00    +0.000 C 
BRANCH  14  15
ATOM     15  C   UNL     1       2.409   4.936  19.390  0.00  0.00    +0.000 C 
ATOM     16  C   UNL     1       3.682   4.177  19.851  0.00  0.00    +0.000 C 
ATOM     17  C   UNL     1       3.399   2.676  20.042  0.00  0.00    +0.000 C 
ATOM     18  C   UNL     1       2.325   2.506  21.126  0.00  0.00    +0.000 C 
ATOM     19  C   UNL     1       1.031   3.208  20.689  0.00  0.00    +0.000 C 
ATOM     20  C   UNL     1       0.549   2.578  19.372  0.00  0.00    +0.000 C 
ATOM     21  C   UNL     1       1.607   2.785  18.278  0.00  0.00    +0.000 C 
ATOM     22  C   UNL     1       2.906   2.088  18.710  0.00  0.00    +0.000 C 
ATOM     23  C   UNL     1       1.871   4.292  18.084  0.00  0.00    +0.000 C 
ATOM     24  C   UNL     1       1.308   4.714  20.475  0.00  0.00    +0.000 C 
ENDBRANCH  14  15
ENDBRANCH   2  14
TORSDOF 7
ENDMDL
MODEL 4
REMARK VINA RESULT:      -7.2      0.272      1.624
REMARK  Name = 
REMARK  7 active torsions:
REMARK  status: ('A' for Active; 'I' for Inactive)
REMARK    1  A    between atoms: C_2  and  C_3
REMARK    2  A    between atoms: C_3  and  N_4
REMARK    3  A    between atoms: N_4  and  C_5
REMARK    4  A    between atoms: C_5  and  N_7
REMARK    5  A    between atoms: N_7  and  N_8
REMARK    6  A    between atoms: C_9  and  C_11
REMARK    7  A    between atoms: C_11  and  C_12
REMARK                            x       y       z     vdW  Elec       q    Type
REMARK                         _______ _______ _______ _____ _____    ______ ____
ROOT
ATOM      1  N   UNL     1       4.554   5.813  16.641  0.00  0.00    +0.000 N 
ATOM      2  C   UNL     1       3.933   6.661  17.539  0.00  0.00    +0.000 C 
ATOM      3  O   UNL     1       4.462   7.717  17.890  0.00  0.00    +0.000 OA
ATOM      4  H   UNL     1       4.183   4.914  16.357  0.00  0.00    +0.000 HD
ENDROOT
BRANCH   1   5
ATOM      5  N   UNL     1       5.864   6.124  16.237  0.00  0.00    +0.000 N 
ATOM      6  H   UNL     1       5.894   6.697  15.390  0.00  0.00    +0.000 HD
BRANCH   5   7
ATOM      7  C   UNL     1       6.911   5.258  16.443  0.00  0.00    +0.000 C 
ATOM      8  S   UNL     1       7.530   4.810  17.928  0.00  0.00    +0.000 S 
BRANCH   7   9
ATOM      9  N   UNL     1       7.495   4.780  15.294  0.00  0.00    +0.000 N 
ATOM     10  H   UNL     1       8.495   4.622  15.344  0.00  0.00    +0.000 HD
BRANCH   9  11
ATOM     11  C   UNL     1       6.931   4.947  13.970  0.00  0.00    +0.000 C 
BRANCH  11  13
ATOM     12  C   UNL     1       5.916   3.370  12.344  0.00  0.00    +0.000 C 
ATOM     13  C   UNL     1       6.123   3.743  13.614  0.00  0.00    +0.000 C 
ENDBRANCH  11  13
ENDBRANCH   9  11
ENDBRANCH   7   9
ENDBRANCH   5   7
ENDBRANCH   1   5
BRANCH   2  14
ATOM     14  C   UNL     1       2.590   6.156  18.063  0.00  0.00    +0.000 C 
BRANCH  14  15
ATOM     15  C   UNL     1       2.532   4.705  18.613  0.00  0.00    +0.000 C 
ATOM     16  C   UNL     1       3.861   4.316  19.314  0.00  0.00    +0.000 C 
ATOM     17  C   UNL     1       3.796   2.887  19.883  0.00  0.00    +0.000 C 
ATOM     18  C   UNL     1       2.672   2.818  20.926  0.00  0.00    +0.000 C 
ATOM     19  C   UNL     1       1.328   3.154  20.263  0.00  0.00    +0.000 C 
ATOM     20  C   UNL     1       1.063   2.137  19.140  0.00  0.00    +0.000 C 
ATOM     21  C   UNL     1       2.168   2.237  18.077  0.00  0.00    +0.000 C 
ATOM     22  C   UNL     1       3.517   1.905  18.734  0.00  0.00    +0.000 C 
ATOM     23  C   UNL     1       2.213   3.668  17.503  0.00  0.00    +0.000 C 
ATOM     24  C   UNL     1       1.388   4.580  19.671  0.00  0.00    +0.000 C 
ENDBRANCH  14  15
ENDBRANCH   2  14
TORSDOF 7
ENDMDL
MODEL 5
REMARK VINA RESULT:      -7.2      1.420      2.968
REMARK  Name = 
REMARK  7 active torsions:
REMARK  status: ('A' for Active; 'I' for Inactive)
REMARK    1  A    between atoms: C_2  and  C_3
REMARK    2  A    between atoms: C_3  and  N_4
REMARK    3  A    between atoms: N_4  and  C_5
REMARK    4  A    between atoms: C_5  and  N_7
REMARK    5  A    between atoms: N_7  and  N_8
REMARK    6  A    between atoms: C_9  and  C_11
REMARK    7  A    between atoms: C_11  and  C_12
REMARK                            x       y       z     vdW  Elec       q    Type
REMARK                         _______ _______ _______ _____ _____    ______ ____
ROOT
ATOM      1  N   UNL     1       4.454   5.939  16.374  0.00  0.00    +0.000 N 
ATOM      2  C   UNL     1       4.037   6.619  17.502  0.00  0.00    +0.000 C 
ATOM      3  O   UNL     1       4.740   7.489  18.019  0.00  0.00    +0.000 OA
ATOM      4  H   UNL     1       3.935   5.185  15.939  0.00  0.00    +0.000 HD
ENDROOT
BRANCH   1   5
ATOM      5  N   UNL     1       5.758   6.174  15.904  0.00  0.00    +0.000 N 
ATOM      6  H   UNL     1       5.837   7.037  15.363  0.00  0.00    +0.000 HD
BRANCH   5   7
ATOM      7  C   UNL     1       6.603   5.145  15.565  0.00  0.00    +0.000 C 
ATOM      8  S   UNL     1       6.525   4.238  14.164  0.00  0.00    +0.000 S 
BRANCH   7   9
ATOM      9  N   UNL     1       7.551   4.844  16.514  0.00  0.00    +0.000 N 
ATOM     10  H   UNL     1       8.411   4.439  16.162  0.00  0.00    +0.000 HD
BRANCH   9  11
ATOM     11  C   UNL     1       7.250   4.610  17.912  0.00  0.00    +0.000 C 
BRANCH  11  13
ATOM     12  C   UNL     1       7.967   6.924  18.450  0.00  0.00    +0.000 C 
ATOM     13  C   UNL     1       7.959   5.619  18.753  0.00  0.00    +0.000 C 
ENDBRANCH  11  13
ENDBRANCH   9  11
ENDBRANCH   7   9
ENDBRANCH   5   7
ENDBRANCH   1   5
BRANCH   2  14
ATOM     14  C   UNL     1       2.682   6.172  18.048  0.00  0.00    +0.000 C 
BRANCH  14  15
ATOM     15  C   UNL     1       2.573   4.728  18.609  0.00  0.00    +0.000 C 
ATOM     16  C   UNL     1       2.316   3.702  17.473  0.00  0.00    +0.000 C 
ATOM     17  C   UNL     1       2.233   2.267  18.024  0.00  0.00    +0.000 C 
ATOM     18  C   UNL     1       3.569   1.912  18.691  0.00  0.00    +0.000 C 
ATOM     19  C   UNL     1       3.842   2.880  19.853  0.00  0.00    +0.000 C 
ATOM     20  C   UNL     1       2.699   2.759  20.874  0.00  0.00    +0.000 C 
ATOM     21  C   UNL     1       1.369   3.154  20.216  0.00  0.00    +0.000 C 
ATOM     22  C   UNL     1       1.090   2.192  19.050  0.00  0.00    +0.000 C 
ATOM     23  C   UNL     1       1.459   4.598  19.681  0.00  0.00    +0.000 C 
ATOM     24  C   UNL     1       3.908   4.326  19.314  0.00  0.00    +0.000 C 
ENDBRANCH  14  15
ENDBRANCH   2  14
TORSDOF 7
ENDMDL
MODEL 6
REMARK VINA RESULT:      -7.2      1.685      2.714
REMARK  Name = 
REMARK  7 active torsions:
REMARK  status: ('A' for Active; 'I' for Inactive)
REMARK    1  A    between atoms: C_2  and  C_3
REMARK    2  A    between atoms: C_3  and  N_4
REMARK    3  A    between atoms: N_4  and  C_5
REMARK    4  A    between atoms: C_5  and  N_7
REMARK    5  A    between atoms: N_7  and  N_8
REMARK    6  A    between atoms: C_9  and  C_11
REMARK    7  A    between atoms: C_11  and  C_12
REMARK                            x       y       z     vdW  Elec       q    Type
REMARK                         _______ _______ _______ _____ _____    ______ ____
ROOT
ATOM      1  N   UNL     1       6.931   4.566  16.295  0.00  0.00    +0.000 N 
ATOM      2  C   UNL     1       6.295   5.298  17.279  0.00  0.00    +0.000 C 
ATOM      3  O   UNL     1       6.129   6.514  17.165  0.00  0.00    +0.000 OA
ATOM      4  H   UNL     1       7.133   3.576  16.362  0.00  0.00    +0.000 HD
ENDROOT
BRANCH   1   5
ATOM      5  N   UNL     1       7.501   5.264  15.216  0.00  0.00    +0.000 N 
ATOM      6  H   UNL     1       7.590   6.267  15.393  0.00  0.00    +0.000 HD
BRANCH   5   7
ATOM      7  C   UNL     1       7.299   4.875  13.913  0.00  0.00    +0.000 C 
ATOM      8  S   UNL     1       8.037   5.540  12.570  0.00  0.00    +0.000 S 
BRANCH   7   9
ATOM      9  N   UNL     1       6.365   3.879  13.750  0.00  0.00    +0.000 N 
ATOM     10  H   UNL     1       6.152   3.339  14.580  0.00  0.00    +0.000 HD
BRANCH   9  11
ATOM     11  C   UNL     1       6.058   3.260  12.476  0.00  0.00    +0.000 C 
BRANCH  11  13
ATOM     12  C   UNL     1       3.966   2.998  11.167  0.00  0.00    +0.000 C 
ATOM     13  C   UNL     1       4.719   3.723  12.005  0.00  0.00    +0.000 C 
ENDBRANCH  11  13
ENDBRANCH   9  11
ENDBRANCH   7   9
ENDBRANCH   5   7
ENDBRANCH   1   5
BRANCH   2  14
ATOM     14  C   UNL     1       5.867   4.484  18.499  0.00  0.00    +0.000 C 
BRANCH  14  15
ATOM     15  C   UNL     1       4.371   4.082  18.607  0.00  0.00    +0.000 C 
ATOM     16  C   UNL     1       3.844   3.510  17.264  0.00  0.00    +0.000 C 
ATOM     17  C   UNL     1       2.368   3.087  17.376  0.00  0.00    +0.000 C 
ATOM     18  C   UNL     1       2.246   1.988  18.442  0.00  0.00    +0.000 C 
ATOM     19  C   UNL     1       2.717   2.528  19.800  0.00  0.00    +0.000 C 
ATOM     20  C   UNL     1       1.839   3.730  20.185  0.00  0.00    +0.000 C 
ATOM     21  C   UNL     1       1.995   4.845  19.140  0.00  0.00    +0.000 C 
ATOM     22  C   UNL     1       1.529   4.311  17.776  0.00  0.00    +0.000 C 
ATOM     23  C   UNL     1       3.475   5.270  19.047  0.00  0.00    +0.000 C 
ATOM     24  C   UNL     1       4.193   2.973  19.694  0.00  0.00    +0.000 C 
ENDBRANCH  14  15
ENDBRANCH   2  14
TORSDOF 7
ENDMDL
MODEL 7
REMARK VINA RESULT:      -7.1      1.674      2.599
REMARK  Name = 
REMARK  7 active torsions:
REMARK  status: ('A' for Active; 'I' for Inactive)
REMARK    1  A    between atoms: C_2  and  C_3
REMARK    2  A    between atoms: C_3  and  N_4
REMARK    3  A    between atoms: N_4  and  C_5
REMARK    4  A    between atoms: C_5  and  N_7
REMARK    5  A    between atoms: N_7  and  N_8
REMARK    6  A    between atoms: C_9  and  C_11
REMARK    7  A    between atoms: C_11  and  C_12
REMARK                            x       y       z     vdW  Elec       q    Type
REMARK                         _______ _______ _______ _____ _____    ______ ____
ROOT
ATOM      1  N   UNL     1       6.956   4.916  16.395  0.00  0.00    +0.000 N 
ATOM      2  C   UNL     1       6.206   5.704  17.247  0.00  0.00    +0.000 C 
ATOM      3  O   UNL     1       5.945   6.876  16.970  0.00  0.00    +0.000 OA
ATOM      4  H   UNL     1       7.236   3.964  16.598  0.00  0.00    +0.000 HD
ENDROOT
BRANCH   1   5
ATOM      5  N   UNL     1       7.523   5.524  15.261  0.00  0.00    +0.000 N 
ATOM      6  H   UNL     1       7.617   6.537  15.357  0.00  0.00    +0.000 HD
BRANCH   5   7
ATOM      7  C   UNL     1       7.315   5.032  13.995  0.00  0.00    +0.000 C 
ATOM      8  S   UNL     1       8.076   5.561  12.605  0.00  0.00    +0.000 S 
BRANCH   7   9
ATOM      9  N   UNL     1       6.355   4.052  13.910  0.00  0.00    +0.000 N 
ATOM     10  H   UNL     1       6.080   3.631  14.790  0.00  0.00    +0.000 HD
BRANCH   9  11
ATOM     11  C   UNL     1       6.088   3.283  12.712  0.00  0.00    +0.000 C 
BRANCH  11  13
ATOM     12  C   UNL     1       4.141   2.970  11.204  0.00  0.00    +0.000 C 
ATOM     13  C   UNL     1       4.778   3.700  12.130  0.00  0.00    +0.000 C 
ENDBRANCH  11  13
ENDBRANCH   9  11
ENDBRANCH   7   9
ENDBRANCH   5   7
ENDBRANCH   1   5
BRANCH   2  14
ATOM     14  C   UNL     1       5.781   5.012  18.542  0.00  0.00    +0.000 C 
BRANCH  14  15
ATOM     15  C   UNL     1       4.383   4.336  18.571  0.00  0.00    +0.000 C 
ATOM     16  C   UNL     1       4.395   3.060  19.454  0.00  0.00    +0.000 C 
ATOM     17  C   UNL     1       3.005   2.402  19.505  0.00  0.00    +0.000 C 
ATOM     18  C   UNL     1       2.007   3.395  20.118  0.00  0.00    +0.000 C 
ATOM     19  C   UNL     1       1.932   4.659  19.248  0.00  0.00    +0.000 C 
ATOM     20  C   UNL     1       1.471   4.259  17.837  0.00  0.00    +0.000 C 
ATOM     21  C   UNL     1       2.492   3.297  17.209  0.00  0.00    +0.000 C 
ATOM     22  C   UNL     1       2.576   2.031  18.076  0.00  0.00    +0.000 C 
ATOM     23  C   UNL     1       3.878   3.972  17.149  0.00  0.00    +0.000 C 
ATOM     24  C   UNL     1       3.328   5.317  19.174  0.00  0.00    +0.000 C 
ENDBRANCH  14  15
ENDBRANCH   2  14
TORSDOF 7
ENDMDL
MODEL 8
REMARK VINA RESULT:      -7.0      1.788      2.623
REMARK  Name = 
REMARK  7 active torsions:
REMARK  status: ('A' for Active; 'I' for Inactive)
REMARK    1  A    between atoms: C_2  and  C_3
REMARK    2  A    between atoms: C_3  and  N_4
REMARK    3  A    between atoms: N_4  and  C_5
REMARK    4  A    between atoms: C_5  and  N_7
REMARK    5  A    between atoms: N_7  and  N_8
REMARK    6  A    between atoms: C_9  and  C_11
REMARK    7  A    between atoms: C_11  and  C_12
REMARK                            x       y       z     vdW  Elec       q    Type
REMARK                         _______ _______ _______ _____ _____    ______ ____
ROOT
ATOM      1  N   UNL     1       4.258   6.237  17.421  0.00  0.00    +0.000 N 
ATOM      2  C   UNL     1       3.227   7.034  17.880  0.00  0.00    +0.000 C 
ATOM      3  O   UNL     1       2.850   8.020  17.244  0.00  0.00    +0.000 OA
ATOM      4  H   UNL     1       4.636   5.445  17.927  0.00  0.00    +0.000 HD
ENDROOT
BRANCH   1   5
ATOM      5  N   UNL     1       4.955   6.654  16.273  0.00  0.00    +0.000 N 
ATOM      6  H   UNL     1       4.366   7.171  15.616  0.00  0.00    +0.000 HD
BRANCH   5   7
ATOM      7  C   UNL     1       5.984   5.915  15.741  0.00  0.00    +0.000 C 
ATOM      8  S   UNL     1       5.819   4.576  14.755  0.00  0.00    +0.000 S 
BRANCH   7   9
ATOM      9  N   UNL     1       7.241   6.327  16.118  0.00  0.00    +0.000 N 
ATOM     10  H   UNL     1       8.001   6.015  15.525  0.00  0.00    +0.000 HD
BRANCH   9  11
ATOM     11  C   UNL     1       7.591   6.719  17.468  0.00  0.00    +0.000 C 
BRANCH  11  13
ATOM     12  C   UNL     1       7.604   5.609  19.688  0.00  0.00    +0.000 C 
ATOM     13  C   UNL     1       7.609   5.516  18.351  0.00  0.00    +0.000 C 
ENDBRANCH  11  13
ENDBRANCH   9  11
ENDBRANCH   7   9
ENDBRANCH   5   7
ENDBRANCH   1   5
BRANCH   2  14
ATOM     14  C   UNL     1       2.647   6.606  19.227  0.00  0.00    +0.000 C 
BRANCH  14  15
ATOM     15  C   UNL     1       2.424   5.088  19.465  0.00  0.00    +0.000 C 
ATOM     16  C   UNL     1       1.372   4.843  20.580  0.00  0.00    +0.000 C 
ATOM     17  C   UNL     1       1.130   3.339  20.800  0.00  0.00    +0.000 C 
ATOM     18  C   UNL     1       0.593   2.726  19.498  0.00  0.00    +0.000 C 
ATOM     19  C   UNL     1       1.625   2.908  18.375  0.00  0.00    +0.000 C 
ATOM     20  C   UNL     1       2.930   2.205  18.786  0.00  0.00    +0.000 C 
ATOM     21  C   UNL     1       3.487   2.848  20.066  0.00  0.00    +0.000 C 
ATOM     22  C   UNL     1       2.458   2.672  21.194  0.00  0.00    +0.000 C 
ATOM     23  C   UNL     1       3.740   4.350  19.829  0.00  0.00    +0.000 C 
ATOM     24  C   UNL     1       1.891   4.415  18.159  0.00  0.00    +0.000 C 
ENDBRANCH  14  15
ENDBRANCH   2  14
TORSDOF 7
ENDMDL
MODEL 9
REMARK VINA RESULT:      -7.0      1.907      3.082
REMARK  Name = 
REMARK  7 active torsions:
REMARK  status: ('A' for Active; 'I' for Inactive)
REMARK    1  A    between atoms: C_2  and  C_3
REMARK    2  A    between atoms: C_3  and  N_4
REMARK    3  A    between atoms: N_4  and  C_5
REMARK    4  A    between atoms: C_5  and  N_7
REMARK    5  A    between atoms: N_7  and  N_8
REMARK    6  A    between atoms: C_9  and  C_11
REMARK    7  A    between atoms: C_11  and  C_12
REMARK                            x       y       z     vdW  Elec       q    Type
REMARK                         _______ _______ _______ _____ _____    ______ ____
ROOT
ATOM      1  N   UNL     1       6.610   5.777  15.548  0.00  0.00    +0.000 N 
ATOM      2  C   UNL     1       6.745   5.590  16.910  0.00  0.00    +0.000 C 
ATOM      3  O   UNL     1       7.701   4.969  17.378  0.00  0.00    +0.000 OA
ATOM      4  H   UNL     1       5.820   6.238  15.112  0.00  0.00    +0.000 HD
ENDROOT
BRANCH   1   5
ATOM      5  N   UNL     1       7.524   5.130  14.698  0.00  0.00    +0.000 N 
ATOM      6  H   UNL     1       8.489   5.431  14.849  0.00  0.00    +0.000 HD
BRANCH   5   7
ATOM      7  C   UNL     1       7.181   4.743  13.425  0.00  0.00    +0.000 C 
ATOM      8  S   UNL     1       7.684   5.479  12.012  0.00  0.00    +0.000 S 
BRANCH   7   9
ATOM      9  N   UNL     1       6.311   3.681  13.362  0.00  0.00    +0.000 N 
ATOM     10  H   UNL     1       6.251   3.114  14.201  0.00  0.00    +0.000 HD
BRANCH   9  11
ATOM     11  C   UNL     1       5.883   3.058  12.126  0.00  0.00    +0.000 C 
BRANCH  11  13
ATOM     12  C   UNL     1       3.873   3.414  10.715  0.00  0.00    +0.000 C 
ATOM     13  C   UNL     1       4.420   3.285  11.931  0.00  0.00    +0.000 C 
ENDBRANCH  11  13
ENDBRANCH   9  11
ENDBRANCH   7   9
ENDBRANCH   5   7
ENDBRANCH   1   5
BRANCH   2  14
ATOM     14  C   UNL     1       5.609   6.176  17.747  0.00  0.00    +0.000 C 
BRANCH  14  15
ATOM     15  C   UNL     1       4.419   5.242  18.100  0.00  0.00    +0.000 C 
ATOM     16  C   UNL     1       4.465   3.934  17.266  0.00  0.00    +0.000 C 
ATOM     17  C   UNL     1       3.301   2.996  17.632  0.00  0.00    +0.000 C 
ATOM     18  C   UNL     1       3.415   2.617  19.116  0.00  0.00    +0.000 C 
ATOM     19  C   UNL     1       3.330   3.883  19.982  0.00  0.00    +0.000 C 
ATOM     20  C   UNL     1       1.979   4.570  19.719  0.00  0.00    +0.000 C 
ATOM     21  C   UNL     1       1.885   4.985  18.242  0.00  0.00    +0.000 C 
ATOM     22  C   UNL     1       1.973   3.723  17.369  0.00  0.00    +0.000 C 
ATOM     23  C   UNL     1       3.047   5.936  17.891  0.00  0.00    +0.000 C 
ATOM     24  C   UNL     1       4.483   4.841  19.609  0.00  0.00    +0.000 C 
ENDBRANCH  14  15
ENDBRANCH   2  14
TORSDOF 7
ENDMDL
