MODEL 1
REMARK VINA RESULT:      -6.3      0.000      0.000
REMARK  Name = 
REMARK  7 active torsions:
REMARK  status: ('A' for Active; 'I' for Inactive)
REMARK    1  A    between atoms: C_1  and  O_2
REMARK    2  A    between atoms: O_2  and  C_3
REMARK    3  A    between atoms: C_6  and  N_7
REMARK    4  A    between atoms: C_12  and  C_13
REMARK    5  A    between atoms: C_20  and  C_21
REMARK    6  A    between atoms: C_21  and  O_22
REMARK    7  A    between atoms: O_22  and  C_23
REMARK                            x       y       z     vdW  Elec       q    Type
REMARK                         _______ _______ _______ _____ _____    ______ ____
ROOT
ATOM      1  C   UNL     1       8.740  13.736  18.790  0.00  0.00    +0.000 C 
ATOM      2  O   UNL     1       7.972  13.533  17.851  0.00  0.00    +0.000 OA
ATOM      3  N   UNL     1       9.919  13.021  18.933  0.00  0.00    +0.000 N 
ATOM      4  C   UNL     1      10.222  11.850  18.144  0.00  0.00    +0.000 C 
ATOM      5  C   UNL     1      11.758  11.928  18.120  0.00  0.00    +0.000 C 
ATOM      6  C   UNL     1      12.087  12.466  19.532  0.00  0.00    +0.000 C 
ATOM      7  C   UNL     1      10.686  12.712  20.129  0.00  0.00    +0.000 C 
ATOM      8  C   UNL     1      10.114  11.322  20.500  0.00  0.00    +0.000 C 
ATOM      9  C   UNL     1       9.786  10.724  19.100  0.00  0.00    +0.000 C 
ENDROOT
BRANCH   1  14
ATOM     10  C   UNL     1       7.397  15.438  21.706  0.00  0.00    +0.000 A 
ATOM     11  C   UNL     1       8.235  16.514  21.932  0.00  0.00    +0.000 A 
ATOM     12  C   UNL     1       9.220  16.791  20.985  0.00  0.00    +0.000 A 
ATOM     13  C   UNL     1       9.325  15.980  19.844  0.00  0.00    +0.000 A 
ATOM     14  C   UNL     1       8.464  14.890  19.719  0.00  0.00    +0.000 A 
ATOM     15  N   UNL     1       7.485  14.626  20.633  0.00  0.00    +0.000 NA
BRANCH  13  16
ATOM     16  N   UNL     1      10.257  16.329  18.844  0.00  0.00    +0.000 N 
ATOM     17  N   UNL     1      11.600  16.142  19.023  0.00  0.00    +0.000 NA
ATOM     18  C   UNL     1      12.108  16.678  17.911  0.00  0.00    +0.000 A 
ATOM     19  C   UNL     1      11.091  17.270  17.163  0.00  0.00    +0.000 A 
ATOM     20  N   UNL     1       9.918  17.079  17.765  0.00  0.00    +0.000 NA
ENDBRANCH  13  16
BRANCH  10  22
ATOM     21  C   UNL     1       5.178  14.843  22.110  0.00  0.00    +0.000 C 
ATOM     22  O   UNL     1       6.438  15.197  22.669  0.00  0.00    +0.000 OA
ENDBRANCH  10  22
ENDBRANCH   1  14
BRANCH   8  23
ATOM     23  C   UNL     1       8.887  11.452  21.398  0.00  0.00    +0.000 C 
BRANCH  23  24
ATOM     24  O   UNL     1       9.195  12.289  22.515  0.00  0.00    +0.000 OA
BRANCH  24  25
ATOM     25  C   UNL     1       8.181  12.280  23.456  0.00  0.00    +0.000 A 
ATOM     26  C   UNL     1       8.476  12.832  24.695  0.00  0.00    +0.000 A 
ATOM     27  C   UNL     1       7.477  12.847  25.666  0.00  0.00    +0.000 A 
ATOM     28  C   UNL     1       6.237  12.305  25.361  0.00  0.00    +0.000 A 
ATOM     29  F   UNL     1       5.258  12.298  26.274  0.00  0.00    +0.000 F 
ATOM     30  C   UNL     1       6.028  11.777  24.100  0.00  0.00    +0.000 A 
ATOM     31  N   UNL     1       6.974  11.762  23.135  0.00  0.00    +0.000 NA
ENDBRANCH  24  25
ENDBRANCH  23  24
ENDBRANCH   8  23
TORSDOF 6
ENDMDL
MODEL 2
REMARK VINA RESULT:      -6.2      9.355     11.714
REMARK  Name = 
REMARK  7 active torsions:
REMARK  status: ('A' for Active; 'I' for Inactive)
REMARK    1  A    between atoms: C_1  and  O_2
REMARK    2  A    between atoms: O_2  and  C_3
REMARK    3  A    between atoms: C_6  and  N_7
REMARK    4  A    between atoms: C_12  and  C_13
REMARK    5  A    between atoms: C_20  and  C_21
REMARK    6  A    between atoms: C_21  and  O_22
REMARK    7  A    between atoms: O_22  and  C_23
REMARK                            x       y       z     vdW  Elec       q    Type
REMARK                         _______ _______ _______ _____ _____    ______ ____
ROOT
ATOM      1  C   UNL     1       1.993   6.017  20.482  0.00  0.00    +0.000 C 
ATOM      2  O   UNL     1       1.887   6.079  21.706  0.00  0.00    +0.000 OA
ATOM      3  N   UNL     1       1.808   4.828  19.794  0.00  0.00    +0.000 N 
ATOM      4  C   UNL     1       1.707   3.550  20.459  0.00  0.00    +0.000 C 
ATOM      5  C   UNL     1       0.815   2.794  19.460  0.00  0.00    +0.000 C 
ATOM      6  C   UNL     1       1.308   3.332  18.098  0.00  0.00    +0.000 C 
ATOM      7  C   UNL     1       2.347   4.394  18.515  0.00  0.00    +0.000 C 
ATOM      8  C   UNL     1       3.610   3.621  18.969  0.00  0.00    +0.000 C 
ATOM      9  C   UNL     1       3.154   3.034  20.338  0.00  0.00    +0.000 C 
ENDROOT
BRANCH   1  14
ATOM     10  C   UNL     1       2.799   8.103  17.617  0.00  0.00    +0.000 A 
ATOM     11  C   UNL     1       2.075   9.268  17.786  0.00  0.00    +0.000 A 
ATOM     12  C   UNL     1       1.392   9.450  18.987  0.00  0.00    +0.000 A 
ATOM     13  C   UNL     1       1.463   8.456  19.977  0.00  0.00    +0.000 A 
ATOM     14  C   UNL     1       2.182   7.294  19.703  0.00  0.00    +0.000 A 
ATOM     15  N   UNL     1       2.870   7.119  18.537  0.00  0.00    +0.000 NA
BRANCH  13  16
ATOM     16  N   UNL     1       0.852   8.695  21.226  0.00  0.00    +0.000 N 
ATOM     17  N   UNL     1      -0.489   8.507  21.412  0.00  0.00    +0.000 NA
ATOM     18  C   UNL     1      -0.660   8.926  22.668  0.00  0.00    +0.000 A 
ATOM     19  C   UNL     1       0.534   9.459  23.155  0.00  0.00    +0.000 A 
ATOM     20  N   UNL     1       1.489   9.343  22.234  0.00  0.00    +0.000 NA
ENDBRANCH  13  16
BRANCH  10  22
ATOM     21  C   UNL     1       4.692   7.265  16.543  0.00  0.00    +0.000 C 
ATOM     22  O   UNL     1       3.458   7.962  16.412  0.00  0.00    +0.000 OA
ENDBRANCH  10  22
ENDBRANCH   1  14
BRANCH   8  23
ATOM     23  C   UNL     1       4.813   4.552  19.088  0.00  0.00    +0.000 C 
BRANCH  23  24
ATOM     24  O   UNL     1       5.991   3.874  18.644  0.00  0.00    +0.000 OA
BRANCH  24  25
ATOM     25  C   UNL     1       6.274   4.155  17.319  0.00  0.00    +0.000 A 
ATOM     26  C   UNL     1       5.341   3.738  16.381  0.00  0.00    +0.000 A 
ATOM     27  C   UNL     1       5.589   4.010  15.037  0.00  0.00    +0.000 A 
ATOM     28  C   UNL     1       6.756   4.675  14.692  0.00  0.00    +0.000 A 
ATOM     29  F   UNL     1       7.026   4.946  13.409  0.00  0.00    +0.000 F 
ATOM     30  C   UNL     1       7.631   5.057  15.691  0.00  0.00    +0.000 A 
ATOM     31  N   UNL     1       7.410   4.819  17.003  0.00  0.00    +0.000 NA
ENDBRANCH  24  25
ENDBRANCH  23  24
ENDBRANCH   8  23
TORSDOF 6
ENDMDL
MODEL 3
REMARK VINA RESULT:      -6.2      8.287     11.414
REMARK  Name = 
REMARK  7 active torsions:
REMARK  status: ('A' for Active; 'I' for Inactive)
REMARK    1  A    between atoms: C_1  and  O_2
REMARK    2  A    between atoms: O_2  and  C_3
REMARK    3  A    between atoms: C_6  and  N_7
REMARK    4  A    between atoms: C_12  and  C_13
REMARK    5  A    between atoms: C_20  and  C_21
REMARK    6  A    between atoms: C_21  and  O_22
REMARK    7  A    between atoms: O_22  and  C_23
REMARK                            x       y       z     vdW  Elec       q    Type
REMARK                         _______ _______ _______ _____ _____    ______ ____
ROOT
ATOM      1  C   UNL     1      -0.074  12.370  21.747  0.00  0.00    +0.000 C 
ATOM      2  O   UNL     1      -0.003  11.690  22.770  0.00  0.00    +0.000 OA
ATOM      3  N   UNL     1      -0.964  13.427  21.637  0.00  0.00    +0.000 N 
ATOM      4  C   UNL     1      -2.014  13.666  22.598  0.00  0.00    +0.000 C 
ATOM      5  C   UNL     1      -2.153  15.193  22.475  0.00  0.00    +0.000 C 
ATOM      6  C   UNL     1      -1.916  15.429  20.966  0.00  0.00    +0.000 C 
ATOM      7  C   UNL     1      -1.578  14.013  20.456  0.00  0.00    +0.000 C 
ATOM      8  C   UNL     1      -2.915  13.234  20.397  0.00  0.00    +0.000 C 
ATOM      9  C   UNL     1      -3.213  12.990  21.906  0.00  0.00    +0.000 C 
ENDROOT
BRANCH   1  14
ATOM     10  C   UNL     1       1.303  10.897  18.723  0.00  0.00    +0.000 A 
ATOM     11  C   UNL     1       2.165  11.845  18.204  0.00  0.00    +0.000 A 
ATOM     12  C   UNL     1       2.429  12.982  18.965  0.00  0.00    +0.000 A 
ATOM     13  C   UNL     1       1.821  13.125  20.223  0.00  0.00    +0.000 A 
ATOM     14  C   UNL     1       0.932  12.139  20.649  0.00  0.00    +0.000 A 
ATOM     15  N   UNL     1       0.685  11.013  19.917  0.00  0.00    +0.000 NA
BRANCH  13  16
ATOM     16  N   UNL     1       2.174  14.229  21.028  0.00  0.00    +0.000 N 
ATOM     17  N   UNL     1       1.774  15.498  20.713  0.00  0.00    +0.000 NA
ATOM     18  C   UNL     1       2.385  16.225  21.651  0.00  0.00    +0.000 A 
ATOM     19  C   UNL     1       3.217  15.407  22.417  0.00  0.00    +0.000 A 
ATOM     20  N   UNL     1       3.110  14.144  22.006  0.00  0.00    +0.000 NA
ENDBRANCH  13  16
BRANCH  10  22
ATOM     21  C   UNL     1       2.062   8.783  18.094  0.00  0.00    +0.000 C 
ATOM     22  O   UNL     1       1.067   9.788  17.937  0.00  0.00    +0.000 OA
ENDBRANCH  10  22
ENDBRANCH   1  14
BRANCH   8  23
ATOM     23  C   UNL     1      -2.766  11.942  19.600  0.00  0.00    +0.000 C 
BRANCH  23  24
ATOM     24  O   UNL     1      -3.935  11.730  18.804  0.00  0.00    +0.000 OA
BRANCH  24  25
ATOM     25  C   UNL     1      -3.619  11.222  17.556  0.00  0.00    +0.000 A 
ATOM     26  C   UNL     1      -2.500  10.406  17.482  0.00  0.00    +0.000 A 
ATOM     27  C   UNL     1      -2.155   9.869  16.243  0.00  0.00    +0.000 A 
ATOM     28  C   UNL     1      -2.935  10.178  15.138  0.00  0.00    +0.000 A 
ATOM     29  F   UNL     1      -2.627   9.684  13.932  0.00  0.00    +0.000 F 
ATOM     30  C   UNL     1      -4.035  10.999  15.302  0.00  0.00    +0.000 A 
ATOM     31  N   UNL     1      -4.401  11.521  16.493  0.00  0.00    +0.000 NA
ENDBRANCH  24  25
ENDBRANCH  23  24
ENDBRANCH   8  23
TORSDOF 6
ENDMDL
MODEL 4
REMARK VINA RESULT:      -6.1      7.804     10.619
REMARK  Name = 
REMARK  7 active torsions:
REMARK  status: ('A' for Active; 'I' for Inactive)
REMARK    1  A    between atoms: C_1  and  O_2
REMARK    2  A    between atoms: O_2  and  C_3
REMARK    3  A    between atoms: C_6  and  N_7
REMARK    4  A    between atoms: C_12  and  C_13
REMARK    5  A    between atoms: C_20  and  C_21
REMARK    6  A    between atoms: C_21  and  O_22
REMARK    7  A    between atoms: O_22  and  C_23
REMARK                            x       y       z     vdW  Elec       q    Type
REMARK                         _______ _______ _______ _____ _____    ______ ____
ROOT
ATOM      1  C   UNL     1       0.604  11.700  20.466  0.00  0.00    +0.000 C 
ATOM      2  O   UNL     1       0.946  11.130  21.502  0.00  0.00    +0.000 OA
ATOM      3  N   UNL     1       1.280  12.813  19.992  0.00  0.00    +0.000 N 
ATOM      4  C   UNL     1       2.270  13.517  20.773  0.00  0.00    +0.000 C 
ATOM      5  C   UNL     1       3.162  14.069  19.648  0.00  0.00    +0.000 C 
ATOM      6  C   UNL     1       2.136  14.405  18.542  0.00  0.00    +0.000 C 
ATOM      7  C   UNL     1       0.811  13.905  19.154  0.00  0.00    +0.000 C 
ATOM      8  C   UNL     1       0.399  14.947  20.224  0.00  0.00    +0.000 C 
ATOM      9  C   UNL     1       1.426  14.665  21.360  0.00  0.00    +0.000 C 
ENDROOT
BRANCH   1  14
ATOM     10  C   UNL     1      -2.601  11.482  18.768  0.00  0.00    +0.000 A 
ATOM     11  C   UNL     1      -2.406  10.618  17.708  0.00  0.00    +0.000 A 
ATOM     12  C   UNL     1      -1.189   9.944  17.624  0.00  0.00    +0.000 A 
ATOM     13  C   UNL     1      -0.213  10.160  18.610  0.00  0.00    +0.000 A 
ATOM     14  C   UNL     1      -0.479  11.083  19.620  0.00  0.00    +0.000 A 
ATOM     15  N   UNL     1      -1.677  11.730  19.720  0.00  0.00    +0.000 NA
BRANCH  13  16
ATOM     16  N   UNL     1       0.974   9.398  18.571  0.00  0.00    +0.000 N 
ATOM     17  N   UNL     1       1.804   9.425  17.486  0.00  0.00    +0.000 NA
ATOM     18  C   UNL     1       2.727   8.518  17.816  0.00  0.00    +0.000 A 
ATOM     19  C   UNL     1       2.370   7.894  19.011  0.00  0.00    +0.000 A 
ATOM     20  N   UNL     1       1.242   8.426  19.480  0.00  0.00    +0.000 NA
ENDBRANCH  13  16
BRANCH  10  22
ATOM     21  C   UNL     1      -4.119  12.642  20.107  0.00  0.00    +0.000 C 
ATOM     22  O   UNL     1      -3.819  12.131  18.813  0.00  0.00    +0.000 OA
ENDBRANCH  10  22
ENDBRANCH   1  14
BRANCH   8  23
ATOM     23  C   UNL     1      -1.049  14.745  20.662  0.00  0.00    +0.000 C 
BRANCH  23  24
ATOM     24  O   UNL     1      -1.210  15.192  22.010  0.00  0.00    +0.000 OA
BRANCH  24  25
ATOM     25  C   UNL     1      -2.093  14.393  22.713  0.00  0.00    +0.000 A 
ATOM     26  C   UNL     1      -1.714  13.073  22.913  0.00  0.00    +0.000 A 
ATOM     27  C   UNL     1      -2.575  12.239  23.624  0.00  0.00    +0.000 A 
ATOM     28  C   UNL     1      -3.774  12.756  24.092  0.00  0.00    +0.000 A 
ATOM     29  F   UNL     1      -4.626  11.979  24.772  0.00  0.00    +0.000 F 
ATOM     30  C   UNL     1      -4.073  14.084  23.850  0.00  0.00    +0.000 A 
ATOM     31  N   UNL     1      -3.250  14.918  23.176  0.00  0.00    +0.000 NA
ENDBRANCH  24  25
ENDBRANCH  23  24
ENDBRANCH   8  23
TORSDOF 6
ENDMDL
MODEL 5
REMARK VINA RESULT:      -5.9      9.505     12.525
REMARK  Name = 
REMARK  7 active torsions:
REMARK  status: ('A' for Active; 'I' for Inactive)
REMARK    1  A    between atoms: C_1  and  O_2
REMARK    2  A    between atoms: O_2  and  C_3
REMARK    3  A    between atoms: C_6  and  N_7
REMARK    4  A    between atoms: C_12  and  C_13
REMARK    5  A    between atoms: C_20  and  C_21
REMARK    6  A    between atoms: C_21  and  O_22
REMARK    7  A    between atoms: O_22  and  C_23
REMARK                            x       y       z     vdW  Elec       q    Type
REMARK                         _______ _______ _______ _____ _____    ______ ____
ROOT
ATOM      1  C   UNL     1       4.150   6.427  17.629  0.00  0.00    +0.000 C 
ATOM      2  O   UNL     1       3.819   7.498  17.121  0.00  0.00    +0.000 OA
ATOM      3  N   UNL     1       5.479   6.123  17.882  0.00  0.00    +0.000 N 
ATOM      4  C   UNL     1       6.572   6.917  17.373  0.00  0.00    +0.000 C 
ATOM      5  C   UNL     1       7.624   6.665  18.467  0.00  0.00    +0.000 C 
ATOM      6  C   UNL     1       7.369   5.187  18.841  0.00  0.00    +0.000 C 
ATOM      7  C   UNL     1       6.141   4.832  17.977  0.00  0.00    +0.000 C 
ATOM      8  C   UNL     1       6.658   4.653  16.529  0.00  0.00    +0.000 C 
ATOM      9  C   UNL     1       6.955   6.124  16.109  0.00  0.00    +0.000 C 
ENDROOT
BRANCH   1  14
ATOM     10  C   UNL     1       2.517   3.243  18.264  0.00  0.00    +0.000 A 
ATOM     11  C   UNL     1       1.704   3.452  19.362  0.00  0.00    +0.000 A 
ATOM     12  C   UNL     1       1.565   4.753  19.840  0.00  0.00    +0.000 A 
ATOM     13  C   UNL     1       2.243   5.800  19.195  0.00  0.00    +0.000 A 
ATOM     14  C   UNL     1       3.076   5.492  18.121  0.00  0.00    +0.000 A 
ATOM     15  N   UNL     1       3.201   4.222  17.635  0.00  0.00    +0.000 NA
BRANCH  13  16
ATOM     16  N   UNL     1       2.015   7.125  19.624  0.00  0.00    +0.000 N 
ATOM     17  N   UNL     1       1.809   7.423  20.942  0.00  0.00    +0.000 NA
ATOM     18  C   UNL     1       1.547   8.731  20.896  0.00  0.00    +0.000 A 
ATOM     19  C   UNL     1       1.484   9.154  19.569  0.00  0.00    +0.000 A 
ATOM     20  N   UNL     1       1.749   8.133  18.756  0.00  0.00    +0.000 NA
ENDBRANCH  13  16
BRANCH  10  22
ATOM     21  C   UNL     1       3.744   1.264  18.398  0.00  0.00    +0.000 C 
ATOM     22  O   UNL     1       2.630   1.940  17.824  0.00  0.00    +0.000 OA
ENDBRANCH  10  22
ENDBRANCH   1  14
BRANCH   8  23
ATOM     23  C   UNL     1       5.609   3.980  15.648  0.00  0.00    +0.000 C 
BRANCH  23  24
ATOM     24  O   UNL     1       5.497   4.686  14.409  0.00  0.00    +0.000 OA
BRANCH  24  25
ATOM     25  C   UNL     1       5.840   3.887  13.333  0.00  0.00    +0.000 A 
ATOM     26  C   UNL     1       4.800   3.240  12.681  0.00  0.00    +0.000 A 
ATOM     27  C   UNL     1       5.107   2.433  11.587  0.00  0.00    +0.000 A 
ATOM     28  C   UNL     1       6.432   2.303  11.201  0.00  0.00    +0.000 A 
ATOM     29  F   UNL     1       6.760   1.530  10.158  0.00  0.00    +0.000 F 
ATOM     30  C   UNL     1       7.407   2.985  11.905  0.00  0.00    +0.000 A 
ATOM     31  N   UNL     1       7.137   3.785  12.960  0.00  0.00    +0.000 NA
ENDBRANCH  24  25
ENDBRANCH  23  24
ENDBRANCH   8  23
TORSDOF 6
ENDMDL
MODEL 6
REMARK VINA RESULT:      -5.9      9.793     13.153
REMARK  Name = 
REMARK  7 active torsions:
REMARK  status: ('A' for Active; 'I' for Inactive)
REMARK    1  A    between atoms: C_1  and  O_2
REMARK    2  A    between atoms: O_2  and  C_3
REMARK    3  A    between atoms: C_6  and  N_7
REMARK    4  A    between atoms: C_12  and  C_13
REMARK    5  A    between atoms: C_20  and  C_21
REMARK    6  A    between atoms: C_21  and  O_22
REMARK    7  A    between atoms: O_22  and  C_23
REMARK                            x       y       z     vdW  Elec       q    Type
REMARK                         _______ _______ _______ _____ _____    ______ ____
ROOT
ATOM      1  C   UNL     1      -2.994  13.816  20.732  0.00  0.00    +0.000 C 
ATOM      2  O   UNL     1      -2.629  14.949  20.418  0.00  0.00    +0.000 OA
ATOM      3  N   UNL     1      -2.981  13.386  22.049  0.00  0.00    +0.000 N 
ATOM      4  C   UNL     1      -2.338  14.131  23.107  0.00  0.00    +0.000 C 
ATOM      5  C   UNL     1      -3.202  13.704  24.305  0.00  0.00    +0.000 C 
ATOM      6  C   UNL     1      -3.514  12.225  23.982  0.00  0.00    +0.000 C 
ATOM      7  C   UNL     1      -2.865  12.043  22.594  0.00  0.00    +0.000 C 
ATOM      8  C   UNL     1      -1.338  11.947  22.831  0.00  0.00    +0.000 C 
ATOM      9  C   UNL     1      -0.974  13.419  23.187  0.00  0.00    +0.000 C 
ENDROOT
BRANCH   1  14
ATOM     10  C   UNL     1      -3.066  11.413  18.006  0.00  0.00    +0.000 A 
ATOM     11  C   UNL     1      -4.297  10.790  18.089  0.00  0.00    +0.000 A 
ATOM     12  C   UNL     1      -5.225  11.285  19.002  0.00  0.00    +0.000 A 
ATOM     13  C   UNL     1      -4.887  12.392  19.797  0.00  0.00    +0.000 A 
ATOM     14  C   UNL     1      -3.607  12.931  19.677  0.00  0.00    +0.000 A 
ATOM     15  N   UNL     1      -2.700  12.463  18.770  0.00  0.00    +0.000 NA
BRANCH  13  16
ATOM     16  N   UNL     1      -5.869  12.947  20.644  0.00  0.00    +0.000 N 
ATOM     17  N   UNL     1      -6.379  12.247  21.701  0.00  0.00    +0.000 NA
ATOM     18  C   UNL     1      -7.316  13.078  22.162  0.00  0.00    +0.000 A 
ATOM     19  C   UNL     1      -7.428  14.181  21.316  0.00  0.00    +0.000 A 
ATOM     20  N   UNL     1      -6.533  14.089  20.333  0.00  0.00    +0.000 NA
ENDBRANCH  13  16
BRANCH  10  22
ATOM     21  C   UNL     1      -2.741  10.750  15.793  0.00  0.00    +0.000 C 
ATOM     22  O   UNL     1      -2.175  10.890  17.092  0.00  0.00    +0.000 OA
ENDBRANCH  10  22
ENDBRANCH   1  14
BRANCH   8  23
ATOM     23  C   UNL     1      -0.617  11.436  21.586  0.00  0.00    +0.000 C 
BRANCH  23  24
ATOM     24  O   UNL     1      -0.347  10.039  21.726  0.00  0.00    +0.000 OA
BRANCH  24  25
ATOM     25  C   UNL     1       0.388   9.551  20.661  0.00  0.00    +0.000 A 
ATOM     26  C   UNL     1       0.255  10.221  19.454  0.00  0.00    +0.000 A 
ATOM     27  C   UNL     1       0.987   9.763  18.360  0.00  0.00    +0.000 A 
ATOM     28  C   UNL     1       1.806   8.656  18.518  0.00  0.00    +0.000 A 
ATOM     29  F   UNL     1       2.517   8.186  17.485  0.00  0.00    +0.000 F 
ATOM     30  C   UNL     1       1.881   8.048  19.757  0.00  0.00    +0.000 A 
ATOM     31  N   UNL     1       1.194   8.479  20.838  0.00  0.00    +0.000 NA
ENDBRANCH  24  25
ENDBRANCH  23  24
ENDBRANCH   8  23
TORSDOF 6
ENDMDL
MODEL 7
REMARK VINA RESULT:      -5.8     10.126     13.723
REMARK  Name = 
REMARK  7 active torsions:
REMARK  status: ('A' for Active; 'I' for Inactive)
REMARK    1  A    between atoms: C_1  and  O_2
REMARK    2  A    between atoms: O_2  and  C_3
REMARK    3  A    between atoms: C_6  and  N_7
REMARK    4  A    between atoms: C_12  and  C_13
REMARK    5  A    between atoms: C_20  and  C_21
REMARK    6  A    between atoms: C_21  and  O_22
REMARK    7  A    between atoms: O_22  and  C_23
REMARK                            x       y       z     vdW  Elec       q    Type
REMARK                         _______ _______ _______ _____ _____    ______ ____
ROOT
ATOM      1  C   UNL     1      -3.995  14.050  21.256  0.00  0.00    +0.000 C 
ATOM      2  O   UNL     1      -3.738  15.194  20.884  0.00  0.00    +0.000 OA
ATOM      3  N   UNL     1      -3.773  13.641  22.561  0.00  0.00    +0.000 N 
ATOM      4  C   UNL     1      -3.025  14.433  23.510  0.00  0.00    +0.000 C 
ATOM      5  C   UNL     1      -3.688  13.982  24.823  0.00  0.00    +0.000 C 
ATOM      6  C   UNL     1      -3.966  12.484  24.559  0.00  0.00    +0.000 C 
ATOM      7  C   UNL     1      -3.512  12.314  23.094  0.00  0.00    +0.000 C 
ATOM      8  C   UNL     1      -1.964  12.297  23.112  0.00  0.00    +0.000 C 
ATOM      9  C   UNL     1      -1.629  13.791  23.400  0.00  0.00    +0.000 C 
ENDROOT
BRANCH   1  14
ATOM     10  C   UNL     1      -4.334  11.633  18.563  0.00  0.00    +0.000 A 
ATOM     11  C   UNL     1      -5.491  10.927  18.836  0.00  0.00    +0.000 A 
ATOM     12  C   UNL     1      -6.295  11.363  19.887  0.00  0.00    +0.000 A 
ATOM     13  C   UNL     1      -5.911  12.495  20.624  0.00  0.00    +0.000 A 
ATOM     14  C   UNL     1      -4.706  13.120  20.306  0.00  0.00    +0.000 A 
ATOM     15  N   UNL     1      -3.924  12.709  19.265  0.00  0.00    +0.000 NA
BRANCH  13  16
ATOM     16  N   UNL     1      -6.782  12.987  21.619  0.00  0.00    +0.000 N 
ATOM     17  N   UNL     1      -7.210  14.285  21.615  0.00  0.00    +0.000 NA
ATOM     18  C   UNL     1      -7.916  14.351  22.746  0.00  0.00    +0.000 A 
ATOM     19  C   UNL     1      -7.797  13.152  23.449  0.00  0.00    +0.000 A 
ATOM     20  N   UNL     1      -7.054  12.293  22.754  0.00  0.00    +0.000 NA
ENDBRANCH  13  16
BRANCH  10  22
ATOM     21  C   UNL     1      -2.205  11.577  17.610  0.00  0.00    +0.000 C 
ATOM     22  O   UNL     1      -3.565  11.166  17.516  0.00  0.00    +0.000 OA
ENDBRANCH  10  22
ENDBRANCH   1  14
BRANCH   8  23
ATOM     23  C   UNL     1      -1.403  11.804  21.781  0.00  0.00    +0.000 C 
BRANCH  23  24
ATOM     24  O   UNL     1      -0.071  11.319  21.972  0.00  0.00    +0.000 OA
BRANCH  24  25
ATOM     25  C   UNL     1       0.483  10.868  20.788  0.00  0.00    +0.000 A 
ATOM     26  C   UNL     1       0.686   9.499  20.676  0.00  0.00    +0.000 A 
ATOM     27  C   UNL     1       1.235   9.007  19.494  0.00  0.00    +0.000 A 
ATOM     28  C   UNL     1       1.563   9.900  18.485  0.00  0.00    +0.000 A 
ATOM     29  F   UNL     1       2.099   9.459  17.339  0.00  0.00    +0.000 F 
ATOM     30  C   UNL     1       1.326  11.248  18.678  0.00  0.00    +0.000 A 
ATOM     31  N   UNL     1       0.782  11.751  19.808  0.00  0.00    +0.000 NA
ENDBRANCH  24  25
ENDBRANCH  23  24
ENDBRANCH   8  23
TORSDOF 6
ENDMDL
MODEL 8
REMARK VINA RESULT:      -5.7      1.194      1.360
REMARK  Name = 
REMARK  7 active torsions:
REMARK  status: ('A' for Active; 'I' for Inactive)
REMARK    1  A    between atoms: C_1  and  O_2
REMARK    2  A    between atoms: O_2  and  C_3
REMARK    3  A    between atoms: C_6  and  N_7
REMARK    4  A    between atoms: C_12  and  C_13
REMARK    5  A    between atoms: C_20  and  C_21
REMARK    6  A    between atoms: C_21  and  O_22
REMARK    7  A    between atoms: O_22  and  C_23
REMARK                            x       y       z     vdW  Elec       q    Type
REMARK                         _______ _______ _______ _____ _____    ______ ____
ROOT
ATOM      1  C   UNL     1       8.642  13.484  18.632  0.00  0.00    +0.000 C 
ATOM      2  O   UNL     1       7.991  13.122  17.652  0.00  0.00    +0.000 OA
ATOM      3  N   UNL     1       9.755  12.782  19.065  0.00  0.00    +0.000 N 
ATOM      4  C   UNL     1      10.100  11.474  18.557  0.00  0.00    +0.000 C 
ATOM      5  C   UNL     1      11.628  11.510  18.728  0.00  0.00    +0.000 C 
ATOM      6  C   UNL     1      11.799  12.301  20.045  0.00  0.00    +0.000 C 
ATOM      7  C   UNL     1      10.346  12.691  20.390  0.00  0.00    +0.000 C 
ATOM      8  C   UNL     1       9.664  11.411  20.935  0.00  0.00    +0.000 C 
ATOM      9  C   UNL     1       9.490  10.563  19.640  0.00  0.00    +0.000 C 
ENDROOT
BRANCH   1  14
ATOM     10  C   UNL     1       6.964  15.756  20.919  0.00  0.00    +0.000 A 
ATOM     11  C   UNL     1       7.835  16.813  21.103  0.00  0.00    +0.000 A 
ATOM     12  C   UNL     1       8.985  16.863  20.317  0.00  0.00    +0.000 A 
ATOM     13  C   UNL     1       9.216  15.852  19.371  0.00  0.00    +0.000 A 
ATOM     14  C   UNL     1       8.305  14.801  19.282  0.00  0.00    +0.000 A 
ATOM     15  N   UNL     1       7.167  14.757  20.035  0.00  0.00    +0.000 NA
BRANCH  13  16
ATOM     16  N   UNL     1      10.330  15.966  18.511  0.00  0.00    +0.000 N 
ATOM     17  N   UNL     1      11.609  15.905  18.988  0.00  0.00    +0.000 NA
ATOM     18  C   UNL     1      12.329  16.145  17.891  0.00  0.00    +0.000 A 
ATOM     19  C   UNL     1      11.483  16.460  16.828  0.00  0.00    +0.000 A 
ATOM     20  N   UNL     1      10.213  16.378  17.223  0.00  0.00    +0.000 NA
ENDBRANCH  13  16
BRANCH  10  22
ATOM     21  C   UNL     1       6.038  16.425  22.953  0.00  0.00    +0.000 C 
ATOM     22  O   UNL     1       5.840  15.743  21.719  0.00  0.00    +0.000 OA
ENDBRANCH  10  22
ENDBRANCH   1  14
BRANCH   8  23
ATOM     23  C   UNL     1       8.339  11.740  21.617  0.00  0.00    +0.000 C 
BRANCH  23  24
ATOM     24  O   UNL     1       8.321  11.173  22.930  0.00  0.00    +0.000 OA
BRANCH  24  25
ATOM     25  C   UNL     1       8.207  12.147  23.906  0.00  0.00    +0.000 A 
ATOM     26  C   UNL     1       7.702  11.742  25.133  0.00  0.00    +0.000 A 
ATOM     27  C   UNL     1       7.581  12.694  26.143  0.00  0.00    +0.000 A 
ATOM     28  C   UNL     1       7.958  14.002  25.881  0.00  0.00    +0.000 A 
ATOM     29  F   UNL     1       7.848  14.942  26.829  0.00  0.00    +0.000 F 
ATOM     30  C   UNL     1       8.454  14.320  24.630  0.00  0.00    +0.000 A 
ATOM     31  N   UNL     1       8.596  13.415  23.637  0.00  0.00    +0.000 NA
ENDBRANCH  24  25
ENDBRANCH  23  24
ENDBRANCH   8  23
TORSDOF 6
ENDMDL
MODEL 9
REMARK VINA RESULT:      -5.7      2.856      5.725
REMARK  Name = 
REMARK  7 active torsions:
REMARK  status: ('A' for Active; 'I' for Inactive)
REMARK    1  A    between atoms: C_1  and  O_2
REMARK    2  A    between atoms: O_2  and  C_3
REMARK    3  A    between atoms: C_6  and  N_7
REMARK    4  A    between atoms: C_12  and  C_13
REMARK    5  A    between atoms: C_20  and  C_21
REMARK    6  A    between atoms: C_21  and  O_22
REMARK    7  A    between atoms: O_22  and  C_23
REMARK                            x       y       z     vdW  Elec       q    Type
REMARK                         _______ _______ _______ _____ _____    ______ ____
ROOT
ATOM      1  C   UNL     1       6.537  14.483  23.246  0.00  0.00    +0.000 C 
ATOM      2  O   UNL     1       7.123  15.522  23.550  0.00  0.00    +0.000 OA
ATOM      3  N   UNL     1       6.656  13.333  24.009  0.00  0.00    +0.000 N 
ATOM      4  C   UNL     1       7.632  13.192  25.065  0.00  0.00    +0.000 C 
ATOM      5  C   UNL     1       6.895  12.208  25.988  0.00  0.00    +0.000 C 
ATOM      6  C   UNL     1       6.166  11.287  24.982  0.00  0.00    +0.000 C 
ATOM      7  C   UNL     1       6.511  11.937  23.626  0.00  0.00    +0.000 C 
ATOM      8  C   UNL     1       7.981  11.559  23.317  0.00  0.00    +0.000 C 
ATOM      9  C   UNL     1       8.763  12.448  24.329  0.00  0.00    +0.000 C 
ENDROOT
BRANCH   1  14
ATOM     10  C   UNL     1       3.282  14.490  21.630  0.00  0.00    +0.000 A 
ATOM     11  C   UNL     1       3.466  15.131  20.420  0.00  0.00    +0.000 A 
ATOM     12  C   UNL     1       4.767  15.452  20.036  0.00  0.00    +0.000 A 
ATOM     13  C   UNL     1       5.836  15.116  20.881  0.00  0.00    +0.000 A 
ATOM     14  C   UNL     1       5.555  14.510  22.104  0.00  0.00    +0.000 A 
ATOM     15  N   UNL     1       4.284  14.173  22.476  0.00  0.00    +0.000 NA
BRANCH  13  16
ATOM     16  N   UNL     1       7.155  15.355  20.438  0.00  0.00    +0.000 N 
ATOM     17  N   UNL     1       7.949  14.341  19.981  0.00  0.00    +0.000 NA
ATOM     18  C   UNL     1       9.106  14.968  19.762  0.00  0.00    +0.000 A 
ATOM     19  C   UNL     1       9.018  16.290  20.198  0.00  0.00    +0.000 A 
ATOM     20  N   UNL     1       7.792  16.534  20.657  0.00  0.00    +0.000 NA
ENDBRANCH  13  16
BRANCH  10  22
ATOM     21  C   UNL     1       1.074  15.242  21.649  0.00  0.00    +0.000 C 
ATOM     22  O   UNL     1       1.979  14.192  21.974  0.00  0.00    +0.000 OA
ENDBRANCH  10  22
ENDBRANCH   1  14
BRANCH   8  23
ATOM     23  C   UNL     1       8.333  11.856  21.862  0.00  0.00    +0.000 C 
BRANCH  23  24
ATOM     24  O   UNL     1       9.182  10.825  21.352  0.00  0.00    +0.000 OA
BRANCH  24  25
ATOM     25  C   UNL     1       9.953  11.273  20.295  0.00  0.00    +0.000 A 
ATOM     26  C   UNL     1       9.476  11.004  19.019  0.00  0.00    +0.000 A 
ATOM     27  C   UNL     1      10.223  11.447  17.929  0.00  0.00    +0.000 A 
ATOM     28  C   UNL     1      11.409  12.127  18.160  0.00  0.00    +0.000 A 
ATOM     29  F   UNL     1      12.152  12.561  17.134  0.00  0.00    +0.000 F 
ATOM     30  C   UNL     1      11.809  12.354  19.464  0.00  0.00    +0.000 A 
ATOM     31  N   UNL     1      11.099  11.949  20.540  0.00  0.00    +0.000 NA
ENDBRANCH  24  25
ENDBRANCH  23  24
ENDBRANCH   8  23
TORSDOF 6
ENDMDL
