MODEL 1
REMARK VINA RESULT:      -7.8      0.000      0.000
REMARK  Name = 
REMARK  9 active torsions:
REMARK  status: ('A' for Active; 'I' for Inactive)
REMARK    1  A    between atoms: C_1  and  C_2
REMARK    2  A    between atoms: C_3  and  C_4
REMARK    3  A    between atoms: C_4  and  N_5
REMARK    4  A    between atoms: C_11  and  N_12
REMARK    5  A    between atoms: N_19  and  C_20
REMARK    6  A    between atoms: C_20  and  C_21
REMARK    7  A    between atoms: C_20  and  C_22
REMARK    8  A    between atoms: C_24  and  C_25
REMARK    9  A    between atoms: N_35  and  C_36
REMARK                            x       y       z     vdW  Elec       q    Type
REMARK                         _______ _______ _______ _____ _____    ______ ____
ROOT
ATOM      1  N   UNL     1      -2.905  12.358  20.483  0.00  0.00    +0.000 N 
ATOM      2  C   UNL     1      -2.308  13.358  21.211  0.00  0.00    +0.000 C 
ATOM      3  N   UNL     1      -2.827  13.630  22.447  0.00  0.00    +0.000 N 
ATOM      4  C   UNL     1      -2.267  14.727  23.250  0.00  0.00    +0.000 C 
ATOM      5  C   UNL     1      -3.413  15.346  24.050  0.00  0.00    +0.000 C 
ATOM      6  C   UNL     1      -4.098  14.305  24.942  0.00  0.00    +0.000 C 
ATOM      7  C   UNL     1      -4.502  13.051  24.150  0.00  0.00    +0.000 C 
ATOM      8  C   UNL     1      -3.323  12.536  23.304  0.00  0.00    +0.000 C 
ATOM      9  N   UNL     1      -1.238  13.897  20.706  0.00  0.00    +0.000 NA
ATOM     10  C   UNL     1      -0.960  13.062  19.508  0.00  0.00    +0.000 C 
ATOM     11  C   UNL     1      -1.832  11.760  19.635  0.00  0.00    +0.000 C 
ATOM     12  C   UNL     1      -0.745  10.720  19.680  0.00  0.00    +0.000 C 
ATOM     13  O   UNL     1      -0.759   9.759  18.903  0.00  0.00    +0.000 OA
ATOM     14  N   UNL     1       0.197  10.960  20.657  0.00  0.00    +0.000 N 
ATOM     15  C   UNL     1       1.053  11.975  20.304  0.00  0.00    +0.000 C 
ATOM     16  O   UNL     1       2.239  12.019  20.600  0.00  0.00    +0.000 OA
ATOM     17  N   UNL     1       0.466  12.877  19.433  0.00  0.00    +0.000 N 
ATOM     18  C   UNL     1       1.197  13.293  18.263  0.00  0.00    +0.000 C 
ENDROOT
BRANCH   7  19
ATOM     19  N   UNL     1      -5.030  12.040  25.076  0.00  0.00    +0.000 NA
ATOM     20  H   UNL     1      -4.671  12.201  26.016  0.00  0.00    +0.000 HD
ATOM     21  H   UNL     1      -4.701  11.115  24.798  0.00  0.00    +0.000 HD
ENDBRANCH   7  19
BRANCH  14  22
ATOM     22  C   UNL     1       0.697   9.860  21.490  0.00  0.00    +0.000 C 
ATOM     23  C   UNL     1      -0.420   9.361  22.421  0.00  0.00    +0.000 C 
BRANCH  22  24
ATOM     24  C   UNL     1       1.314   8.722  20.688  0.00  0.00    +0.000 A 
ATOM     25  N   UNL     1       1.879   9.035  19.510  0.00  0.00    +0.000 NA
ATOM     26  C   UNL     1       2.318   8.019  18.745  0.00  0.00    +0.000 A 
ATOM     27  C   UNL     1       2.854   8.419  17.401  0.00  0.00    +0.000 C 
ATOM     28  C   UNL     1       2.244   6.684  19.156  0.00  0.00    +0.000 A 
ATOM     29  C   UNL     1       2.712   5.571  18.417  0.00  0.00    +0.000 A 
ATOM     30  C   UNL     1       2.591   4.280  18.927  0.00  0.00    +0.000 A 
ATOM     31  C   UNL     1       1.988   4.087  20.165  0.00  0.00    +0.000 A 
ATOM     32  C   UNL     1       1.517   5.186  20.885  0.00  0.00    +0.000 A 
ATOM     33  C   UNL     1       1.654   6.480  20.407  0.00  0.00    +0.000 A 
ATOM     34  N   UNL     1       1.207   7.478  21.170  0.00  0.00    +0.000 NA
ENDBRANCH  22  24
ENDBRANCH  14  22
BRANCH   1  35
ATOM     35  C   UNL     1      -4.072  12.712  19.681  0.00  0.00    +0.000 C 
BRANCH  35  38
ATOM     36  C   UNL     1      -7.715  11.749  21.727  0.00  0.00    +0.000 C 
ATOM     37  C   UNL     1      -6.472  12.076  21.027  0.00  0.00    +0.000 C 
ATOM     38  C   UNL     1      -5.364  12.370  20.406  0.00  0.00    +0.000 C 
ENDBRANCH  35  38
ENDBRANCH   1  35
TORSDOF 5
ENDMDL
MODEL 2
REMARK VINA RESULT:      -7.7      3.136      8.401
REMARK  Name = 
REMARK  9 active torsions:
REMARK  status: ('A' for Active; 'I' for Inactive)
REMARK    1  A    between atoms: C_1  and  C_2
REMARK    2  A    between atoms: C_3  and  C_4
REMARK    3  A    between atoms: C_4  and  N_5
REMARK    4  A    between atoms: C_11  and  N_12
REMARK    5  A    between atoms: N_19  and  C_20
REMARK    6  A    between atoms: C_20  and  C_21
REMARK    7  A    between atoms: C_20  and  C_22
REMARK    8  A    between atoms: C_24  and  C_25
REMARK    9  A    between atoms: N_35  and  C_36
REMARK                            x       y       z     vdW  Elec       q    Type
REMARK                         _______ _______ _______ _____ _____    ______ ____
ROOT
ATOM      1  N   UNL     1      -2.162  12.108  22.640  0.00  0.00    +0.000 N 
ATOM      2  C   UNL     1      -1.991  13.196  21.819  0.00  0.00    +0.000 C 
ATOM      3  N   UNL     1      -1.692  12.951  20.507  0.00  0.00    +0.000 N 
ATOM      4  C   UNL     1      -1.441  14.074  19.592  0.00  0.00    +0.000 C 
ATOM      5  C   UNL     1      -0.388  13.621  18.581  0.00  0.00    +0.000 C 
ATOM      6  C   UNL     1      -0.851  12.378  17.812  0.00  0.00    +0.000 C 
ATOM      7  C   UNL     1      -1.321  11.262  18.760  0.00  0.00    +0.000 C 
ATOM      8  C   UNL     1      -2.312  11.812  19.802  0.00  0.00    +0.000 C 
ATOM      9  N   UNL     1      -2.222  14.366  22.335  0.00  0.00    +0.000 NA
ATOM     10  C   UNL     1      -2.769  14.051  23.681  0.00  0.00    +0.000 C 
ATOM     11  C   UNL     1      -3.141  12.523  23.687  0.00  0.00    +0.000 C 
ATOM     12  C   UNL     1      -4.623  12.616  23.936  0.00  0.00    +0.000 C 
ATOM     13  O   UNL     1      -5.148  11.985  24.861  0.00  0.00    +0.000 OA
ATOM     14  N   UNL     1      -5.275  13.433  23.038  0.00  0.00    +0.000 N 
ATOM     15  C   UNL     1      -5.052  14.763  23.302  0.00  0.00    +0.000 C 
ATOM     16  O   UNL     1      -5.874  15.653  23.131  0.00  0.00    +0.000 OA
ATOM     17  N   UNL     1      -3.842  14.976  23.938  0.00  0.00    +0.000 N 
ATOM     18  C   UNL     1      -3.802  15.840  25.091  0.00  0.00    +0.000 C 
ENDROOT
BRANCH   7  19
ATOM     19  N   UNL     1      -1.874  10.154  17.970  0.00  0.00    +0.000 NA
ATOM     20  H   UNL     1      -2.005   9.332  18.557  0.00  0.00    +0.000 HD
ATOM     21  H   UNL     1      -1.210   9.885  17.244  0.00  0.00    +0.000 HD
ENDBRANCH   7  19
BRANCH  14  22
ATOM     22  C   UNL     1      -6.562  13.024  22.464  0.00  0.00    +0.000 C 
ATOM     23  C   UNL     1      -7.709  13.756  23.181  0.00  0.00    +0.000 C 
BRANCH  22  24
ATOM     24  C   UNL     1      -6.637  13.200  20.953  0.00  0.00    +0.000 A 
ATOM     25  N   UNL     1      -6.189  12.188  20.193  0.00  0.00    +0.000 NA
ATOM     26  C   UNL     1      -6.143  12.386  18.862  0.00  0.00    +0.000 A 
ATOM     27  C   UNL     1      -5.547  11.260  18.070  0.00  0.00    +0.000 C 
ATOM     28  C   UNL     1      -6.584  13.573  18.265  0.00  0.00    +0.000 A 
ATOM     29  C   UNL     1      -6.591  13.838  16.875  0.00  0.00    +0.000 A 
ATOM     30  C   UNL     1      -7.058  15.057  16.388  0.00  0.00    +0.000 A 
ATOM     31  C   UNL     1      -7.501  16.026  17.282  0.00  0.00    +0.000 A 
ATOM     32  C   UNL     1      -7.480  15.766  18.653  0.00  0.00    +0.000 A 
ATOM     33  C   UNL     1      -7.047  14.548  19.154  0.00  0.00    +0.000 A 
ATOM     34  N   UNL     1      -7.088  14.366  20.474  0.00  0.00    +0.000 NA
ENDBRANCH  22  24
ENDBRANCH  14  22
BRANCH   1  35
ATOM     35  C   UNL     1      -0.969  11.520  23.241  0.00  0.00    +0.000 C 
BRANCH  35  38
ATOM     36  C   UNL     1       0.204   7.941  21.192  0.00  0.00    +0.000 C 
ATOM     37  C   UNL     1      -0.195   9.162  21.893  0.00  0.00    +0.000 C 
ATOM     38  C   UNL     1      -0.552  10.251  22.515  0.00  0.00    +0.000 C 
ENDBRANCH  35  38
ENDBRANCH   1  35
TORSDOF 5
ENDMDL
MODEL 3
REMARK VINA RESULT:      -7.7      2.863      7.054
REMARK  Name = 
REMARK  9 active torsions:
REMARK  status: ('A' for Active; 'I' for Inactive)
REMARK    1  A    between atoms: C_1  and  C_2
REMARK    2  A    between atoms: C_3  and  C_4
REMARK    3  A    between atoms: C_4  and  N_5
REMARK    4  A    between atoms: C_11  and  N_12
REMARK    5  A    between atoms: N_19  and  C_20
REMARK    6  A    between atoms: C_20  and  C_21
REMARK    7  A    between atoms: C_20  and  C_22
REMARK    8  A    between atoms: C_24  and  C_25
REMARK    9  A    between atoms: N_35  and  C_36
REMARK                            x       y       z     vdW  Elec       q    Type
REMARK                         _______ _______ _______ _____ _____    ______ ____
ROOT
ATOM      1  N   UNL     1      -1.306  11.897  22.518  0.00  0.00    +0.000 N 
ATOM      2  C   UNL     1      -0.521  13.024  22.500  0.00  0.00    +0.000 C 
ATOM      3  N   UNL     1       0.395  13.134  21.490  0.00  0.00    +0.000 N 
ATOM      4  C   UNL     1       1.304  14.289  21.449  0.00  0.00    +0.000 C 
ATOM      5  C   UNL     1       2.635  13.811  20.870  0.00  0.00    +0.000 C 
ATOM      6  C   UNL     1       2.451  13.206  19.473  0.00  0.00    +0.000 C 
ATOM      7  C   UNL     1       1.347  12.136  19.455  0.00  0.00    +0.000 C 
ATOM      8  C   UNL     1       0.067  12.660  20.131  0.00  0.00    +0.000 C 
ATOM      9  N   UNL     1      -0.780  13.937  23.387  0.00  0.00    +0.000 NA
ATOM     10  C   UNL     1      -2.019  13.444  24.043  0.00  0.00    +0.000 C 
ATOM     11  C   UNL     1      -2.604  12.301  23.135  0.00  0.00    +0.000 C 
ATOM     12  C   UNL     1      -3.935  12.906  22.778  0.00  0.00    +0.000 C 
ATOM     13  O   UNL     1      -4.983  12.277  22.962  0.00  0.00    +0.000 OA
ATOM     14  N   UNL     1      -3.830  14.168  22.234  0.00  0.00    +0.000 N 
ATOM     15  C   UNL     1      -3.551  15.115  23.190  0.00  0.00    +0.000 C 
ATOM     16  O   UNL     1      -3.968  16.264  23.173  0.00  0.00    +0.000 OA
ATOM     17  N   UNL     1      -2.869  14.584  24.271  0.00  0.00    +0.000 N 
ATOM     18  C   UNL     1      -3.309  14.912  25.604  0.00  0.00    +0.000 C 
ENDROOT
BRANCH   7  19
ATOM     19  N   UNL     1       1.125  11.690  18.072  0.00  0.00    +0.000 NA
ATOM     20  H   UNL     1       0.127  11.655  17.869  0.00  0.00    +0.000 HD
ATOM     21  H   UNL     1       1.474  10.738  17.958  0.00  0.00    +0.000 HD
ENDBRANCH   7  19
BRANCH  14  22
ATOM     22  C   UNL     1      -4.643  14.544  21.072  0.00  0.00    +0.000 C 
ATOM     23  C   UNL     1      -4.251  15.953  20.596  0.00  0.00    +0.000 C 
BRANCH  22  24
ATOM     24  C   UNL     1      -4.588  13.530  19.938  0.00  0.00    +0.000 A 
ATOM     25  N   UNL     1      -5.706  13.355  19.215  0.00  0.00    +0.000 NA
ATOM     26  C   UNL     1      -5.699  12.376  18.290  0.00  0.00    +0.000 A 
ATOM     27  C   UNL     1      -7.002  12.163  17.578  0.00  0.00    +0.000 C 
ATOM     28  C   UNL     1      -4.569  11.590  18.039  0.00  0.00    +0.000 A 
ATOM     29  C   UNL     1      -4.482  10.567  17.065  0.00  0.00    +0.000 A 
ATOM     30  C   UNL     1      -3.300   9.847  16.897  0.00  0.00    +0.000 A 
ATOM     31  C   UNL     1      -2.207  10.128  17.709  0.00  0.00    +0.000 A 
ATOM     32  C   UNL     1      -2.301  11.129  18.677  0.00  0.00    +0.000 A 
ATOM     33  C   UNL     1      -3.458  11.875  18.839  0.00  0.00    +0.000 A 
ATOM     34  N   UNL     1      -3.458  12.835  19.764  0.00  0.00    +0.000 NA
ENDBRANCH  22  24
ENDBRANCH  14  22
BRANCH   1  35
ATOM     35  C   UNL     1      -0.765  10.707  23.165  0.00  0.00    +0.000 C 
BRANCH  35  38
ATOM     36  C   UNL     1       1.419   8.280  20.385  0.00  0.00    +0.000 C 
ATOM     37  C   UNL     1       0.672   9.107  21.335  0.00  0.00    +0.000 C 
ATOM     38  C   UNL     1       0.009   9.846  22.180  0.00  0.00    +0.000 C 
ENDBRANCH  35  38
ENDBRANCH   1  35
TORSDOF 5
ENDMDL
MODEL 4
REMARK VINA RESULT:      -7.7      0.901      1.474
REMARK  Name = 
REMARK  9 active torsions:
REMARK  status: ('A' for Active; 'I' for Inactive)
REMARK    1  A    between atoms: C_1  and  C_2
REMARK    2  A    between atoms: C_3  and  C_4
REMARK    3  A    between atoms: C_4  and  N_5
REMARK    4  A    between atoms: C_11  and  N_12
REMARK    5  A    between atoms: N_19  and  C_20
REMARK    6  A    between atoms: C_20  and  C_21
REMARK    7  A    between atoms: C_20  and  C_22
REMARK    8  A    between atoms: C_24  and  C_25
REMARK    9  A    between atoms: N_35  and  C_36
REMARK                            x       y       z     vdW  Elec       q    Type
REMARK                         _______ _______ _______ _____ _____    ______ ____
ROOT
ATOM      1  N   UNL     1      -2.880  12.298  20.500  0.00  0.00    +0.000 N 
ATOM      2  C   UNL     1      -2.300  13.295  21.247  0.00  0.00    +0.000 C 
ATOM      3  N   UNL     1      -2.832  13.546  22.481  0.00  0.00    +0.000 N 
ATOM      4  C   UNL     1      -2.292  14.638  23.303  0.00  0.00    +0.000 C 
ATOM      5  C   UNL     1      -3.450  15.235  24.101  0.00  0.00    +0.000 C 
ATOM      6  C   UNL     1      -4.132  14.175  24.974  0.00  0.00    +0.000 C 
ATOM      7  C   UNL     1      -4.517  12.927  24.162  0.00  0.00    +0.000 C 
ATOM      8  C   UNL     1      -3.325  12.436  23.320  0.00  0.00    +0.000 C 
ATOM      9  N   UNL     1      -1.231  13.851  20.758  0.00  0.00    +0.000 NA
ATOM     10  C   UNL     1      -0.934  13.034  19.552  0.00  0.00    +0.000 C 
ATOM     11  C   UNL     1      -1.794  11.722  19.655  0.00  0.00    +0.000 C 
ATOM     12  C   UNL     1      -0.696  10.693  19.696  0.00  0.00    +0.000 C 
ATOM     13  O   UNL     1      -0.693   9.742  18.906  0.00  0.00    +0.000 OA
ATOM     14  N   UNL     1       0.234  10.930  20.685  0.00  0.00    +0.000 N 
ATOM     15  C   UNL     1       1.083  11.958  20.352  0.00  0.00    +0.000 C 
ATOM     16  O   UNL     1       2.266  12.011  20.659  0.00  0.00    +0.000 OA
ATOM     17  N   UNL     1       0.494  12.865  19.488  0.00  0.00    +0.000 N 
ATOM     18  C   UNL     1       1.230  13.304  18.329  0.00  0.00    +0.000 C 
ENDROOT
BRANCH   7  19
ATOM     19  N   UNL     1      -5.042  11.899  25.070  0.00  0.00    +0.000 NA
ATOM     20  H   UNL     1      -6.033  11.743  24.892  0.00  0.00    +0.000 HD
ATOM     21  H   UNL     1      -4.972  12.224  26.035  0.00  0.00    +0.000 HD
ENDBRANCH   7  19
BRANCH  14  22
ATOM     22  C   UNL     1       0.739   9.825  21.508  0.00  0.00    +0.000 C 
ATOM     23  C   UNL     1      -0.368   9.334  22.456  0.00  0.00    +0.000 C 
BRANCH  22  24
ATOM     24  C   UNL     1       1.333   8.683  20.694  0.00  0.00    +0.000 A 
ATOM     25  N   UNL     1       1.916   8.998  19.526  0.00  0.00    +0.000 NA
ATOM     26  C   UNL     1       2.335   7.983  18.749  0.00  0.00    +0.000 A 
ATOM     27  C   UNL     1       2.892   8.388  17.415  0.00  0.00    +0.000 C 
ATOM     28  C   UNL     1       2.225   6.643  19.141  0.00  0.00    +0.000 A 
ATOM     29  C   UNL     1       2.670   5.530  18.389  0.00  0.00    +0.000 A 
ATOM     30  C   UNL     1       2.513   4.235  18.880  0.00  0.00    +0.000 A 
ATOM     31  C   UNL     1       1.895   4.040  20.111  0.00  0.00    +0.000 A 
ATOM     32  C   UNL     1       1.446   5.141  20.842  0.00  0.00    +0.000 A 
ATOM     33  C   UNL     1       1.620   6.437  20.384  0.00  0.00    +0.000 A 
ATOM     34  N   UNL     1       1.192   7.436  21.157  0.00  0.00    +0.000 NA
ENDBRANCH  22  24
ENDBRANCH  14  22
BRANCH   1  35
ATOM     35  C   UNL     1      -4.044  12.650  19.693  0.00  0.00    +0.000 C 
BRANCH  35  38
ATOM     36  C   UNL     1      -3.908  10.746  15.854  0.00  0.00    +0.000 C 
ATOM     37  C   UNL     1      -3.955  11.398  17.163  0.00  0.00    +0.000 C 
ATOM     38  C   UNL     1      -3.996  11.975  18.331  0.00  0.00    +0.000 C 
ENDBRANCH  35  38
ENDBRANCH   1  35
TORSDOF 5
ENDMDL
MODEL 5
REMARK VINA RESULT:      -7.5      2.843      4.652
REMARK  Name = 
REMARK  9 active torsions:
REMARK  status: ('A' for Active; 'I' for Inactive)
REMARK    1  A    between atoms: C_1  and  C_2
REMARK    2  A    between atoms: C_3  and  C_4
REMARK    3  A    between atoms: C_4  and  N_5
REMARK    4  A    between atoms: C_11  and  N_12
REMARK    5  A    between atoms: N_19  and  C_20
REMARK    6  A    between atoms: C_20  and  C_21
REMARK    7  A    between atoms: C_20  and  C_22
REMARK    8  A    between atoms: C_24  and  C_25
REMARK    9  A    between atoms: N_35  and  C_36
REMARK                            x       y       z     vdW  Elec       q    Type
REMARK                         _______ _______ _______ _____ _____    ______ ____
ROOT
ATOM      1  N   UNL     1      -2.595  16.332  20.869  0.00  0.00    +0.000 N 
ATOM      2  C   UNL     1      -2.106  15.781  22.028  0.00  0.00    +0.000 C 
ATOM      3  N   UNL     1      -2.822  14.759  22.588  0.00  0.00    +0.000 N 
ATOM      4  C   UNL     1      -2.381  14.167  23.859  0.00  0.00    +0.000 C 
ATOM      5  C   UNL     1      -3.630  13.755  24.636  0.00  0.00    +0.000 C 
ATOM      6  C   UNL     1      -4.485  12.766  23.836  0.00  0.00    +0.000 C 
ATOM      7  C   UNL     1      -4.780  13.282  22.418  0.00  0.00    +0.000 C 
ATOM      8  C   UNL     1      -3.487  13.758  21.731  0.00  0.00    +0.000 C 
ATOM      9  N   UNL     1      -0.952  16.210  22.443  0.00  0.00    +0.000 NA
ATOM     10  C   UNL     1      -0.494  17.099  21.343  0.00  0.00    +0.000 C 
ATOM     11  C   UNL     1      -1.408  16.808  20.098  0.00  0.00    +0.000 C 
ATOM     12  C   UNL     1      -0.372  16.320  19.121  0.00  0.00    +0.000 C 
ATOM     13  O   UNL     1      -0.278  16.827  17.997  0.00  0.00    +0.000 OA
ATOM     14  N   UNL     1       0.393  15.285  19.611  0.00  0.00    +0.000 N 
ATOM     15  C   UNL     1       1.323  15.724  20.522  0.00  0.00    +0.000 C 
ATOM     16  O   UNL     1       2.441  15.247  20.658  0.00  0.00    +0.000 OA
ATOM     17  N   UNL     1       0.919  16.877  21.170  0.00  0.00    +0.000 N 
ATOM     18  C   UNL     1       1.850  17.970  21.297  0.00  0.00    +0.000 C 
ENDROOT
BRANCH   7  19
ATOM     19  N   UNL     1      -5.485  12.241  21.658  0.00  0.00    +0.000 NA
ATOM     20  H   UNL     1      -6.283  11.896  22.189  0.00  0.00    +0.000 HD
ATOM     21  H   UNL     1      -4.867  11.442  21.516  0.00  0.00    +0.000 HD
ENDBRANCH   7  19
BRANCH  14  22
ATOM     22  C   UNL     1       0.714  14.133  18.760  0.00  0.00    +0.000 C 
ATOM     23  C   UNL     1       2.086  14.342  18.097  0.00  0.00    +0.000 C 
BRANCH  22  24
ATOM     24  C   UNL     1       0.637  12.799  19.489  0.00  0.00    +0.000 A 
ATOM     25  N   UNL     1       1.120  11.720  18.851  0.00  0.00    +0.000 NA
ATOM     26  C   UNL     1       0.947  10.523  19.440  0.00  0.00    +0.000 A 
ATOM     27  C   UNL     1       1.421   9.344  18.641  0.00  0.00    +0.000 C 
ATOM     28  C   UNL     1       0.335  10.384  20.691  0.00  0.00    +0.000 A 
ATOM     29  C   UNL     1       0.147   9.162  21.381  0.00  0.00    +0.000 A 
ATOM     30  C   UNL     1      -0.473   9.141  22.629  0.00  0.00    +0.000 A 
ATOM     31  C   UNL     1      -0.927  10.331  23.187  0.00  0.00    +0.000 A 
ATOM     32  C   UNL     1      -0.750  11.532  22.498  0.00  0.00    +0.000 A 
ATOM     33  C   UNL     1      -0.110  11.577  21.269  0.00  0.00    +0.000 A 
ATOM     34  N   UNL     1       0.048  12.767  20.690  0.00  0.00    +0.000 NA
ENDBRANCH  22  24
ENDBRANCH  14  22
BRANCH   1  35
ATOM     35  C   UNL     1      -3.597  17.385  20.992  0.00  0.00    +0.000 C 
BRANCH  35  38
ATOM     36  C   UNL     1      -6.607  17.039  17.959  0.00  0.00    +0.000 C 
ATOM     37  C   UNL     1      -5.578  17.157  18.993  0.00  0.00    +0.000 C 
ATOM     38  C   UNL     1      -4.664  17.262  19.916  0.00  0.00    +0.000 C 
ENDBRANCH  35  38
ENDBRANCH   1  35
TORSDOF 5
ENDMDL
MODEL 6
REMARK VINA RESULT:      -7.5      3.256      8.345
REMARK  Name = 
REMARK  9 active torsions:
REMARK  status: ('A' for Active; 'I' for Inactive)
REMARK    1  A    between atoms: C_1  and  C_2
REMARK    2  A    between atoms: C_3  and  C_4
REMARK    3  A    between atoms: C_4  and  N_5
REMARK    4  A    between atoms: C_11  and  N_12
REMARK    5  A    between atoms: N_19  and  C_20
REMARK    6  A    between atoms: C_20  and  C_21
REMARK    7  A    between atoms: C_20  and  C_22
REMARK    8  A    between atoms: C_24  and  C_25
REMARK    9  A    between atoms: N_35  and  C_36
REMARK                            x       y       z     vdW  Elec       q    Type
REMARK                         _______ _______ _______ _____ _____    ______ ____
ROOT
ATOM      1  N   UNL     1      -2.045  11.813  22.569  0.00  0.00    +0.000 N 
ATOM      2  C   UNL     1      -1.656  12.911  21.842  0.00  0.00    +0.000 C 
ATOM      3  N   UNL     1      -1.571  12.767  20.484  0.00  0.00    +0.000 N 
ATOM      4  C   UNL     1      -1.106  13.890  19.657  0.00  0.00    +0.000 C 
ATOM      5  C   UNL     1      -0.330  13.306  18.477  0.00  0.00    +0.000 C 
ATOM      6  C   UNL     1      -1.198  12.344  17.659  0.00  0.00    +0.000 C 
ATOM      7  C   UNL     1      -1.867  11.282  18.548  0.00  0.00    +0.000 C 
ATOM      8  C   UNL     1      -2.554  11.938  19.760  0.00  0.00    +0.000 C 
ATOM      9  N   UNL     1      -1.495  14.023  22.495  0.00  0.00    +0.000 NA
ATOM     10  C   UNL     1      -1.972  13.695  23.864  0.00  0.00    +0.000 C 
ATOM     11  C   UNL     1      -2.758  12.336  23.771  0.00  0.00    +0.000 C 
ATOM     12  C   UNL     1      -4.120  12.791  24.221  0.00  0.00    +0.000 C 
ATOM     13  O   UNL     1      -4.707  12.210  25.141  0.00  0.00    +0.000 OA
ATOM     14  N   UNL     1      -4.602  13.862  23.500  0.00  0.00    +0.000 N 
ATOM     15  C   UNL     1      -3.988  15.037  23.859  0.00  0.00    +0.000 C 
ATOM     16  O   UNL     1      -4.538  16.130  23.885  0.00  0.00    +0.000 OA
ATOM     17  N   UNL     1      -2.710  14.833  24.348  0.00  0.00    +0.000 N 
ATOM     18  C   UNL     1      -2.313  15.498  25.564  0.00  0.00    +0.000 C 
ENDROOT
BRANCH   7  19
ATOM     19  N   UNL     1      -2.787  10.475  17.734  0.00  0.00    +0.000 NA
ATOM     20  H   UNL     1      -3.712  10.901  17.720  0.00  0.00    +0.000 HD
ATOM     21  H   UNL     1      -2.902   9.554  18.157  0.00  0.00    +0.000 HD
ENDBRANCH   7  19
BRANCH  14  22
ATOM     22  C   UNL     1      -6.003  13.892  23.063  0.00  0.00    +0.000 C 
ATOM     23  C   UNL     1      -6.807  14.849  23.958  0.00  0.00    +0.000 C 
BRANCH  22  24
ATOM     24  C   UNL     1      -6.172  14.224  21.586  0.00  0.00    +0.000 A 
ATOM     25  N   UNL     1      -6.561  15.471  21.277  0.00  0.00    +0.000 NA
ATOM     26  C   UNL     1      -6.826  15.734  19.984  0.00  0.00    +0.000 A 
ATOM     27  C   UNL     1      -7.347  17.114  19.708  0.00  0.00    +0.000 C 
ATOM     28  C   UNL     1      -6.664  14.778  18.975  0.00  0.00    +0.000 A 
ATOM     29  C   UNL     1      -6.896  14.993  17.596  0.00  0.00    +0.000 A 
ATOM     30  C   UNL     1      -6.697  13.966  16.675  0.00  0.00    +0.000 A 
ATOM     31  C   UNL     1      -6.286  12.715  17.123  0.00  0.00    +0.000 A 
ATOM     32  C   UNL     1      -6.072  12.504  18.486  0.00  0.00    +0.000 A 
ATOM     33  C   UNL     1      -6.236  13.521  19.413  0.00  0.00    +0.000 A 
ATOM     34  N   UNL     1      -5.979  13.247  20.692  0.00  0.00    +0.000 NA
ENDBRANCH  22  24
ENDBRANCH  14  22
BRANCH   1  35
ATOM     35  C   UNL     1      -1.012  10.854  22.948  0.00  0.00    +0.000 C 
BRANCH  35  38
ATOM     36  C   UNL     1       1.181   9.493  19.524  0.00  0.00    +0.000 C 
ATOM     37  C   UNL     1       0.434   9.958  20.693  0.00  0.00    +0.000 C 
ATOM     38  C   UNL     1      -0.234  10.371  21.734  0.00  0.00    +0.000 C 
ENDBRANCH  35  38
ENDBRANCH   1  35
TORSDOF 5
ENDMDL
MODEL 7
REMARK VINA RESULT:      -7.5      7.408     12.261
REMARK  Name = 
REMARK  9 active torsions:
REMARK  status: ('A' for Active; 'I' for Inactive)
REMARK    1  A    between atoms: C_1  and  C_2
REMARK    2  A    between atoms: C_3  and  C_4
REMARK    3  A    between atoms: C_4  and  N_5
REMARK    4  A    between atoms: C_11  and  N_12
REMARK    5  A    between atoms: N_19  and  C_20
REMARK    6  A    between atoms: C_20  and  C_21
REMARK    7  A    between atoms: C_20  and  C_22
REMARK    8  A    between atoms: C_24  and  C_25
REMARK    9  A    between atoms: N_35  and  C_36
REMARK                            x       y       z     vdW  Elec       q    Type
REMARK                         _______ _______ _______ _____ _____    ______ ____
ROOT
ATOM      1  N   UNL     1       8.417  14.813  20.472  0.00  0.00    +0.000 N 
ATOM      2  C   UNL     1       8.944  16.042  20.159  0.00  0.00    +0.000 C 
ATOM      3  N   UNL     1       9.866  16.091  19.150  0.00  0.00    +0.000 N 
ATOM      4  C   UNL     1      10.508  17.368  18.807  0.00  0.00    +0.000 C 
ATOM      5  C   UNL     1      11.938  17.063  18.363  0.00  0.00    +0.000 C 
ATOM      6  C   UNL     1      11.959  16.100  17.171  0.00  0.00    +0.000 C 
ATOM      7  C   UNL     1      11.111  14.844  17.436  0.00  0.00    +0.000 C 
ATOM      8  C   UNL     1       9.716  15.229  17.961  0.00  0.00    +0.000 C 
ATOM      9  N   UNL     1       8.452  17.071  20.782  0.00  0.00    +0.000 NA
ATOM     10  C   UNL     1       7.314  16.500  21.551  0.00  0.00    +0.000 C 
ATOM     11  C   UNL     1       7.034  15.065  20.972  0.00  0.00    +0.000 C 
ATOM     12  C   UNL     1       5.624  15.253  20.479  0.00  0.00    +0.000 C 
ATOM     13  O   UNL     1       4.726  14.477  20.824  0.00  0.00    +0.000 OA
ATOM     14  N   UNL     1       5.485  16.328  19.627  0.00  0.00    +0.000 N 
ATOM     15  C   UNL     1       5.507  17.523  20.304  0.00  0.00    +0.000 C 
ATOM     16  O   UNL     1       4.856  18.510  19.993  0.00  0.00    +0.000 OA
ATOM     17  N   UNL     1       6.230  17.445  21.482  0.00  0.00    +0.000 N 
ATOM     18  C   UNL     1       5.663  17.995  22.687  0.00  0.00    +0.000 C 
ENDROOT
BRANCH   7  19
ATOM     19  N   UNL     1      11.060  14.026  16.216  0.00  0.00    +0.000 NA
ATOM     20  H   UNL     1      10.328  13.321  16.295  0.00  0.00    +0.000 HD
ATOM     21  H   UNL     1      11.937  13.516  16.108  0.00  0.00    +0.000 HD
ENDBRANCH   7  19
BRANCH  14  22
ATOM     22  C   UNL     1       4.671  16.210  18.412  0.00  0.00    +0.000 C 
ATOM     23  C   UNL     1       4.837  14.805  17.808  0.00  0.00    +0.000 C 
BRANCH  22  24
ATOM     24  C   UNL     1       3.205  16.562  18.626  0.00  0.00    +0.000 A 
ATOM     25  N   UNL     1       2.591  16.019  19.689  0.00  0.00    +0.000 NA
ATOM     26  C   UNL     1       1.268  16.232  19.816  0.00  0.00    +0.000 A 
ATOM     27  C   UNL     1       0.616  15.525  20.968  0.00  0.00    +0.000 C 
ATOM     28  C   UNL     1       0.546  17.025  18.916  0.00  0.00    +0.000 A 
ATOM     29  C   UNL     1      -0.836  17.314  19.004  0.00  0.00    +0.000 A 
ATOM     30  C   UNL     1      -1.453  18.122  18.051  0.00  0.00    +0.000 A 
ATOM     31  C   UNL     1      -0.703  18.630  16.996  0.00  0.00    +0.000 A 
ATOM     32  C   UNL     1       0.657  18.331  16.906  0.00  0.00    +0.000 A 
ATOM     33  C   UNL     1       1.295  17.554  17.860  0.00  0.00    +0.000 A 
ATOM     34  N   UNL     1       2.603  17.341  17.719  0.00  0.00    +0.000 NA
ENDBRANCH  22  24
ENDBRANCH  14  22
BRANCH   1  35
ATOM     35  C   UNL     1       9.166  13.974  21.401  0.00  0.00    +0.000 C 
BRANCH  35  38
ATOM     36  C   UNL     1      12.209  11.736  19.372  0.00  0.00    +0.000 C 
ATOM     37  C   UNL     1      11.171  12.499  20.066  0.00  0.00    +0.000 C 
ATOM     38  C   UNL     1      10.246  13.180  20.682  0.00  0.00    +0.000 C 
ENDBRANCH  35  38
ENDBRANCH   1  35
TORSDOF 5
ENDMDL
MODEL 8
REMARK VINA RESULT:      -7.5      0.452      1.690
REMARK  Name = 
REMARK  9 active torsions:
REMARK  status: ('A' for Active; 'I' for Inactive)
REMARK    1  A    between atoms: C_1  and  C_2
REMARK    2  A    between atoms: C_3  and  C_4
REMARK    3  A    between atoms: C_4  and  N_5
REMARK    4  A    between atoms: C_11  and  N_12
REMARK    5  A    between atoms: N_19  and  C_20
REMARK    6  A    between atoms: C_20  and  C_21
REMARK    7  A    between atoms: C_20  and  C_22
REMARK    8  A    between atoms: C_24  and  C_25
REMARK    9  A    between atoms: N_35  and  C_36
REMARK                            x       y       z     vdW  Elec       q    Type
REMARK                         _______ _______ _______ _____ _____    ______ ____
ROOT
ATOM      1  N   UNL     1      -2.855  12.277  20.394  0.00  0.00    +0.000 N 
ATOM      2  C   UNL     1      -2.222  13.266  21.106  0.00  0.00    +0.000 C 
ATOM      3  N   UNL     1      -2.714  13.558  22.348  0.00  0.00    +0.000 N 
ATOM      4  C   UNL     1      -2.114  14.645  23.135  0.00  0.00    +0.000 C 
ATOM      5  C   UNL     1      -3.230  15.298  23.950  0.00  0.00    +0.000 C 
ATOM      6  C   UNL     1      -3.926  14.280  24.860  0.00  0.00    +0.000 C 
ATOM      7  C   UNL     1      -4.375  13.031  24.082  0.00  0.00    +0.000 C 
ATOM      8  C   UNL     1      -3.223  12.482  23.220  0.00  0.00    +0.000 C 
ATOM      9  N   UNL     1      -1.148  13.774  20.580  0.00  0.00    +0.000 NA
ATOM     10  C   UNL     1      -0.910  12.926  19.383  0.00  0.00    +0.000 C 
ATOM     11  C   UNL     1      -1.812  11.646  19.533  0.00  0.00    +0.000 C 
ATOM     12  C   UNL     1      -0.751  10.580  19.567  0.00  0.00    +0.000 C 
ATOM     13  O   UNL     1      -0.801   9.615  18.796  0.00  0.00    +0.000 OA
ATOM     14  N   UNL     1       0.213  10.802  20.527  0.00  0.00    +0.000 N 
ATOM     15  C   UNL     1       1.088  11.793  20.153  0.00  0.00    +0.000 C 
ATOM     16  O   UNL     1       2.279  11.810  20.429  0.00  0.00    +0.000 OA
ATOM     17  N   UNL     1       0.509  12.704  19.287  0.00  0.00    +0.000 N 
ATOM     18  C   UNL     1       1.230  13.095  18.101  0.00  0.00    +0.000 C 
ENDROOT
BRANCH   7  19
ATOM     19  N   UNL     1      -4.912  12.039  25.024  0.00  0.00    +0.000 NA
ATOM     20  H   UNL     1      -5.652  12.453  25.588  0.00  0.00    +0.000 HD
ATOM     21  H   UNL     1      -4.180  11.752  25.675  0.00  0.00    +0.000 HD
ENDBRANCH   7  19
BRANCH  14  22
ATOM     22  C   UNL     1       0.700   9.695  21.358  0.00  0.00    +0.000 C 
ATOM     23  C   UNL     1      -0.419   9.222  22.302  0.00  0.00    +0.000 C 
BRANCH  22  24
ATOM     24  C   UNL     1       1.285   8.543  20.554  0.00  0.00    +0.000 A 
ATOM     25  N   UNL     1       1.141   7.306  21.057  0.00  0.00    +0.000 NA
ATOM     26  C   UNL     1       1.759   6.299  20.411  0.00  0.00    +0.000 A 
ATOM     27  C   UNL     1       1.644   4.955  21.068  0.00  0.00    +0.000 C 
ATOM     28  C   UNL     1       2.488   6.499  19.233  0.00  0.00    +0.000 A 
ATOM     29  C   UNL     1       3.137   5.485  18.489  0.00  0.00    +0.000 A 
ATOM     30  C   UNL     1       3.834   5.798  17.323  0.00  0.00    +0.000 A 
ATOM     31  C   UNL     1       3.905   7.122  16.903  0.00  0.00    +0.000 A 
ATOM     32  C   UNL     1       3.275   8.120  17.648  0.00  0.00    +0.000 A 
ATOM     33  C   UNL     1       2.553   7.825  18.794  0.00  0.00    +0.000 A 
ATOM     34  N   UNL     1       1.953   8.831  19.430  0.00  0.00    +0.000 NA
ENDBRANCH  22  24
ENDBRANCH  14  22
BRANCH   1  35
ATOM     35  C   UNL     1      -4.027  12.654  19.610  0.00  0.00    +0.000 C 
BRANCH  35  38
ATOM     36  C   UNL     1      -7.659  11.763  21.706  0.00  0.00    +0.000 C 
ATOM     37  C   UNL     1      -6.420  12.066  20.989  0.00  0.00    +0.000 C 
ATOM     38  C   UNL     1      -5.315  12.338  20.352  0.00  0.00    +0.000 C 
ENDBRANCH  35  38
ENDBRANCH   1  35
TORSDOF 5
ENDMDL
MODEL 9
REMARK VINA RESULT:      -7.4      1.022      2.244
REMARK  Name = 
REMARK  9 active torsions:
REMARK  status: ('A' for Active; 'I' for Inactive)
REMARK    1  A    between atoms: C_1  and  C_2
REMARK    2  A    between atoms: C_3  and  C_4
REMARK    3  A    between atoms: C_4  and  N_5
REMARK    4  A    between atoms: C_11  and  N_12
REMARK    5  A    between atoms: N_19  and  C_20
REMARK    6  A    between atoms: C_20  and  C_21
REMARK    7  A    between atoms: C_20  and  C_22
REMARK    8  A    between atoms: C_24  and  C_25
REMARK    9  A    between atoms: N_35  and  C_36
REMARK                            x       y       z     vdW  Elec       q    Type
REMARK                         _______ _______ _______ _____ _____    ______ ____
ROOT
ATOM      1  N   UNL     1      -2.865  12.224  20.423  0.00  0.00    +0.000 N 
ATOM      2  C   UNL     1      -2.249  13.218  21.143  0.00  0.00    +0.000 C 
ATOM      3  N   UNL     1      -2.752  13.497  22.385  0.00  0.00    +0.000 N 
ATOM      4  C   UNL     1      -2.172  14.589  23.180  0.00  0.00    +0.000 C 
ATOM      5  C   UNL     1      -3.303  15.220  23.992  0.00  0.00    +0.000 C 
ATOM      6  C   UNL     1      -3.988  14.187  24.893  0.00  0.00    +0.000 C 
ATOM      7  C   UNL     1      -4.414  12.936  24.107  0.00  0.00    +0.000 C 
ATOM      8  C   UNL     1      -3.250  12.409  23.248  0.00  0.00    +0.000 C 
ATOM      9  N   UNL     1      -1.180  13.745  20.626  0.00  0.00    +0.000 NA
ATOM     10  C   UNL     1      -0.924  12.906  19.426  0.00  0.00    +0.000 C 
ATOM     11  C   UNL     1      -1.808  11.613  19.564  0.00  0.00    +0.000 C 
ATOM     12  C   UNL     1      -0.731  10.562  19.598  0.00  0.00    +0.000 C 
ATOM     13  O   UNL     1      -0.763   9.601  18.822  0.00  0.00    +0.000 OA
ATOM     14  N   UNL     1       0.224  10.794  20.565  0.00  0.00    +0.000 N 
ATOM     15  C   UNL     1       1.086  11.799  20.200  0.00  0.00    +0.000 C 
ATOM     16  O   UNL     1       2.276  11.832  20.483  0.00  0.00    +0.000 OA
ATOM     17  N   UNL     1       0.499  12.706  19.336  0.00  0.00    +0.000 N 
ATOM     18  C   UNL     1       1.221  13.114  18.156  0.00  0.00    +0.000 C 
ENDROOT
BRANCH   7  19
ATOM     19  N   UNL     1      -4.942  11.931  25.040  0.00  0.00    +0.000 NA
ATOM     20  H   UNL     1      -5.831  11.567  24.701  0.00  0.00    +0.000 HD
ATOM     21  H   UNL     1      -5.136  12.368  25.941  0.00  0.00    +0.000 HD
ENDBRANCH   7  19
BRANCH  14  22
ATOM     22  C   UNL     1       0.723   9.690  21.393  0.00  0.00    +0.000 C 
ATOM     23  C   UNL     1      -0.383   9.218  22.352  0.00  0.00    +0.000 C 
BRANCH  22  24
ATOM     24  C   UNL     1       1.300   8.536  20.584  0.00  0.00    +0.000 A 
ATOM     25  N   UNL     1       1.153   7.299  21.087  0.00  0.00    +0.000 NA
ATOM     26  C   UNL     1       1.763   6.290  20.437  0.00  0.00    +0.000 A 
ATOM     27  C   UNL     1       1.644   4.946  21.093  0.00  0.00    +0.000 C 
ATOM     28  C   UNL     1       2.487   6.488  19.256  0.00  0.00    +0.000 A 
ATOM     29  C   UNL     1       3.127   5.472  18.507  0.00  0.00    +0.000 A 
ATOM     30  C   UNL     1       3.820   5.783  17.339  0.00  0.00    +0.000 A 
ATOM     31  C   UNL     1       3.896   7.107  16.920  0.00  0.00    +0.000 A 
ATOM     32  C   UNL     1       3.273   8.107  17.669  0.00  0.00    +0.000 A 
ATOM     33  C   UNL     1       2.555   7.814  18.817  0.00  0.00    +0.000 A 
ATOM     34  N   UNL     1       1.963   8.822  19.458  0.00  0.00    +0.000 NA
ENDBRANCH  22  24
ENDBRANCH  14  22
BRANCH   1  35
ATOM     35  C   UNL     1      -4.037  12.588  19.634  0.00  0.00    +0.000 C 
BRANCH  35  38
ATOM     36  C   UNL     1      -3.981  10.686  15.792  0.00  0.00    +0.000 C 
ATOM     37  C   UNL     1      -4.002  11.336  17.103  0.00  0.00    +0.000 C 
ATOM     38  C   UNL     1      -4.018  11.913  18.272  0.00  0.00    +0.000 C 
ENDBRANCH  35  38
ENDBRANCH   1  35
TORSDOF 5
ENDMDL
