MODEL 1
REMARK VINA RESULT:      -6.8      0.000      0.000
REMARK  Name = 
REMARK  8 active torsions:
REMARK  status: ('A' for Active; 'I' for Inactive)
REMARK    1  A    between atoms: C_1  and  C_2
REMARK    2  A    between atoms: C_6  and  C_7
REMARK    3  A    between atoms: N_11  and  C_12
REMARK    4  A    between atoms: C_12  and  C_13
REMARK    5  A    between atoms: C_13  and  N_14
REMARK    6  A    between atoms: N_14  and  C_15
REMARK    7  A    between atoms: N_14  and  S_16
REMARK    8  A    between atoms: S_16  and  C_17
REMARK                            x       y       z     vdW  Elec       q    Type
REMARK                         _______ _______ _______ _____ _____    ______ ____
ROOT
ATOM      1  C   UNL     1       2.705   5.452  18.953  0.00  0.00    +0.000 A 
ATOM      2  N   UNL     1       1.985   6.063  19.946  0.00  0.00    +0.000 NA
ATOM      3  C   UNL     1       1.972   7.551  20.154  0.00  0.00    +0.000 A 
ATOM      4  C   UNL     1       1.207   8.208  21.182  0.00  0.00    +0.000 A 
ATOM      5  N   UNL     1       3.456   6.282  18.167  0.00  0.00    +0.000 N 
ENDROOT
BRANCH   1  11
ATOM      6  C   UNL     1       1.187   2.918  20.668  0.00  0.00    +0.000 C 
ATOM      7  C   UNL     1       2.233   2.955  19.626  0.00  0.00    +0.000 A 
ATOM      8  N   UNL     1       2.680   1.741  19.141  0.00  0.00    +0.000 NA
ATOM      9  C   UNL     1       3.519   2.032  18.184  0.00  0.00    +0.000 A 
ATOM     10  N   UNL     1       3.646   3.384  18.029  0.00  0.00    +0.000 N 
ATOM     11  C   UNL     1       2.826   4.008  18.943  0.00  0.00    +0.000 A 
ATOM     12  H   UNL     1       4.206   3.864  17.340  0.00  0.00    +0.000 HD
ENDBRANCH   1  11
BRANCH   5  13
ATOM     13  C   UNL     1       4.230   7.106  17.349  0.00  0.00    +0.000 C 
BRANCH  13  14
ATOM     14  C   UNL     1       5.140   6.314  16.281  0.00  0.00    +0.000 C 
BRANCH  14  15
ATOM     15  N   UNL     1       5.678   4.879  16.556  0.00  0.00    +0.000 NA
ATOM     16  C   UNL     1       6.192   4.107  15.365  0.00  0.00    +0.000 C 
BRANCH  15  17
ATOM     17  S   UNL     1       6.981   4.962  17.727  0.00  0.00    +0.000 S 
ATOM     18  C   UNL     1       7.422   6.697  17.724  0.00  0.00    +0.000 C 
ATOM     19  O   UNL     1       6.417   4.624  19.017  0.00  0.00    +0.000 OA
ATOM     20  O   UNL     1       8.083   4.204  17.169  0.00  0.00    +0.000 OA
ENDBRANCH  15  17
ENDBRANCH  14  15
ENDBRANCH  13  14
ENDBRANCH   5  13
TORSDOF 5
ENDMDL
MODEL 2
REMARK VINA RESULT:      -6.7      1.141      1.287
REMARK  Name = 
REMARK  8 active torsions:
REMARK  status: ('A' for Active; 'I' for Inactive)
REMARK    1  A    between atoms: C_1  and  C_2
REMARK    2  A    between atoms: C_6  and  C_7
REMARK    3  A    between atoms: N_11  and  C_12
REMARK    4  A    between atoms: C_12  and  C_13
REMARK    5  A    between atoms: C_13  and  N_14
REMARK    6  A    between atoms: N_14  and  C_15
REMARK    7  A    between atoms: N_14  and  S_16
REMARK    8  A    between atoms: S_16  and  C_17
REMARK                            x       y       z     vdW  Elec       q    Type
REMARK                         _______ _______ _______ _____ _____    ______ ____
ROOT
ATOM      1  C   UNL     1       2.604   5.761  19.435  0.00  0.00    +0.000 A 
ATOM      2  N   UNL     1       1.920   6.382  20.447  0.00  0.00    +0.000 NA
ATOM      3  C   UNL     1       1.688   7.866  20.491  0.00  0.00    +0.000 A 
ATOM      4  C   UNL     1       0.955   8.529  21.538  0.00  0.00    +0.000 A 
ATOM      5  N   UNL     1       3.108   6.584  18.465  0.00  0.00    +0.000 N 
ENDROOT
BRANCH   1  11
ATOM      6  C   UNL     1       0.831   2.842  19.479  0.00  0.00    +0.000 C 
ATOM      7  C   UNL     1       2.270   3.158  19.594  0.00  0.00    +0.000 A 
ATOM      8  N   UNL     1       3.145   2.091  19.655  0.00  0.00    +0.000 NA
ATOM      9  C   UNL     1       4.340   2.617  19.660  0.00  0.00    +0.000 A 
ATOM     10  N   UNL     1       4.283   3.981  19.612  0.00  0.00    +0.000 N 
ATOM     11  C   UNL     1       2.960   4.362  19.566  0.00  0.00    +0.000 A 
ATOM     12  H   UNL     1       5.065   4.618  19.574  0.00  0.00    +0.000 HD
ENDBRANCH   1  11
BRANCH   5  13
ATOM     13  C   UNL     1       3.630   7.401  17.462  0.00  0.00    +0.000 C 
BRANCH  13  14
ATOM     14  C   UNL     1       4.918   6.789  16.713  0.00  0.00    +0.000 C 
BRANCH  14  15
ATOM     15  N   UNL     1       5.538   5.419  17.118  0.00  0.00    +0.000 NA
ATOM     16  C   UNL     1       5.283   4.258  16.189  0.00  0.00    +0.000 C 
BRANCH  15  17
ATOM     17  S   UNL     1       7.276   5.591  17.275  0.00  0.00    +0.000 S 
ATOM     18  C   UNL     1       7.511   5.776  19.039  0.00  0.00    +0.000 C 
ATOM     19  O   UNL     1       7.868   4.340  16.851  0.00  0.00    +0.000 OA
ATOM     20  O   UNL     1       7.624   6.842  16.629  0.00  0.00    +0.000 OA
ENDBRANCH  15  17
ENDBRANCH  14  15
ENDBRANCH  13  14
ENDBRANCH   5  13
TORSDOF 5
ENDMDL
MODEL 3
REMARK VINA RESULT:      -6.5      3.181      6.501
REMARK  Name = 
REMARK  8 active torsions:
REMARK  status: ('A' for Active; 'I' for Inactive)
REMARK    1  A    between atoms: C_1  and  C_2
REMARK    2  A    between atoms: C_6  and  C_7
REMARK    3  A    between atoms: N_11  and  C_12
REMARK    4  A    between atoms: C_12  and  C_13
REMARK    5  A    between atoms: C_13  and  N_14
REMARK    6  A    between atoms: N_14  and  C_15
REMARK    7  A    between atoms: N_14  and  S_16
REMARK    8  A    between atoms: S_16  and  C_17
REMARK                            x       y       z     vdW  Elec       q    Type
REMARK                         _______ _______ _______ _____ _____    ______ ____
ROOT
ATOM      1  C   UNL     1       6.589   4.875  15.383  0.00  0.00    +0.000 A 
ATOM      2  N   UNL     1       7.270   5.975  15.834  0.00  0.00    +0.000 NA
ATOM      3  C   UNL     1       7.058   6.569  17.198  0.00  0.00    +0.000 A 
ATOM      4  C   UNL     1       7.780   7.713  17.691  0.00  0.00    +0.000 A 
ATOM      5  N   UNL     1       5.660   4.356  16.243  0.00  0.00    +0.000 N 
ENDROOT
BRANCH   1  11
ATOM      6  C   UNL     1       8.532   5.899  12.766  0.00  0.00    +0.000 C 
ATOM      7  C   UNL     1       7.469   4.882  12.905  0.00  0.00    +0.000 A 
ATOM      8  N   UNL     1       7.211   4.089  11.804  0.00  0.00    +0.000 NA
ATOM      9  C   UNL     1       6.314   3.225  12.196  0.00  0.00    +0.000 A 
ATOM     10  N   UNL     1       5.969   3.425  13.503  0.00  0.00    +0.000 N 
ATOM     11  C   UNL     1       6.700   4.487  13.991  0.00  0.00    +0.000 A 
ATOM     12  H   UNL     1       5.324   2.874  14.050  0.00  0.00    +0.000 HD
ENDBRANCH   1  11
BRANCH   5  13
ATOM     13  C   UNL     1       4.709   3.806  17.103  0.00  0.00    +0.000 C 
BRANCH  13  14
ATOM     14  C   UNL     1       3.649   4.870  17.686  0.00  0.00    +0.000 C 
BRANCH  14  15
ATOM     15  N   UNL     1       2.985   4.695  19.084  0.00  0.00    +0.000 NA
ATOM     16  C   UNL     1       2.573   5.957  19.802  0.00  0.00    +0.000 C 
BRANCH  15  17
ATOM     17  S   UNL     1       1.554   3.694  18.925  0.00  0.00    +0.000 S 
ATOM     18  C   UNL     1       2.196   2.033  19.093  0.00  0.00    +0.000 C 
ATOM     19  O   UNL     1       0.702   3.985  20.059  0.00  0.00    +0.000 OA
ATOM     20  O   UNL     1       1.079   3.870  17.566  0.00  0.00    +0.000 OA
ENDBRANCH  15  17
ENDBRANCH  14  15
ENDBRANCH  13  14
ENDBRANCH   5  13
TORSDOF 5
ENDMDL
MODEL 4
REMARK VINA RESULT:      -6.5      3.203      6.239
REMARK  Name = 
REMARK  8 active torsions:
REMARK  status: ('A' for Active; 'I' for Inactive)
REMARK    1  A    between atoms: C_1  and  C_2
REMARK    2  A    between atoms: C_6  and  C_7
REMARK    3  A    between atoms: N_11  and  C_12
REMARK    4  A    between atoms: C_12  and  C_13
REMARK    5  A    between atoms: C_13  and  N_14
REMARK    6  A    between atoms: N_14  and  C_15
REMARK    7  A    between atoms: N_14  and  S_16
REMARK    8  A    between atoms: S_16  and  C_17
REMARK                            x       y       z     vdW  Elec       q    Type
REMARK                         _______ _______ _______ _____ _____    ______ ____
ROOT
ATOM      1  C   UNL     1       6.103   4.746  16.461  0.00  0.00    +0.000 A 
ATOM      2  N   UNL     1       6.627   4.615  15.202  0.00  0.00    +0.000 NA
ATOM      3  C   UNL     1       5.922   3.890  14.091  0.00  0.00    +0.000 A 
ATOM      4  C   UNL     1       6.453   3.760  12.759  0.00  0.00    +0.000 A 
ATOM      5  N   UNL     1       4.894   4.141  16.668  0.00  0.00    +0.000 N 
ENDROOT
BRANCH   1  11
ATOM      6  C   UNL     1       7.321   7.847  17.216  0.00  0.00    +0.000 C 
ATOM      7  C   UNL     1       7.443   6.523  17.860  0.00  0.00    +0.000 A 
ATOM      8  N   UNL     1       8.113   6.472  19.067  0.00  0.00    +0.000 NA
ATOM      9  C   UNL     1       8.011   5.235  19.473  0.00  0.00    +0.000 A 
ATOM     10  N   UNL     1       7.312   4.475  18.579  0.00  0.00    +0.000 N 
ATOM     11  C   UNL     1       6.928   5.278  17.527  0.00  0.00    +0.000 A 
ATOM     12  H   UNL     1       7.069   3.500  18.673  0.00  0.00    +0.000 HD
ENDBRANCH   1  11
BRANCH   5  13
ATOM     13  C   UNL     1       3.660   3.534  16.905  0.00  0.00    +0.000 C 
BRANCH  13  14
ATOM     14  C   UNL     1       3.078   3.773  18.388  0.00  0.00    +0.000 C 
BRANCH  14  15
ATOM     15  N   UNL     1       3.075   2.650  19.467  0.00  0.00    +0.000 NA
ATOM     16  C   UNL     1       4.417   2.236  20.020  0.00  0.00    +0.000 C 
BRANCH  15  17
ATOM     17  S   UNL     1       2.083   3.152  20.824  0.00  0.00    +0.000 S 
ATOM     18  C   UNL     1       2.265   4.932  20.826  0.00  0.00    +0.000 C 
ATOM     19  O   UNL     1       0.712   2.821  20.495  0.00  0.00    +0.000 OA
ATOM     20  O   UNL     1       2.717   2.621  22.015  0.00  0.00    +0.000 OA
ENDBRANCH  15  17
ENDBRANCH  14  15
ENDBRANCH  13  14
ENDBRANCH   5  13
TORSDOF 5
ENDMDL
MODEL 5
REMARK VINA RESULT:      -6.5      2.795      5.749
REMARK  Name = 
REMARK  8 active torsions:
REMARK  status: ('A' for Active; 'I' for Inactive)
REMARK    1  A    between atoms: C_1  and  C_2
REMARK    2  A    between atoms: C_6  and  C_7
REMARK    3  A    between atoms: N_11  and  C_12
REMARK    4  A    between atoms: C_12  and  C_13
REMARK    5  A    between atoms: C_13  and  N_14
REMARK    6  A    between atoms: N_14  and  C_15
REMARK    7  A    between atoms: N_14  and  S_16
REMARK    8  A    between atoms: S_16  and  C_17
REMARK                            x       y       z     vdW  Elec       q    Type
REMARK                         _______ _______ _______ _____ _____    ______ ____
ROOT
ATOM      1  C   UNL     1       6.995   5.895  16.930  0.00  0.00    +0.000 A 
ATOM      2  N   UNL     1       7.650   7.097  16.872  0.00  0.00    +0.000 NA
ATOM      3  C   UNL     1       7.734   8.043  18.037  0.00  0.00    +0.000 A 
ATOM      4  C   UNL     1       8.433   9.300  17.996  0.00  0.00    +0.000 A 
ATOM      5  N   UNL     1       6.377   5.610  18.117  0.00  0.00    +0.000 N 
ENDROOT
BRANCH   1  11
ATOM      6  C   UNL     1       4.743   3.517  15.956  0.00  0.00    +0.000 C 
ATOM      7  C   UNL     1       5.891   4.165  15.287  0.00  0.00    +0.000 A 
ATOM      8  N   UNL     1       6.107   3.845  13.960  0.00  0.00    +0.000 NA
ATOM      9  C   UNL     1       7.101   4.598  13.574  0.00  0.00    +0.000 A 
ATOM     10  N   UNL     1       7.548   5.390  14.594  0.00  0.00    +0.000 N 
ATOM     11  C   UNL     1       6.786   5.136  15.713  0.00  0.00    +0.000 A 
ATOM     12  H   UNL     1       8.283   6.081  14.545  0.00  0.00    +0.000 HD
ENDBRANCH   1  11
BRANCH   5  13
ATOM     13  C   UNL     1       5.741   5.294  19.318  0.00  0.00    +0.000 C 
BRANCH  13  14
ATOM     14  C   UNL     1       4.208   4.825  19.152  0.00  0.00    +0.000 C 
BRANCH  14  15
ATOM     15  N   UNL     1       3.254   4.669  20.372  0.00  0.00    +0.000 NA
ATOM     16  C   UNL     1       1.994   5.500  20.359  0.00  0.00    +0.000 C 
BRANCH  15  17
ATOM     17  S   UNL     1       2.770   2.990  20.520  0.00  0.00    +0.000 S 
ATOM     18  C   UNL     1       1.096   2.990  19.888  0.00  0.00    +0.000 C 
ATOM     19  O   UNL     1       3.611   2.225  19.623  0.00  0.00    +0.000 OA
ATOM     20  O   UNL     1       2.729   2.698  21.939  0.00  0.00    +0.000 OA
ENDBRANCH  15  17
ENDBRANCH  14  15
ENDBRANCH  13  14
ENDBRANCH   5  13
TORSDOF 5
ENDMDL
MODEL 6
REMARK VINA RESULT:      -6.5      1.254      1.495
REMARK  Name = 
REMARK  8 active torsions:
REMARK  status: ('A' for Active; 'I' for Inactive)
REMARK    1  A    between atoms: C_1  and  C_2
REMARK    2  A    between atoms: C_6  and  C_7
REMARK    3  A    between atoms: N_11  and  C_12
REMARK    4  A    between atoms: C_12  and  C_13
REMARK    5  A    between atoms: C_13  and  N_14
REMARK    6  A    between atoms: N_14  and  C_15
REMARK    7  A    between atoms: N_14  and  S_16
REMARK    8  A    between atoms: S_16  and  C_17
REMARK                            x       y       z     vdW  Elec       q    Type
REMARK                         _______ _______ _______ _____ _____    ______ ____
ROOT
ATOM      1  C   UNL     1       2.614   5.713  19.411  0.00  0.00    +0.000 A 
ATOM      2  N   UNL     1       1.886   6.311  20.406  0.00  0.00    +0.000 NA
ATOM      3  C   UNL     1       1.672   7.796  20.489  0.00  0.00    +0.000 A 
ATOM      4  C   UNL     1       0.894   8.435  21.518  0.00  0.00    +0.000 A 
ATOM      5  N   UNL     1       3.180   6.560  18.498  0.00  0.00    +0.000 N 
ENDROOT
BRANCH   1  11
ATOM      6  C   UNL     1       0.828   2.817  19.109  0.00  0.00    +0.000 C 
ATOM      7  C   UNL     1       2.246   3.110  19.402  0.00  0.00    +0.000 A 
ATOM      8  N   UNL     1       3.101   2.031  19.511  0.00  0.00    +0.000 NA
ATOM      9  C   UNL     1       4.292   2.540  19.678  0.00  0.00    +0.000 A 
ATOM     10  N   UNL     1       4.249   3.906  19.691  0.00  0.00    +0.000 N 
ATOM     11  C   UNL     1       2.943   4.306  19.513  0.00  0.00    +0.000 A 
ATOM     12  H   UNL     1       5.035   4.535  19.773  0.00  0.00    +0.000 HD
ENDBRANCH   1  11
BRANCH   5  13
ATOM     13  C   UNL     1       3.766   7.402  17.551  0.00  0.00    +0.000 C 
BRANCH  13  14
ATOM     14  C   UNL     1       4.766   6.657  16.531  0.00  0.00    +0.000 C 
BRANCH  14  15
ATOM     15  N   UNL     1       5.448   5.301  16.883  0.00  0.00    +0.000 NA
ATOM     16  C   UNL     1       4.844   4.060  16.274  0.00  0.00    +0.000 C 
BRANCH  15  17
ATOM     17  S   UNL     1       7.132   5.356  16.396  0.00  0.00    +0.000 S 
ATOM     18  C   UNL     1       7.086   4.778  14.703  0.00  0.00    +0.000 C 
ATOM     19  O   UNL     1       7.533   6.747  16.406  0.00  0.00    +0.000 OA
ATOM     20  O   UNL     1       7.825   4.371  17.202  0.00  0.00    +0.000 OA
ENDBRANCH  15  17
ENDBRANCH  14  15
ENDBRANCH  13  14
ENDBRANCH   5  13
TORSDOF 5
ENDMDL
MODEL 7
REMARK VINA RESULT:      -6.4      1.248      2.161
REMARK  Name = 
REMARK  8 active torsions:
REMARK  status: ('A' for Active; 'I' for Inactive)
REMARK    1  A    between atoms: C_1  and  C_2
REMARK    2  A    between atoms: C_6  and  C_7
REMARK    3  A    between atoms: N_11  and  C_12
REMARK    4  A    between atoms: C_12  and  C_13
REMARK    5  A    between atoms: C_13  and  N_14
REMARK    6  A    between atoms: N_14  and  C_15
REMARK    7  A    between atoms: N_14  and  S_16
REMARK    8  A    between atoms: S_16  and  C_17
REMARK                            x       y       z     vdW  Elec       q    Type
REMARK                         _______ _______ _______ _____ _____    ______ ____
ROOT
ATOM      1  C   UNL     1       2.390   5.699  19.107  0.00  0.00    +0.000 A 
ATOM      2  N   UNL     1       1.744   6.344  20.129  0.00  0.00    +0.000 NA
ATOM      3  C   UNL     1       1.853   7.825  20.363  0.00  0.00    +0.000 A 
ATOM      4  C   UNL     1       1.166   8.518  21.421  0.00  0.00    +0.000 A 
ATOM      5  N   UNL     1       3.185   6.483  18.316  0.00  0.00    +0.000 N 
ENDROOT
BRANCH   1  11
ATOM      6  C   UNL     1       4.842   3.322  19.207  0.00  0.00    +0.000 C 
ATOM      7  C   UNL     1       3.369   3.259  19.102  0.00  0.00    +0.000 A 
ATOM      8  N   UNL     1       2.791   2.004  19.124  0.00  0.00    +0.000 NA
ATOM      9  C   UNL     1       1.502   2.211  19.111  0.00  0.00    +0.000 A 
ATOM     10  N   UNL     1       1.214   3.546  19.074  0.00  0.00    +0.000 N 
ATOM     11  C   UNL     1       2.399   4.250  19.070  0.00  0.00    +0.000 A 
ATOM     12  H   UNL     1       0.297   3.968  19.089  0.00  0.00    +0.000 HD
ENDBRANCH   1  11
BRANCH   5  13
ATOM     13  C   UNL     1       4.000   7.260  17.493  0.00  0.00    +0.000 C 
BRANCH  13  14
ATOM     14  C   UNL     1       4.902   6.412  16.462  0.00  0.00    +0.000 C 
BRANCH  14  15
ATOM     15  N   UNL     1       6.458   6.468  16.485  0.00  0.00    +0.000 NA
ATOM     16  C   UNL     1       7.111   6.658  17.832  0.00  0.00    +0.000 C 
BRANCH  15  17
ATOM     17  S   UNL     1       7.101   4.988  15.797  0.00  0.00    +0.000 S 
ATOM     18  C   UNL     1       5.647   3.967  15.592  0.00  0.00    +0.000 C 
ATOM     19  O   UNL     1       7.629   5.321  14.490  0.00  0.00    +0.000 OA
ATOM     20  O   UNL     1       7.944   4.394  16.815  0.00  0.00    +0.000 OA
ENDBRANCH  15  17
ENDBRANCH  14  15
ENDBRANCH  13  14
ENDBRANCH   5  13
TORSDOF 5
ENDMDL
MODEL 8
REMARK VINA RESULT:      -6.4      2.061      4.780
REMARK  Name = 
REMARK  8 active torsions:
REMARK  status: ('A' for Active; 'I' for Inactive)
REMARK    1  A    between atoms: C_1  and  C_2
REMARK    2  A    between atoms: C_6  and  C_7
REMARK    3  A    between atoms: N_11  and  C_12
REMARK    4  A    between atoms: C_12  and  C_13
REMARK    5  A    between atoms: C_13  and  N_14
REMARK    6  A    between atoms: N_14  and  C_15
REMARK    7  A    between atoms: N_14  and  S_16
REMARK    8  A    between atoms: S_16  and  C_17
REMARK                            x       y       z     vdW  Elec       q    Type
REMARK                         _______ _______ _______ _____ _____    ______ ____
ROOT
ATOM      1  C   UNL     1       4.032   5.792  17.297  0.00  0.00    +0.000 A 
ATOM      2  N   UNL     1       3.772   7.119  17.519  0.00  0.00    +0.000 NA
ATOM      3  C   UNL     1       2.423   7.633  17.936  0.00  0.00    +0.000 A 
ATOM      4  C   UNL     1       2.141   9.021  18.190  0.00  0.00    +0.000 A 
ATOM      5  N   UNL     1       2.967   4.945  17.443  0.00  0.00    +0.000 N 
ENDROOT
BRANCH   1  11
ATOM      6  C   UNL     1       7.284   6.718  17.778  0.00  0.00    +0.000 C 
ATOM      7  C   UNL     1       6.626   5.757  16.870  0.00  0.00    +0.000 A 
ATOM      8  N   UNL     1       7.446   4.980  16.076  0.00  0.00    +0.000 NA
ATOM      9  C   UNL     1       6.650   4.163  15.441  0.00  0.00    +0.000 A 
ATOM     10  N   UNL     1       5.344   4.379  15.780  0.00  0.00    +0.000 N 
ATOM     11  C   UNL     1       5.295   5.400  16.704  0.00  0.00    +0.000 A 
ATOM     12  H   UNL     1       4.541   3.861  15.455  0.00  0.00    +0.000 HD
ENDBRANCH   1  11
BRANCH   5  13
ATOM     13  C   UNL     1       1.899   4.059  17.587  0.00  0.00    +0.000 C 
BRANCH  13  14
ATOM     14  C   UNL     1       1.776   3.402  19.053  0.00  0.00    +0.000 C 
BRANCH  14  15
ATOM     15  N   UNL     1       2.816   3.687  20.177  0.00  0.00    +0.000 NA
ATOM     16  C   UNL     1       2.329   3.562  21.599  0.00  0.00    +0.000 C 
BRANCH  15  17
ATOM     17  S   UNL     1       4.180   2.600  19.994  0.00  0.00    +0.000 S 
ATOM     18  C   UNL     1       3.616   1.442  18.752  0.00  0.00    +0.000 C 
ATOM     19  O   UNL     1       5.274   3.377  19.449  0.00  0.00    +0.000 OA
ATOM     20  O   UNL     1       4.316   1.896  21.254  0.00  0.00    +0.000 OA
ENDBRANCH  15  17
ENDBRANCH  14  15
ENDBRANCH  13  14
ENDBRANCH   5  13
TORSDOF 5
ENDMDL
MODEL 9
REMARK VINA RESULT:      -6.4      2.950      5.631
REMARK  Name = 
REMARK  8 active torsions:
REMARK  status: ('A' for Active; 'I' for Inactive)
REMARK    1  A    between atoms: C_1  and  C_2
REMARK    2  A    between atoms: C_6  and  C_7
REMARK    3  A    between atoms: N_11  and  C_12
REMARK    4  A    between atoms: C_12  and  C_13
REMARK    5  A    between atoms: C_13  and  N_14
REMARK    6  A    between atoms: N_14  and  C_15
REMARK    7  A    between atoms: N_14  and  S_16
REMARK    8  A    between atoms: S_16  and  C_17
REMARK                            x       y       z     vdW  Elec       q    Type
REMARK                         _______ _______ _______ _____ _____    ______ ____
ROOT
ATOM      1  C   UNL     1       7.141   5.886  16.852  0.00  0.00    +0.000 A 
ATOM      2  N   UNL     1       7.691   7.140  16.801  0.00  0.00    +0.000 NA
ATOM      3  C   UNL     1       7.781   8.046  17.996  0.00  0.00    +0.000 A 
ATOM      4  C   UNL     1       8.372   9.358  17.961  0.00  0.00    +0.000 A 
ATOM      5  N   UNL     1       6.636   5.507  18.065  0.00  0.00    +0.000 N 
ENDROOT
BRANCH   1  11
ATOM      6  C   UNL     1       4.842   3.567  15.850  0.00  0.00    +0.000 C 
ATOM      7  C   UNL     1       5.993   4.210  15.183  0.00  0.00    +0.000 A 
ATOM      8  N   UNL     1       6.190   3.916  13.848  0.00  0.00    +0.000 NA
ATOM      9  C   UNL     1       7.192   4.662  13.468  0.00  0.00    +0.000 A 
ATOM     10  N   UNL     1       7.663   5.424  14.500  0.00  0.00    +0.000 N 
ATOM     11  C   UNL     1       6.908   5.158  15.621  0.00  0.00    +0.000 A 
ATOM     12  H   UNL     1       8.408   6.104  14.459  0.00  0.00    +0.000 HD
ENDBRANCH   1  11
BRANCH   5  13
ATOM     13  C   UNL     1       6.115   5.095  19.292  0.00  0.00    +0.000 C 
BRANCH  13  14
ATOM     14  C   UNL     1       4.507   5.146  19.380  0.00  0.00    +0.000 C 
BRANCH  14  15
ATOM     15  N   UNL     1       3.623   3.894  19.101  0.00  0.00    +0.000 NA
ATOM     16  C   UNL     1       3.442   2.924  20.242  0.00  0.00    +0.000 C 
BRANCH  15  17
ATOM     17  S   UNL     1       2.025   4.413  18.598  0.00  0.00    +0.000 S 
ATOM     18  C   UNL     1       2.256   6.150  18.233  0.00  0.00    +0.000 C 
ATOM     19  O   UNL     1       1.717   3.712  17.369  0.00  0.00    +0.000 OA
ATOM     20  O   UNL     1       1.169   4.295  19.762  0.00  0.00    +0.000 OA
ENDBRANCH  15  17
ENDBRANCH  14  15
ENDBRANCH  13  14
ENDBRANCH   5  13
TORSDOF 5
ENDMDL
