MODEL 1
REMARK VINA RESULT:      -6.5      0.000      0.000
REMARK  Name = 
REMARK  11 active torsions:
REMARK  status: ('A' for Active; 'I' for Inactive)
REMARK    1  A    between atoms: C_1  and  C_2
REMARK    2  A    between atoms: C_2  and  C_3
REMARK    3  A    between atoms: C_3  and  N_4
REMARK    4  A    between atoms: C_3  and  C_15
REMARK    5  A    between atoms: N_4  and  C_5
REMARK    6  A    between atoms: C_5  and  C_6
REMARK    7  A    between atoms: C_8  and  C_9
REMARK    8  A    between atoms: C_10  and  C_11
REMARK    9  A    between atoms: C_11  and  O_12
REMARK   10  A    between atoms: C_17  and  C_18
REMARK   11  A    between atoms: C_19  and  C_20
REMARK                            x       y       z     vdW  Elec       q    Type
REMARK                         _______ _______ _______ _____ _____    ______ ____
ROOT
ATOM      1  N   UNL     1       4.162   5.669  19.768  0.00  0.00    +0.000 NA
ATOM      2  H   UNL     1       4.529   6.389  19.142  0.00  0.00    +0.000 HD
ENDROOT
BRANCH   1   3
ATOM      3  C   UNL     1       2.694   5.623  19.601  0.00  0.00    +0.000 C 
BRANCH   3   4
ATOM      4  C   UNL     1       2.070   7.007  19.687  0.00  0.00    +0.000 A 
ATOM      5  N   UNL     1       1.515   7.523  20.768  0.00  0.00    +0.000 NA
ATOM      6  C   UNL     1       1.143   8.839  20.531  0.00  0.00    +0.000 A 
ATOM      7  C   UNL     1       0.487   9.606  21.624  0.00  0.00    +0.000 C 
ATOM      8  C   UNL     1       1.460   9.314  19.272  0.00  0.00    +0.000 A 
ATOM      9  C   UNL     1       1.301  10.676  18.691  0.00  0.00    +0.000 C 
ATOM     10  S   UNL     1       2.145   8.061  18.328  0.00  0.00    +0.000 S 
ENDBRANCH   3   4
BRANCH   3  12
ATOM     11  C   UNL     1       0.926   3.881  20.266  0.00  0.00    +0.000 C 
ATOM     12  C   UNL     1       2.149   4.682  20.694  0.00  0.00    +0.000 C 
ENDBRANCH   3  12
ENDBRANCH   1   3
BRANCH   1  13
ATOM     13  C   UNL     1       4.815   4.400  19.454  0.00  0.00    +0.000 C 
BRANCH  13  14
ATOM     14  C   UNL     1       5.506   4.477  18.121  0.00  0.00    +0.000 A 
ATOM     15  C   UNL     1       5.059   4.001  16.899  0.00  0.00    +0.000 A 
ATOM     16  C   UNL     1       5.989   4.257  15.850  0.00  0.00    +0.000 A 
ATOM     17  C   UNL     1       7.111   4.914  16.301  0.00  0.00    +0.000 A 
ATOM     18  S   UNL     1       7.057   5.200  17.985  0.00  0.00    +0.000 S 
BRANCH  16  19
ATOM     19  C   UNL     1       5.814   3.888  14.482  0.00  0.00    +0.000 C 
ATOM     20  C   UNL     1       5.715   3.580  13.219  0.00  0.00    +0.000 C 
BRANCH  20  21
ATOM     21  C   UNL     1       5.599   3.222  11.747  0.00  0.00    +0.000 C 
BRANCH  21  22
ATOM     22  O   UNL     1       4.245   3.324  11.337  0.00  0.00    +0.000 OA
ATOM     23  H   UNL     1       4.217   3.995  10.634  0.00  0.00    +0.000 HD
ENDBRANCH  21  22
ENDBRANCH  20  21
ENDBRANCH  16  19
ENDBRANCH  13  14
ENDBRANCH   1  13
TORSDOF 8
ENDMDL
MODEL 2
REMARK VINA RESULT:      -6.5      1.933      3.814
REMARK  Name = 
REMARK  11 active torsions:
REMARK  status: ('A' for Active; 'I' for Inactive)
REMARK    1  A    between atoms: C_1  and  C_2
REMARK    2  A    between atoms: C_2  and  C_3
REMARK    3  A    between atoms: C_3  and  N_4
REMARK    4  A    between atoms: C_3  and  C_15
REMARK    5  A    between atoms: N_4  and  C_5
REMARK    6  A    between atoms: C_5  and  C_6
REMARK    7  A    between atoms: C_8  and  C_9
REMARK    8  A    between atoms: C_10  and  C_11
REMARK    9  A    between atoms: C_11  and  O_12
REMARK   10  A    between atoms: C_17  and  C_18
REMARK   11  A    between atoms: C_19  and  C_20
REMARK                            x       y       z     vdW  Elec       q    Type
REMARK                         _______ _______ _______ _____ _____    ______ ____
ROOT
ATOM      1  N   UNL     1       3.885   7.386  17.434  0.00  0.00    +0.000 NA
ATOM      2  H   UNL     1       3.587   6.756  16.687  0.00  0.00    +0.000 HD
ENDROOT
BRANCH   1   3
ATOM      3  C   UNL     1       2.804   7.446  18.441  0.00  0.00    +0.000 C 
BRANCH   3   4
ATOM      4  C   UNL     1       2.339   6.058  18.856  0.00  0.00    +0.000 A 
ATOM      5  N   UNL     1       2.272   5.010  18.057  0.00  0.00    +0.000 NA
ATOM      6  C   UNL     1       1.911   3.882  18.780  0.00  0.00    +0.000 A 
ATOM      7  C   UNL     1       1.769   2.585  18.063  0.00  0.00    +0.000 C 
ATOM      8  C   UNL     1       1.746   4.091  20.137  0.00  0.00    +0.000 A 
ATOM      9  C   UNL     1       1.451   3.121  21.229  0.00  0.00    +0.000 C 
ATOM     10  S   UNL     1       1.944   5.750  20.503  0.00  0.00    +0.000 S 
ENDBRANCH   3   4
BRANCH   3  12
ATOM     11  C   UNL     1       1.529   9.676  18.388  0.00  0.00    +0.000 C 
ATOM     12  C   UNL     1       1.659   8.269  17.819  0.00  0.00    +0.000 C 
ENDBRANCH   3  12
ENDBRANCH   1   3
BRANCH   1  13
ATOM     13  C   UNL     1       5.150   6.898  17.980  0.00  0.00    +0.000 C 
BRANCH  13  14
ATOM     14  C   UNL     1       5.779   5.903  17.045  0.00  0.00    +0.000 A 
ATOM     15  C   UNL     1       5.305   5.467  15.818  0.00  0.00    +0.000 A 
ATOM     16  C   UNL     1       6.174   4.513  15.214  0.00  0.00    +0.000 A 
ATOM     17  C   UNL     1       7.276   4.249  15.995  0.00  0.00    +0.000 A 
ATOM     18  S   UNL     1       7.253   5.128  17.460  0.00  0.00    +0.000 S 
BRANCH  16  19
ATOM     19  C   UNL     1       5.959   3.882  13.951  0.00  0.00    +0.000 C 
ATOM     20  C   UNL     1       5.700   3.331  12.799  0.00  0.00    +0.000 C 
BRANCH  20  21
ATOM     21  C   UNL     1       5.398   2.688  11.455  0.00  0.00    +0.000 C 
BRANCH  21  22
ATOM     22  O   UNL     1       5.861   1.347  11.454  0.00  0.00    +0.000 OA
ATOM     23  H   UNL     1       6.619   1.314  12.061  0.00  0.00    +0.000 HD
ENDBRANCH  21  22
ENDBRANCH  20  21
ENDBRANCH  16  19
ENDBRANCH  13  14
ENDBRANCH   1  13
TORSDOF 8
ENDMDL
MODEL 3
REMARK VINA RESULT:      -6.4      3.802      8.107
REMARK  Name = 
REMARK  11 active torsions:
REMARK  status: ('A' for Active; 'I' for Inactive)
REMARK    1  A    between atoms: C_1  and  C_2
REMARK    2  A    between atoms: C_2  and  C_3
REMARK    3  A    between atoms: C_3  and  N_4
REMARK    4  A    between atoms: C_3  and  C_15
REMARK    5  A    between atoms: N_4  and  C_5
REMARK    6  A    between atoms: C_5  and  C_6
REMARK    7  A    between atoms: C_8  and  C_9
REMARK    8  A    between atoms: C_10  and  C_11
REMARK    9  A    between atoms: C_11  and  O_12
REMARK   10  A    between atoms: C_17  and  C_18
REMARK   11  A    between atoms: C_19  and  C_20
REMARK                            x       y       z     vdW  Elec       q    Type
REMARK                         _______ _______ _______ _____ _____    ______ ____
ROOT
ATOM      1  N   UNL     1       5.234   3.722  17.651  0.00  0.00    +0.000 NA
ATOM      2  H   UNL     1       4.301   3.836  17.249  0.00  0.00    +0.000 HD
ENDROOT
BRANCH   1   3
ATOM      3  C   UNL     1       6.071   4.849  17.187  0.00  0.00    +0.000 C 
BRANCH   3   4
ATOM      4  C   UNL     1       6.357   4.766  15.696  0.00  0.00    +0.000 A 
ATOM      5  N   UNL     1       7.327   5.406  15.072  0.00  0.00    +0.000 NA
ATOM      6  C   UNL     1       7.372   5.024  13.739  0.00  0.00    +0.000 A 
ATOM      7  C   UNL     1       8.396   5.639  12.850  0.00  0.00    +0.000 C 
ATOM      8  C   UNL     1       6.447   4.061  13.380  0.00  0.00    +0.000 A 
ATOM      9  C   UNL     1       6.252   3.351  12.085  0.00  0.00    +0.000 C 
ATOM     10  S   UNL     1       5.432   3.699  14.710  0.00  0.00    +0.000 S 
ENDBRANCH   3   4
BRANCH   3  12
ATOM     11  C   UNL     1       7.705   6.136  18.696  0.00  0.00    +0.000 C 
ATOM     12  C   UNL     1       7.369   4.813  18.019  0.00  0.00    +0.000 C 
ENDBRANCH   3  12
ENDBRANCH   1   3
BRANCH   1  13
ATOM     13  C   UNL     1       5.111   3.661  19.106  0.00  0.00    +0.000 C 
BRANCH  13  14
ATOM     14  C   UNL     1       3.807   4.262  19.552  0.00  0.00    +0.000 A 
ATOM     15  C   UNL     1       3.544   5.582  19.881  0.00  0.00    +0.000 A 
ATOM     16  C   UNL     1       2.185   5.780  20.260  0.00  0.00    +0.000 A 
ATOM     17  C   UNL     1       1.457   4.613  20.212  0.00  0.00    +0.000 A 
ATOM     18  S   UNL     1       2.412   3.278  19.736  0.00  0.00    +0.000 S 
BRANCH  16  19
ATOM     19  C   UNL     1       1.609   7.027  20.653  0.00  0.00    +0.000 C 
ATOM     20  C   UNL     1       1.093   8.147  21.076  0.00  0.00    +0.000 C 
BRANCH  20  21
ATOM     21  C   UNL     1       0.491   9.452  21.569  0.00  0.00    +0.000 C 
BRANCH  21  22
ATOM     22  O   UNL     1       0.853   9.660  22.925  0.00  0.00    +0.000 OA
ATOM     23  H   UNL     1       0.909  10.621  23.054  0.00  0.00    +0.000 HD
ENDBRANCH  21  22
ENDBRANCH  20  21
ENDBRANCH  16  19
ENDBRANCH  13  14
ENDBRANCH   1  13
TORSDOF 8
ENDMDL
MODEL 4
REMARK VINA RESULT:      -6.4      2.000      4.056
REMARK  Name = 
REMARK  11 active torsions:
REMARK  status: ('A' for Active; 'I' for Inactive)
REMARK    1  A    between atoms: C_1  and  C_2
REMARK    2  A    between atoms: C_2  and  C_3
REMARK    3  A    between atoms: C_3  and  N_4
REMARK    4  A    between atoms: C_3  and  C_15
REMARK    5  A    between atoms: N_4  and  C_5
REMARK    6  A    between atoms: C_5  and  C_6
REMARK    7  A    between atoms: C_8  and  C_9
REMARK    8  A    between atoms: C_10  and  C_11
REMARK    9  A    between atoms: C_11  and  O_12
REMARK   10  A    between atoms: C_17  and  C_18
REMARK   11  A    between atoms: C_19  and  C_20
REMARK                            x       y       z     vdW  Elec       q    Type
REMARK                         _______ _______ _______ _____ _____    ______ ____
ROOT
ATOM      1  N   UNL     1       3.497   6.899  17.539  0.00  0.00    +0.000 NA
ATOM      2  H   UNL     1       3.339   5.957  17.177  0.00  0.00    +0.000 HD
ENDROOT
BRANCH   1   3
ATOM      3  C   UNL     1       3.284   6.870  19.001  0.00  0.00    +0.000 C 
BRANCH   3   4
ATOM      4  C   UNL     1       3.094   5.452  19.518  0.00  0.00    +0.000 A 
ATOM      5  N   UNL     1       3.974   4.476  19.398  0.00  0.00    +0.000 NA
ATOM      6  C   UNL     1       3.530   3.348  20.073  0.00  0.00    +0.000 A 
ATOM      7  C   UNL     1       4.376   2.122  20.055  0.00  0.00    +0.000 C 
ATOM      8  C   UNL     1       2.324   3.502  20.731  0.00  0.00    +0.000 A 
ATOM      9  C   UNL     1       1.586   2.559  21.617  0.00  0.00    +0.000 C 
ATOM     10  S   UNL     1       1.680   5.056  20.417  0.00  0.00    +0.000 S 
ENDBRANCH   3   4
BRANCH   3  12
ATOM     11  C   UNL     1       1.793   8.817  18.235  0.00  0.00    +0.000 C 
ATOM     12  C   UNL     1       2.054   7.752  19.293  0.00  0.00    +0.000 C 
ENDBRANCH   3  12
ENDBRANCH   1   3
BRANCH   1  13
ATOM     13  C   UNL     1       4.844   7.324  17.164  0.00  0.00    +0.000 C 
BRANCH  13  14
ATOM     14  C   UNL     1       5.560   6.223  16.433  0.00  0.00    +0.000 A 
ATOM     15  C   UNL     1       5.199   5.614  15.242  0.00  0.00    +0.000 A 
ATOM     16  C   UNL     1       6.125   4.603  14.853  0.00  0.00    +0.000 A 
ATOM     17  C   UNL     1       7.157   4.470  15.755  0.00  0.00    +0.000 A 
ATOM     18  S   UNL     1       6.998   5.541  17.077  0.00  0.00    +0.000 S 
BRANCH  16  19
ATOM     19  C   UNL     1       6.027   3.801  13.676  0.00  0.00    +0.000 C 
ATOM     20  C   UNL     1       5.872   3.086  12.597  0.00  0.00    +0.000 C 
BRANCH  20  21
ATOM     21  C   UNL     1       5.691   2.252  11.339  0.00  0.00    +0.000 C 
BRANCH  21  22
ATOM     22  O   UNL     1       6.748   1.312  11.235  0.00  0.00    +0.000 OA
ATOM     23  H   UNL     1       7.575   1.809  11.354  0.00  0.00    +0.000 HD
ENDBRANCH  21  22
ENDBRANCH  20  21
ENDBRANCH  16  19
ENDBRANCH  13  14
ENDBRANCH   1  13
TORSDOF 8
ENDMDL
MODEL 5
REMARK VINA RESULT:      -6.4      3.330      4.187
REMARK  Name = 
REMARK  11 active torsions:
REMARK  status: ('A' for Active; 'I' for Inactive)
REMARK    1  A    between atoms: C_1  and  C_2
REMARK    2  A    between atoms: C_2  and  C_3
REMARK    3  A    between atoms: C_3  and  N_4
REMARK    4  A    between atoms: C_3  and  C_15
REMARK    5  A    between atoms: N_4  and  C_5
REMARK    6  A    between atoms: C_5  and  C_6
REMARK    7  A    between atoms: C_8  and  C_9
REMARK    8  A    between atoms: C_10  and  C_11
REMARK    9  A    between atoms: C_11  and  O_12
REMARK   10  A    between atoms: C_17  and  C_18
REMARK   11  A    between atoms: C_19  and  C_20
REMARK                            x       y       z     vdW  Elec       q    Type
REMARK                         _______ _______ _______ _____ _____    ______ ____
ROOT
ATOM      1  N   UNL     1       3.990   4.173  19.899  0.00  0.00    +0.000 NA
ATOM      2  H   UNL     1       4.426   5.084  20.053  0.00  0.00    +0.000 HD
ENDROOT
BRANCH   1   3
ATOM      3  C   UNL     1       2.538   4.385  19.723  0.00  0.00    +0.000 C 
BRANCH   3   4
ATOM      4  C   UNL     1       2.192   5.860  19.586  0.00  0.00    +0.000 A 
ATOM      5  N   UNL     1       1.770   6.635  20.567  0.00  0.00    +0.000 NA
ATOM      6  C   UNL     1       1.653   7.945  20.123  0.00  0.00    +0.000 A 
ATOM      7  C   UNL     1       1.179   8.985  21.077  0.00  0.00    +0.000 C 
ATOM      8  C   UNL     1       2.029   8.148  18.808  0.00  0.00    +0.000 A 
ATOM      9  C   UNL     1       2.122   9.409  18.020  0.00  0.00    +0.000 C 
ATOM     10  S   UNL     1       2.440   6.656  18.079  0.00  0.00    +0.000 S 
ENDBRANCH   3   4
BRANCH   3  12
ATOM     11  C   UNL     1       2.611   2.586  21.556  0.00  0.00    +0.000 C 
ATOM     12  C   UNL     1       1.841   3.748  20.942  0.00  0.00    +0.000 C 
ENDBRANCH   3  12
ENDBRANCH   1   3
BRANCH   1  13
ATOM     13  C   UNL     1       4.621   3.542  18.742  0.00  0.00    +0.000 C 
BRANCH  13  14
ATOM     14  C   UNL     1       5.535   4.511  18.046  0.00  0.00    +0.000 A 
ATOM     15  C   UNL     1       6.098   5.670  18.556  0.00  0.00    +0.000 A 
ATOM     16  C   UNL     1       6.914   6.337  17.597  0.00  0.00    +0.000 A 
ATOM     17  C   UNL     1       6.946   5.675  16.391  0.00  0.00    +0.000 A 
ATOM     18  S   UNL     1       5.977   4.267  16.405  0.00  0.00    +0.000 S 
BRANCH  16  19
ATOM     19  C   UNL     1       7.628   7.553  17.822  0.00  0.00    +0.000 C 
ATOM     20  C   UNL     1       8.222   8.692  18.049  0.00  0.00    +0.000 C 
BRANCH  20  21
ATOM     21  C   UNL     1       8.914  10.019  18.313  0.00  0.00    +0.000 C 
BRANCH  21  22
ATOM     22  O   UNL     1       9.495  10.003  19.607  0.00  0.00    +0.000 OA
ATOM     23  H   UNL     1       9.134  10.769  20.083  0.00  0.00    +0.000 HD
ENDBRANCH  21  22
ENDBRANCH  20  21
ENDBRANCH  16  19
ENDBRANCH  13  14
ENDBRANCH   1  13
TORSDOF 8
ENDMDL
MODEL 6
REMARK VINA RESULT:      -6.4      3.704      4.813
REMARK  Name = 
REMARK  11 active torsions:
REMARK  status: ('A' for Active; 'I' for Inactive)
REMARK    1  A    between atoms: C_1  and  C_2
REMARK    2  A    between atoms: C_2  and  C_3
REMARK    3  A    between atoms: C_3  and  N_4
REMARK    4  A    between atoms: C_3  and  C_15
REMARK    5  A    between atoms: N_4  and  C_5
REMARK    6  A    between atoms: C_5  and  C_6
REMARK    7  A    between atoms: C_8  and  C_9
REMARK    8  A    between atoms: C_10  and  C_11
REMARK    9  A    between atoms: C_11  and  O_12
REMARK   10  A    between atoms: C_17  and  C_18
REMARK   11  A    between atoms: C_19  and  C_20
REMARK                            x       y       z     vdW  Elec       q    Type
REMARK                         _______ _______ _______ _____ _____    ______ ____
ROOT
ATOM      1  N   UNL     1       4.355   2.922  18.211  0.00  0.00    +0.000 NA
ATOM      2  H   UNL     1       4.391   1.947  18.514  0.00  0.00    +0.000 HD
ENDROOT
BRANCH   1   3
ATOM      3  C   UNL     1       2.939   3.344  18.192  0.00  0.00    +0.000 C 
BRANCH   3   4
ATOM      4  C   UNL     1       2.773   4.794  18.622  0.00  0.00    +0.000 A 
ATOM      5  N   UNL     1       2.905   5.840  17.830  0.00  0.00    +0.000 NA
ATOM      6  C   UNL     1       2.582   7.002  18.516  0.00  0.00    +0.000 A 
ATOM      7  C   UNL     1       2.674   8.306  17.803  0.00  0.00    +0.000 C 
ATOM      8  C   UNL     1       2.170   6.809  19.822  0.00  0.00    +0.000 A 
ATOM      9  C   UNL     1       1.668   7.789  20.826  0.00  0.00    +0.000 C 
ATOM     10  S   UNL     1       2.287   5.153  20.234  0.00  0.00    +0.000 S 
ENDBRANCH   3   4
BRANCH   3  12
ATOM     11  C   UNL     1       0.709   2.195  18.748  0.00  0.00    +0.000 C 
ATOM     12  C   UNL     1       2.173   2.383  19.123  0.00  0.00    +0.000 C 
ENDBRANCH   3  12
ENDBRANCH   1   3
BRANCH   1  13
ATOM     13  C   UNL     1       5.180   3.723  19.113  0.00  0.00    +0.000 C 
BRANCH  13  14
ATOM     14  C   UNL     1       5.977   4.737  18.340  0.00  0.00    +0.000 A 
ATOM     15  C   UNL     1       6.463   5.957  18.781  0.00  0.00    +0.000 A 
ATOM     16  C   UNL     1       7.177   6.651  17.762  0.00  0.00    +0.000 A 
ATOM     17  C   UNL     1       7.210   5.946  16.580  0.00  0.00    +0.000 A 
ATOM     18  S   UNL     1       6.365   4.465  16.690  0.00  0.00    +0.000 S 
BRANCH  16  19
ATOM     19  C   UNL     1       7.795   7.930  17.909  0.00  0.00    +0.000 C 
ATOM     20  C   UNL     1       8.400   9.070  18.093  0.00  0.00    +0.000 C 
BRANCH  20  21
ATOM     21  C   UNL     1       9.105  10.399  18.307  0.00  0.00    +0.000 C 
BRANCH  21  22
ATOM     22  O   UNL     1       9.439  10.545  19.678  0.00  0.00    +0.000 OA
ATOM     23  H   UNL     1      10.228   9.998  19.831  0.00  0.00    +0.000 HD
ENDBRANCH  21  22
ENDBRANCH  20  21
ENDBRANCH  16  19
ENDBRANCH  13  14
ENDBRANCH   1  13
TORSDOF 8
ENDMDL
MODEL 7
REMARK VINA RESULT:      -6.4      3.401      7.368
REMARK  Name = 
REMARK  11 active torsions:
REMARK  status: ('A' for Active; 'I' for Inactive)
REMARK    1  A    between atoms: C_1  and  C_2
REMARK    2  A    between atoms: C_2  and  C_3
REMARK    3  A    between atoms: C_3  and  N_4
REMARK    4  A    between atoms: C_3  and  C_15
REMARK    5  A    between atoms: N_4  and  C_5
REMARK    6  A    between atoms: C_5  and  C_6
REMARK    7  A    between atoms: C_8  and  C_9
REMARK    8  A    between atoms: C_10  and  C_11
REMARK    9  A    between atoms: C_11  and  O_12
REMARK   10  A    between atoms: C_17  and  C_18
REMARK   11  A    between atoms: C_19  and  C_20
REMARK                            x       y       z     vdW  Elec       q    Type
REMARK                         _______ _______ _______ _____ _____    ______ ____
ROOT
ATOM      1  N   UNL     1       6.428   4.056  18.215  0.00  0.00    +0.000 NA
ATOM      2  H   UNL     1       6.401   3.278  17.553  0.00  0.00    +0.000 HD
ENDROOT
BRANCH   1   3
ATOM      3  C   UNL     1       6.368   5.315  17.444  0.00  0.00    +0.000 C 
BRANCH   3   4
ATOM      4  C   UNL     1       6.494   5.071  15.948  0.00  0.00    +0.000 A 
ATOM      5  N   UNL     1       7.411   5.608  15.166  0.00  0.00    +0.000 NA
ATOM      6  C   UNL     1       7.306   5.090  13.883  0.00  0.00    +0.000 A 
ATOM      7  C   UNL     1       8.247   5.573  12.835  0.00  0.00    +0.000 C 
ATOM      8  C   UNL     1       6.323   4.131  13.722  0.00  0.00    +0.000 A 
ATOM      9  C   UNL     1       5.975   3.301  12.535  0.00  0.00    +0.000 C 
ATOM     10  S   UNL     1       5.444   3.945  15.179  0.00  0.00    +0.000 S 
ENDBRANCH   3   4
BRANCH   3  12
ATOM     11  C   UNL     1       8.062   5.781  19.319  0.00  0.00    +0.000 C 
ATOM     12  C   UNL     1       7.502   6.217  17.971  0.00  0.00    +0.000 C 
ENDBRANCH   3  12
ENDBRANCH   1   3
BRANCH   1  13
ATOM     13  C   UNL     1       5.320   3.907  19.157  0.00  0.00    +0.000 C 
BRANCH  13  14
ATOM     14  C   UNL     1       4.145   4.738  18.723  0.00  0.00    +0.000 A 
ATOM     15  C   UNL     1       3.951   6.099  18.897  0.00  0.00    +0.000 A 
ATOM     16  C   UNL     1       2.710   6.539  18.352  0.00  0.00    +0.000 A 
ATOM     17  C   UNL     1       1.998   5.507  17.785  0.00  0.00    +0.000 A 
ATOM     18  S   UNL     1       2.808   4.010  17.930  0.00  0.00    +0.000 S 
BRANCH  16  19
ATOM     19  C   UNL     1       2.227   7.883  18.375  0.00  0.00    +0.000 C 
ATOM     20  C   UNL     1       1.724   9.085  18.379  0.00  0.00    +0.000 C 
BRANCH  20  21
ATOM     21  C   UNL     1       1.138  10.487  18.383  0.00  0.00    +0.000 C 
BRANCH  21  22
ATOM     22  O   UNL     1       2.045  11.385  17.765  0.00  0.00    +0.000 OA
ATOM     23  H   UNL     1       2.580  10.859  17.147  0.00  0.00    +0.000 HD
ENDBRANCH  21  22
ENDBRANCH  20  21
ENDBRANCH  16  19
ENDBRANCH  13  14
ENDBRANCH   1  13
TORSDOF 8
ENDMDL
MODEL 8
REMARK VINA RESULT:      -6.3      3.783      7.917
REMARK  Name = 
REMARK  11 active torsions:
REMARK  status: ('A' for Active; 'I' for Inactive)
REMARK    1  A    between atoms: C_1  and  C_2
REMARK    2  A    between atoms: C_2  and  C_3
REMARK    3  A    between atoms: C_3  and  N_4
REMARK    4  A    between atoms: C_3  and  C_15
REMARK    5  A    between atoms: N_4  and  C_5
REMARK    6  A    between atoms: C_5  and  C_6
REMARK    7  A    between atoms: C_8  and  C_9
REMARK    8  A    between atoms: C_10  and  C_11
REMARK    9  A    between atoms: C_11  and  O_12
REMARK   10  A    between atoms: C_17  and  C_18
REMARK   11  A    between atoms: C_19  and  C_20
REMARK                            x       y       z     vdW  Elec       q    Type
REMARK                         _______ _______ _______ _____ _____    ______ ____
ROOT
ATOM      1  N   UNL     1       4.392   2.953  17.398  0.00  0.00    +0.000 NA
ATOM      2  H   UNL     1       4.580   2.320  16.617  0.00  0.00    +0.000 HD
ENDROOT
BRANCH   1   3
ATOM      3  C   UNL     1       5.130   4.210  17.156  0.00  0.00    +0.000 C 
BRANCH   3   4
ATOM      4  C   UNL     1       5.784   4.229  15.783  0.00  0.00    +0.000 A 
ATOM      5  N   UNL     1       5.311   3.625  14.709  0.00  0.00    +0.000 NA
ATOM      6  C   UNL     1       6.092   3.934  13.605  0.00  0.00    +0.000 A 
ATOM      7  C   UNL     1       5.736   3.344  12.285  0.00  0.00    +0.000 C 
ATOM      8  C   UNL     1       7.134   4.808  13.857  0.00  0.00    +0.000 A 
ATOM      9  C   UNL     1       8.115   5.428  12.923  0.00  0.00    +0.000 C 
ATOM     10  S   UNL     1       7.203   5.170  15.528  0.00  0.00    +0.000 S 
ENDBRANCH   3   4
BRANCH   3  12
ATOM     11  C   UNL     1       5.893   5.482  19.255  0.00  0.00    +0.000 C 
ATOM     12  C   UNL     1       6.173   4.341  18.285  0.00  0.00    +0.000 C 
ENDBRANCH   3  12
ENDBRANCH   1   3
BRANCH   1  13
ATOM     13  C   UNL     1       2.947   3.148  17.502  0.00  0.00    +0.000 C 
BRANCH  13  14
ATOM     14  C   UNL     1       2.606   3.892  18.764  0.00  0.00    +0.000 A 
ATOM     15  C   UNL     1       2.263   5.228  18.900  0.00  0.00    +0.000 A 
ATOM     16  C   UNL     1       2.006   5.581  20.256  0.00  0.00    +0.000 A 
ATOM     17  C   UNL     1       2.163   4.511  21.109  0.00  0.00    +0.000 A 
ATOM     18  S   UNL     1       2.641   3.094  20.283  0.00  0.00    +0.000 S 
BRANCH  16  19
ATOM     19  C   UNL     1       1.631   6.880  20.717  0.00  0.00    +0.000 C 
ATOM     20  C   UNL     1       1.245   8.069  21.084  0.00  0.00    +0.000 C 
BRANCH  20  21
ATOM     21  C   UNL     1       0.796   9.456  21.512  0.00  0.00    +0.000 C 
BRANCH  21  22
ATOM     22  O   UNL     1       0.912   9.581  22.920  0.00  0.00    +0.000 OA
ATOM     23  H   UNL     1       1.827   9.852  23.101  0.00  0.00    +0.000 HD
ENDBRANCH  21  22
ENDBRANCH  20  21
ENDBRANCH  16  19
ENDBRANCH  13  14
ENDBRANCH   1  13
TORSDOF 8
ENDMDL
MODEL 9
REMARK VINA RESULT:      -6.3      1.670      2.235
REMARK  Name = 
REMARK  11 active torsions:
REMARK  status: ('A' for Active; 'I' for Inactive)
REMARK    1  A    between atoms: C_1  and  C_2
REMARK    2  A    between atoms: C_2  and  C_3
REMARK    3  A    between atoms: C_3  and  N_4
REMARK    4  A    between atoms: C_3  and  C_15
REMARK    5  A    between atoms: N_4  and  C_5
REMARK    6  A    between atoms: C_5  and  C_6
REMARK    7  A    between atoms: C_8  and  C_9
REMARK    8  A    between atoms: C_10  and  C_11
REMARK    9  A    between atoms: C_11  and  O_12
REMARK   10  A    between atoms: C_17  and  C_18
REMARK   11  A    between atoms: C_19  and  C_20
REMARK                            x       y       z     vdW  Elec       q    Type
REMARK                         _______ _______ _______ _____ _____    ______ ____
ROOT
ATOM      1  N   UNL     1       4.480   3.158  18.944  0.00  0.00    +0.000 NA
ATOM      2  H   UNL     1       4.503   2.845  19.917  0.00  0.00    +0.000 HD
ENDROOT
BRANCH   1   3
ATOM      3  C   UNL     1       3.085   3.514  18.610  0.00  0.00    +0.000 C 
BRANCH   3   4
ATOM      4  C   UNL     1       2.766   4.957  18.969  0.00  0.00    +0.000 A 
ATOM      5  N   UNL     1       2.767   5.968  18.121  0.00  0.00    +0.000 NA
ATOM      6  C   UNL     1       2.328   7.122  18.754  0.00  0.00    +0.000 A 
ATOM      7  C   UNL     1       2.263   8.388  17.973  0.00  0.00    +0.000 C 
ATOM      8  C   UNL     1       1.962   6.955  20.077  0.00  0.00    +0.000 A 
ATOM      9  C   UNL     1       1.371   7.926  21.039  0.00  0.00    +0.000 C 
ATOM     10  S   UNL     1       2.270   5.346  20.571  0.00  0.00    +0.000 S 
ENDBRANCH   3   4
BRANCH   3  12
ATOM     11  C   UNL     1       0.760   2.440  18.816  0.00  0.00    +0.000 C 
ATOM     12  C   UNL     1       2.177   2.524  19.368  0.00  0.00    +0.000 C 
ENDBRANCH   3  12
ENDBRANCH   1   3
BRANCH   1  13
ATOM     13  C   UNL     1       5.409   4.276  18.791  0.00  0.00    +0.000 C 
BRANCH  13  14
ATOM     14  C   UNL     1       5.857   4.397  17.361  0.00  0.00    +0.000 A 
ATOM     15  C   UNL     1       5.267   3.850  16.233  0.00  0.00    +0.000 A 
ATOM     16  C   UNL     1       5.977   4.179  15.042  0.00  0.00    +0.000 A 
ATOM     17  C   UNL     1       7.082   4.960  15.297  0.00  0.00    +0.000 A 
ATOM     18  S   UNL     1       7.278   5.275  16.965  0.00  0.00    +0.000 S 
BRANCH  16  19
ATOM     19  C   UNL     1       5.618   3.766  13.724  0.00  0.00    +0.000 C 
ATOM     20  C   UNL     1       5.246   3.344  12.548  0.00  0.00    +0.000 C 
BRANCH  20  21
ATOM     21  C   UNL     1       4.812   2.852  11.177  0.00  0.00    +0.000 C 
BRANCH  21  22
ATOM     22  O   UNL     1       3.669   3.576  10.751  0.00  0.00    +0.000 OA
ATOM     23  H   UNL     1       3.254   3.052  10.046  0.00  0.00    +0.000 HD
ENDBRANCH  21  22
ENDBRANCH  20  21
ENDBRANCH  16  19
ENDBRANCH  13  14
ENDBRANCH   1  13
TORSDOF 8
ENDMDL
