MODEL 1
REMARK VINA RESULT:      -8.2      0.000      0.000
REMARK  Name = 
REMARK  3 active torsions:
REMARK  status: ('A' for Active; 'I' for Inactive)
REMARK    1  A    between atoms: C_7  and  O_8
REMARK    2  A    between atoms: O_8  and  C_9
REMARK    3  A    between atoms: C_18  and  C_19
REMARK                            x       y       z     vdW  Elec       q    Type
REMARK                         _______ _______ _______ _____ _____    ______ ____
ROOT
ATOM      1  O   UNL     1       1.780   1.847  20.440  0.00  0.00    +0.000 OA
ATOM      2  C   UNL     1       1.959   3.045  20.264  0.00  0.00    +0.000 C 
ATOM      3  N   UNL     1       1.402   4.066  21.059  0.00  0.00    +0.000 N 
ATOM      4  C   UNL     1       1.727   5.322  20.557  0.00  0.00    +0.000 A 
ATOM      5  C   UNL     1       1.372   6.560  21.045  0.00  0.00    +0.000 A 
ATOM      6  C   UNL     1       1.715   7.688  20.279  0.00  0.00    +0.000 A 
ATOM      7  C   UNL     1       2.330   7.550  19.024  0.00  0.00    +0.000 A 
ATOM      8  C   UNL     1       2.747   6.288  18.600  0.00  0.00    +0.000 A 
ATOM      9  C   UNL     1       2.484   5.185  19.401  0.00  0.00    +0.000 A 
ATOM     10  C   UNL     1       2.928   3.746  19.284  0.00  0.00    +0.000 C 
ATOM     11  N   UNL     1       4.292   3.564  19.830  0.00  0.00    +0.000 N 
ATOM     12  N   UNL     1       5.265   3.790  18.901  0.00  0.00    +0.000 NA
ATOM     13  C   UNL     1       4.773   3.708  17.697  0.00  0.00    +0.000 C 
ATOM     14  S   UNL     1       3.086   3.172  17.594  0.00  0.00    +0.000 S 
ATOM     15  H   UNL     1       0.810   3.883  21.853  0.00  0.00    +0.000 HD
ATOM     16  H   UNL     1       4.363   2.594  20.155  0.00  0.00    +0.000 HD
ENDROOT
BRANCH  13  17
ATOM     17  C   UNL     1       5.552   4.166  16.525  0.00  0.00    +0.000 A 
ATOM     18  C   UNL     1       4.963   3.986  15.259  0.00  0.00    +0.000 A 
ATOM     19  C   UNL     1       5.640   4.339  14.097  0.00  0.00    +0.000 A 
ATOM     20  C   UNL     1       6.919   4.877  14.183  0.00  0.00    +0.000 A 
ATOM     21  C   UNL     1       7.519   5.051  15.433  0.00  0.00    +0.000 A 
ATOM     22  C   UNL     1       6.843   4.693  16.605  0.00  0.00    +0.000 A 
ENDBRANCH  13  17
BRANCH   7  23
ATOM     23  O   UNL     1       2.692   8.567  18.196  0.00  0.00    +0.000 OA
BRANCH  23  24
ATOM     24  C   UNL     1       1.854   9.706  18.059  0.00  0.00    +0.000 C 
ATOM     25  F   UNL     1       1.519  10.301  19.221  0.00  0.00    +0.000 F 
ATOM     26  F   UNL     1       2.491  10.613  17.287  0.00  0.00    +0.000 F 
ATOM     27  F   UNL     1       0.714   9.346  17.425  0.00  0.00    +0.000 F 
ENDBRANCH  23  24
ENDBRANCH   7  23
TORSDOF 3
ENDMDL
MODEL 2
REMARK VINA RESULT:      -8.1      2.204      2.963
REMARK  Name = 
REMARK  3 active torsions:
REMARK  status: ('A' for Active; 'I' for Inactive)
REMARK    1  A    between atoms: C_7  and  O_8
REMARK    2  A    between atoms: O_8  and  C_9
REMARK    3  A    between atoms: C_18  and  C_19
REMARK                            x       y       z     vdW  Elec       q    Type
REMARK                         _______ _______ _______ _____ _____    ______ ____
ROOT
ATOM      1  O   UNL     1       3.827   1.004  17.762  0.00  0.00    +0.000 OA
ATOM      2  C   UNL     1       3.430   2.016  18.322  0.00  0.00    +0.000 C 
ATOM      3  N   UNL     1       2.261   2.098  19.103  0.00  0.00    +0.000 N 
ATOM      4  C   UNL     1       2.042   3.401  19.538  0.00  0.00    +0.000 A 
ATOM      5  C   UNL     1       1.011   3.886  20.313  0.00  0.00    +0.000 A 
ATOM      6  C   UNL     1       0.938   5.277  20.509  0.00  0.00    +0.000 A 
ATOM      7  C   UNL     1       1.839   6.145  19.872  0.00  0.00    +0.000 A 
ATOM      8  C   UNL     1       2.916   5.614  19.162  0.00  0.00    +0.000 A 
ATOM      9  C   UNL     1       3.035   4.236  19.044  0.00  0.00    +0.000 A 
ATOM     10  C   UNL     1       4.143   3.380  18.475  0.00  0.00    +0.000 C 
ATOM     11  N   UNL     1       5.227   3.187  19.465  0.00  0.00    +0.000 N 
ATOM     12  N   UNL     1       6.163   4.177  19.421  0.00  0.00    +0.000 NA
ATOM     13  C   UNL     1       6.103   4.810  18.283  0.00  0.00    +0.000 C 
ATOM     14  S   UNL     1       4.991   4.125  17.083  0.00  0.00    +0.000 S 
ATOM     15  H   UNL     1       1.654   1.311  19.269  0.00  0.00    +0.000 HD
ATOM     16  H   UNL     1       5.680   2.292  19.250  0.00  0.00    +0.000 HD
ENDROOT
BRANCH  13  17
ATOM     17  C   UNL     1       6.827   6.086  18.083  0.00  0.00    +0.000 A 
ATOM     18  C   UNL     1       7.894   6.357  18.961  0.00  0.00    +0.000 A 
ATOM     19  C   UNL     1       8.600   7.552  18.883  0.00  0.00    +0.000 A 
ATOM     20  C   UNL     1       8.249   8.496  17.924  0.00  0.00    +0.000 A 
ATOM     21  C   UNL     1       7.186   8.244  17.054  0.00  0.00    +0.000 A 
ATOM     22  C   UNL     1       6.469   7.044  17.132  0.00  0.00    +0.000 A 
ENDBRANCH  13  17
BRANCH   7  23
ATOM     23  O   UNL     1       1.852   7.501  19.978  0.00  0.00    +0.000 OA
BRANCH  23  24
ATOM     24  C   UNL     1       1.851   8.306  18.808  0.00  0.00    +0.000 C 
ATOM     25  F   UNL     1       1.183   7.778  17.763  0.00  0.00    +0.000 F 
ATOM     26  F   UNL     1       1.289   9.497  19.111  0.00  0.00    +0.000 F 
ATOM     27  F   UNL     1       3.128   8.533  18.422  0.00  0.00    +0.000 F 
ENDBRANCH  23  24
ENDBRANCH   7  23
TORSDOF 3
ENDMDL
MODEL 3
REMARK VINA RESULT:      -8.0      2.395      3.220
REMARK  Name = 
REMARK  3 active torsions:
REMARK  status: ('A' for Active; 'I' for Inactive)
REMARK    1  A    between atoms: C_7  and  O_8
REMARK    2  A    between atoms: O_8  and  C_9
REMARK    3  A    between atoms: C_18  and  C_19
REMARK                            x       y       z     vdW  Elec       q    Type
REMARK                         _______ _______ _______ _____ _____    ______ ____
ROOT
ATOM      1  O   UNL     1       3.782   1.074  17.882  0.00  0.00    +0.000 OA
ATOM      2  C   UNL     1       3.392   2.093  18.435  0.00  0.00    +0.000 C 
ATOM      3  N   UNL     1       2.236   2.181  19.236  0.00  0.00    +0.000 N 
ATOM      4  C   UNL     1       2.020   3.490  19.654  0.00  0.00    +0.000 A 
ATOM      5  C   UNL     1       1.002   3.982  20.442  0.00  0.00    +0.000 A 
ATOM      6  C   UNL     1       0.926   5.375  20.618  0.00  0.00    +0.000 A 
ATOM      7  C   UNL     1       1.811   6.237  19.952  0.00  0.00    +0.000 A 
ATOM      8  C   UNL     1       2.878   5.700  19.230  0.00  0.00    +0.000 A 
ATOM      9  C   UNL     1       3.000   4.321  19.130  0.00  0.00    +0.000 A 
ATOM     10  C   UNL     1       4.102   3.462  18.554  0.00  0.00    +0.000 C 
ATOM     11  N   UNL     1       5.204   3.288  19.527  0.00  0.00    +0.000 N 
ATOM     12  N   UNL     1       6.135   4.281  19.450  0.00  0.00    +0.000 NA
ATOM     13  C   UNL     1       6.052   4.896  18.304  0.00  0.00    +0.000 C 
ATOM     14  S   UNL     1       4.921   4.189  17.136  0.00  0.00    +0.000 S 
ATOM     15  H   UNL     1       1.637   1.394  19.424  0.00  0.00    +0.000 HD
ATOM     16  H   UNL     1       5.657   2.392  19.316  0.00  0.00    +0.000 HD
ENDROOT
BRANCH  13  17
ATOM     17  C   UNL     1       6.766   6.172  18.072  0.00  0.00    +0.000 A 
ATOM     18  C   UNL     1       7.888   6.430  18.884  0.00  0.00    +0.000 A 
ATOM     19  C   UNL     1       8.592   7.624  18.773  0.00  0.00    +0.000 A 
ATOM     20  C   UNL     1       8.184   8.579  17.849  0.00  0.00    +0.000 A 
ATOM     21  C   UNL     1       7.067   8.340  17.045  0.00  0.00    +0.000 A 
ATOM     22  C   UNL     1       6.352   7.141  17.156  0.00  0.00    +0.000 A 
ENDBRANCH  13  17
BRANCH   7  23
ATOM     23  O   UNL     1       1.821   7.595  20.037  0.00  0.00    +0.000 OA
BRANCH  23  24
ATOM     24  C   UNL     1       1.133   8.246  21.097  0.00  0.00    +0.000 C 
ATOM     25  F   UNL     1      -0.143   7.846  21.268  0.00  0.00    +0.000 F 
ATOM     26  F   UNL     1       1.807   8.016  22.245  0.00  0.00    +0.000 F 
ATOM     27  F   UNL     1       1.132   9.580  20.874  0.00  0.00    +0.000 F 
ENDBRANCH  23  24
ENDBRANCH   7  23
TORSDOF 3
ENDMDL
MODEL 4
REMARK VINA RESULT:      -8.0      0.218      1.230
REMARK  Name = 
REMARK  3 active torsions:
REMARK  status: ('A' for Active; 'I' for Inactive)
REMARK    1  A    between atoms: C_7  and  O_8
REMARK    2  A    between atoms: O_8  and  C_9
REMARK    3  A    between atoms: C_18  and  C_19
REMARK                            x       y       z     vdW  Elec       q    Type
REMARK                         _______ _______ _______ _____ _____    ______ ____
ROOT
ATOM      1  O   UNL     1       1.508   1.813  20.266  0.00  0.00    +0.000 OA
ATOM      2  C   UNL     1       1.745   3.005  20.132  0.00  0.00    +0.000 C 
ATOM      3  N   UNL     1       1.224   4.026  20.951  0.00  0.00    +0.000 N 
ATOM      4  C   UNL     1       1.615   5.280  20.494  0.00  0.00    +0.000 A 
ATOM      5  C   UNL     1       1.310   6.518  21.016  0.00  0.00    +0.000 A 
ATOM      6  C   UNL     1       1.718   7.653  20.292  0.00  0.00    +0.000 A 
ATOM      7  C   UNL     1       2.346   7.526  19.043  0.00  0.00    +0.000 A 
ATOM      8  C   UNL     1       2.711   6.259  18.585  0.00  0.00    +0.000 A 
ATOM      9  C   UNL     1       2.383   5.145  19.346  0.00  0.00    +0.000 A 
ATOM     10  C   UNL     1       2.762   3.690  19.189  0.00  0.00    +0.000 C 
ATOM     11  N   UNL     1       4.107   3.428  19.749  0.00  0.00    +0.000 N 
ATOM     12  N   UNL     1       5.104   3.637  18.843  0.00  0.00    +0.000 NA
ATOM     13  C   UNL     1       4.629   3.616  17.629  0.00  0.00    +0.000 C 
ATOM     14  S   UNL     1       2.920   3.163  17.484  0.00  0.00    +0.000 S 
ATOM     15  H   UNL     1       0.611   3.847  21.730  0.00  0.00    +0.000 HD
ATOM     16  H   UNL     1       4.128   2.446  20.044  0.00  0.00    +0.000 HD
ENDROOT
BRANCH  13  17
ATOM     17  C   UNL     1       5.448   4.073  16.484  0.00  0.00    +0.000 A 
ATOM     18  C   UNL     1       6.592   4.837  16.784  0.00  0.00    +0.000 A 
ATOM     19  C   UNL     1       7.395   5.353  15.773  0.00  0.00    +0.000 A 
ATOM     20  C   UNL     1       7.064   5.113  14.444  0.00  0.00    +0.000 A 
ATOM     21  C   UNL     1       5.926   4.365  14.133  0.00  0.00    +0.000 A 
ATOM     22  C   UNL     1       5.112   3.848  15.147  0.00  0.00    +0.000 A 
ENDBRANCH  13  17
BRANCH   7  23
ATOM     23  O   UNL     1       2.769   8.550  18.253  0.00  0.00    +0.000 OA
BRANCH  23  24
ATOM     24  C   UNL     1       1.916   9.661  18.013  0.00  0.00    +0.000 C 
ATOM     25  F   UNL     1       2.474  10.650  17.287  0.00  0.00    +0.000 F 
ATOM     26  F   UNL     1       0.820   9.221  17.357  0.00  0.00    +0.000 F 
ATOM     27  F   UNL     1       1.515  10.179  19.196  0.00  0.00    +0.000 F 
ENDBRANCH  23  24
ENDBRANCH   7  23
TORSDOF 3
ENDMDL
MODEL 5
REMARK VINA RESULT:      -7.7      4.413      7.085
REMARK  Name = 
REMARK  3 active torsions:
REMARK  status: ('A' for Active; 'I' for Inactive)
REMARK    1  A    between atoms: C_7  and  O_8
REMARK    2  A    between atoms: O_8  and  C_9
REMARK    3  A    between atoms: C_18  and  C_19
REMARK                            x       y       z     vdW  Elec       q    Type
REMARK                         _______ _______ _______ _____ _____    ______ ____
ROOT
ATOM      1  O   UNL     1       7.619   7.374  18.155  0.00  0.00    +0.000 OA
ATOM      2  C   UNL     1       7.274   6.599  17.274  0.00  0.00    +0.000 C 
ATOM      3  N   UNL     1       7.979   6.377  16.075  0.00  0.00    +0.000 N 
ATOM      4  C   UNL     1       7.289   5.499  15.246  0.00  0.00    +0.000 A 
ATOM      5  C   UNL     1       7.644   5.039  13.997  0.00  0.00    +0.000 A 
ATOM      6  C   UNL     1       6.709   4.256  13.297  0.00  0.00    +0.000 A 
ATOM      7  C   UNL     1       5.430   4.016  13.824  0.00  0.00    +0.000 A 
ATOM      8  C   UNL     1       5.136   4.427  15.124  0.00  0.00    +0.000 A 
ATOM      9  C   UNL     1       6.094   5.126  15.846  0.00  0.00    +0.000 A 
ATOM     10  C   UNL     1       6.123   5.566  17.291  0.00  0.00    +0.000 C 
ATOM     11  N   UNL     1       6.555   4.459  18.175  0.00  0.00    +0.000 N 
ATOM     12  N   UNL     1       5.516   3.676  18.583  0.00  0.00    +0.000 NA
ATOM     13  C   UNL     1       4.385   4.308  18.441  0.00  0.00    +0.000 C 
ATOM     14  S   UNL     1       4.514   6.006  17.946  0.00  0.00    +0.000 S 
ATOM     15  H   UNL     1       8.843   6.845  15.852  0.00  0.00    +0.000 HD
ATOM     16  H   UNL     1       6.995   4.883  18.999  0.00  0.00    +0.000 HD
ENDROOT
BRANCH  13  17
ATOM     17  C   UNL     1       3.095   3.594  18.562  0.00  0.00    +0.000 A 
ATOM     18  C   UNL     1       2.106   4.197  19.364  0.00  0.00    +0.000 A 
ATOM     19  C   UNL     1       0.881   3.576  19.577  0.00  0.00    +0.000 A 
ATOM     20  C   UNL     1       0.625   2.340  18.993  0.00  0.00    +0.000 A 
ATOM     21  C   UNL     1       1.601   1.727  18.205  0.00  0.00    +0.000 A 
ATOM     22  C   UNL     1       2.838   2.346  17.990  0.00  0.00    +0.000 A 
ENDBRANCH  13  17
BRANCH   7  23
ATOM     23  O   UNL     1       4.446   3.286  13.231  0.00  0.00    +0.000 OA
BRANCH  23  24
ATOM     24  C   UNL     1       4.435   3.123  11.820  0.00  0.00    +0.000 C 
ATOM     25  F   UNL     1       4.808   4.215  11.124  0.00  0.00    +0.000 F 
ATOM     26  F   UNL     1       5.272   2.111  11.502  0.00  0.00    +0.000 F 
ATOM     27  F   UNL     1       3.189   2.774  11.422  0.00  0.00    +0.000 F 
ENDBRANCH  23  24
ENDBRANCH   7  23
TORSDOF 3
ENDMDL
MODEL 6
REMARK VINA RESULT:      -7.7      2.990      5.922
REMARK  Name = 
REMARK  3 active torsions:
REMARK  status: ('A' for Active; 'I' for Inactive)
REMARK    1  A    between atoms: C_7  and  O_8
REMARK    2  A    between atoms: O_8  and  C_9
REMARK    3  A    between atoms: C_18  and  C_19
REMARK                            x       y       z     vdW  Elec       q    Type
REMARK                         _______ _______ _______ _____ _____    ______ ____
ROOT
ATOM      1  O   UNL     1       3.159   1.701  18.614  0.00  0.00    +0.000 OA
ATOM      2  C   UNL     1       3.747   2.665  18.144  0.00  0.00    +0.000 C 
ATOM      3  N   UNL     1       4.765   2.591  17.172  0.00  0.00    +0.000 N 
ATOM      4  C   UNL     1       5.289   3.851  16.902  0.00  0.00    +0.000 A 
ATOM      5  C   UNL     1       6.292   4.193  16.022  0.00  0.00    +0.000 A 
ATOM      6  C   UNL     1       6.739   5.526  16.025  0.00  0.00    +0.000 A 
ATOM      7  C   UNL     1       6.231   6.456  16.946  0.00  0.00    +0.000 A 
ATOM      8  C   UNL     1       5.160   6.096  17.764  0.00  0.00    +0.000 A 
ATOM      9  C   UNL     1       4.663   4.801  17.697  0.00  0.00    +0.000 A 
ATOM     10  C   UNL     1       3.448   4.170  18.336  0.00  0.00    +0.000 C 
ATOM     11  N   UNL     1       2.224   4.465  17.557  0.00  0.00    +0.000 N 
ATOM     12  N   UNL     1       1.634   5.637  17.929  0.00  0.00    +0.000 NA
ATOM     13  C   UNL     1       2.039   5.995  19.115  0.00  0.00    +0.000 C 
ATOM     14  S   UNL     1       3.064   4.821  19.961  0.00  0.00    +0.000 S 
ATOM     15  H   UNL     1       5.085   1.721  16.777  0.00  0.00    +0.000 HD
ATOM     16  H   UNL     1       1.566   3.695  17.721  0.00  0.00    +0.000 HD
ENDROOT
BRANCH  13  17
ATOM     17  C   UNL     1       1.754   7.350  19.639  0.00  0.00    +0.000 A 
ATOM     18  C   UNL     1       1.415   7.448  21.002  0.00  0.00    +0.000 A 
ATOM     19  C   UNL     1       1.083   8.672  21.571  0.00  0.00    +0.000 A 
ATOM     20  C   UNL     1       1.084   9.819  20.784  0.00  0.00    +0.000 A 
ATOM     21  C   UNL     1       1.409   9.733  19.428  0.00  0.00    +0.000 A 
ATOM     22  C   UNL     1       1.740   8.502  18.850  0.00  0.00    +0.000 A 
ENDBRANCH  13  17
BRANCH   7  23
ATOM     23  O   UNL     1       6.598   7.763  17.048  0.00  0.00    +0.000 OA
BRANCH  23  24
ATOM     24  C   UNL     1       7.833   8.109  17.658  0.00  0.00    +0.000 C 
ATOM     25  F   UNL     1       8.238   7.264  18.627  0.00  0.00    +0.000 F 
ATOM     26  F   UNL     1       8.786   8.143  16.700  0.00  0.00    +0.000 F 
ATOM     27  F   UNL     1       7.734   9.348  18.192  0.00  0.00    +0.000 F 
ENDBRANCH  23  24
ENDBRANCH   7  23
TORSDOF 3
ENDMDL
MODEL 7
REMARK VINA RESULT:      -7.5      2.996      5.865
REMARK  Name = 
REMARK  3 active torsions:
REMARK  status: ('A' for Active; 'I' for Inactive)
REMARK    1  A    between atoms: C_7  and  O_8
REMARK    2  A    between atoms: O_8  and  C_9
REMARK    3  A    between atoms: C_18  and  C_19
REMARK                            x       y       z     vdW  Elec       q    Type
REMARK                         _______ _______ _______ _____ _____    ______ ____
ROOT
ATOM      1  O   UNL     1       3.181   1.785  18.716  0.00  0.00    +0.000 OA
ATOM      2  C   UNL     1       3.770   2.750  18.249  0.00  0.00    +0.000 C 
ATOM      3  N   UNL     1       4.817   2.676  17.309  0.00  0.00    +0.000 N 
ATOM      4  C   UNL     1       5.330   3.939  17.035  0.00  0.00    +0.000 A 
ATOM      5  C   UNL     1       6.355   4.283  16.180  0.00  0.00    +0.000 A 
ATOM      6  C   UNL     1       6.781   5.622  16.175  0.00  0.00    +0.000 A 
ATOM      7  C   UNL     1       6.233   6.559  17.065  0.00  0.00    +0.000 A 
ATOM      8  C   UNL     1       5.143   6.196  17.856  0.00  0.00    +0.000 A 
ATOM      9  C   UNL     1       4.667   4.892  17.795  0.00  0.00    +0.000 A 
ATOM     10  C   UNL     1       3.443   4.253  18.408  0.00  0.00    +0.000 C 
ATOM     11  N   UNL     1       2.239   4.518  17.588  0.00  0.00    +0.000 N 
ATOM     12  N   UNL     1       1.620   5.686  17.923  0.00  0.00    +0.000 NA
ATOM     13  C   UNL     1       1.984   6.069  19.115  0.00  0.00    +0.000 C 
ATOM     14  S   UNL     1       3.001   4.924  20.010  0.00  0.00    +0.000 S 
ATOM     15  H   UNL     1       5.162   1.805  16.938  0.00  0.00    +0.000 HD
ATOM     16  H   UNL     1       1.587   3.741  17.744  0.00  0.00    +0.000 HD
ENDROOT
BRANCH  13  17
ATOM     17  C   UNL     1       1.665   7.427  19.607  0.00  0.00    +0.000 A 
ATOM     18  C   UNL     1       1.719   8.475  18.667  0.00  0.00    +0.000 A 
ATOM     19  C   UNL     1       1.483   9.791  19.048  0.00  0.00    +0.000 A 
ATOM     20  C   UNL     1       1.191  10.081  20.376  0.00  0.00    +0.000 A 
ATOM     21  C   UNL     1       1.144   9.052  21.320  0.00  0.00    +0.000 A 
ATOM     22  C   UNL     1       1.385   7.726  20.943  0.00  0.00    +0.000 A 
ENDBRANCH  13  17
BRANCH   7  23
ATOM     23  O   UNL     1       6.578   7.872  17.156  0.00  0.00    +0.000 OA
BRANCH  23  24
ATOM     24  C   UNL     1       7.838   8.241  17.697  0.00  0.00    +0.000 C 
ATOM     25  F   UNL     1       7.873   9.467  18.256  0.00  0.00    +0.000 F 
ATOM     26  F   UNL     1       8.176   7.335  18.641  0.00  0.00    +0.000 F 
ATOM     27  F   UNL     1       8.773   8.195  16.721  0.00  0.00    +0.000 F 
ENDBRANCH  23  24
ENDBRANCH   7  23
TORSDOF 3
ENDMDL
MODEL 8
REMARK VINA RESULT:      -7.4      2.390      3.029
REMARK  Name = 
REMARK  3 active torsions:
REMARK  status: ('A' for Active; 'I' for Inactive)
REMARK    1  A    between atoms: C_7  and  O_8
REMARK    2  A    between atoms: O_8  and  C_9
REMARK    3  A    between atoms: C_18  and  C_19
REMARK                            x       y       z     vdW  Elec       q    Type
REMARK                         _______ _______ _______ _____ _____    ______ ____
ROOT
ATOM      1  O   UNL     1       3.353   1.226  17.441  0.00  0.00    +0.000 OA
ATOM      2  C   UNL     1       3.051   2.184  18.138  0.00  0.00    +0.000 C 
ATOM      3  N   UNL     1       1.923   2.243  18.980  0.00  0.00    +0.000 N 
ATOM      4  C   UNL     1       1.812   3.494  19.578  0.00  0.00    +0.000 A 
ATOM      5  C   UNL     1       0.851   3.943  20.457  0.00  0.00    +0.000 A 
ATOM      6  C   UNL     1       0.880   5.301  20.820  0.00  0.00    +0.000 A 
ATOM      7  C   UNL     1       1.811   6.183  20.248  0.00  0.00    +0.000 A 
ATOM      8  C   UNL     1       2.819   5.677  19.427  0.00  0.00    +0.000 A 
ATOM      9  C   UNL     1       2.839   4.318  19.139  0.00  0.00    +0.000 A 
ATOM     10  C   UNL     1       3.861   3.472  18.417  0.00  0.00    +0.000 C 
ATOM     11  N   UNL     1       4.970   3.091  19.322  0.00  0.00    +0.000 N 
ATOM     12  N   UNL     1       5.968   4.019  19.349  0.00  0.00    +0.000 NA
ATOM     13  C   UNL     1       5.904   4.789  18.300  0.00  0.00    +0.000 C 
ATOM     14  S   UNL     1       4.699   4.327  17.084  0.00  0.00    +0.000 S 
ATOM     15  H   UNL     1       1.272   1.481  19.080  0.00  0.00    +0.000 HD
ATOM     16  H   UNL     1       5.351   2.203  18.978  0.00  0.00    +0.000 HD
ENDROOT
BRANCH  13  17
ATOM     17  C   UNL     1       6.705   6.031  18.218  0.00  0.00    +0.000 A 
ATOM     18  C   UNL     1       6.313   6.979  17.253  0.00  0.00    +0.000 A 
ATOM     19  C   UNL     1       7.034   8.153  17.069  0.00  0.00    +0.000 A 
ATOM     20  C   UNL     1       8.159   8.399  17.848  0.00  0.00    +0.000 A 
ATOM     21  C   UNL     1       8.564   7.462  18.802  0.00  0.00    +0.000 A 
ATOM     22  C   UNL     1       7.844   6.276  18.988  0.00  0.00    +0.000 A 
ENDBRANCH  13  17
BRANCH   7  23
ATOM     23  O   UNL     1       1.922   7.513  20.515  0.00  0.00    +0.000 OA
BRANCH  23  24
ATOM     24  C   UNL     1       0.836   8.211  21.109  0.00  0.00    +0.000 C 
ATOM     25  F   UNL     1       1.094   8.714  22.333  0.00  0.00    +0.000 F 
ATOM     26  F   UNL     1       0.492   9.233  20.295  0.00  0.00    +0.000 F 
ATOM     27  F   UNL     1      -0.226   7.380  21.209  0.00  0.00    +0.000 F 
ENDBRANCH  23  24
ENDBRANCH   7  23
TORSDOF 3
ENDMDL
MODEL 9
REMARK VINA RESULT:      -7.3      4.384      7.036
REMARK  Name = 
REMARK  3 active torsions:
REMARK  status: ('A' for Active; 'I' for Inactive)
REMARK    1  A    between atoms: C_7  and  O_8
REMARK    2  A    between atoms: O_8  and  C_9
REMARK    3  A    between atoms: C_18  and  C_19
REMARK                            x       y       z     vdW  Elec       q    Type
REMARK                         _______ _______ _______ _____ _____    ______ ____
ROOT
ATOM      1  O   UNL     1       7.485   7.694  18.224  0.00  0.00    +0.000 OA
ATOM      2  C   UNL     1       7.189   6.873  17.367  0.00  0.00    +0.000 C 
ATOM      3  N   UNL     1       7.927   6.635  16.191  0.00  0.00    +0.000 N 
ATOM      4  C   UNL     1       7.290   5.699  15.383  0.00  0.00    +0.000 A 
ATOM      5  C   UNL     1       7.688   5.207  14.160  0.00  0.00    +0.000 A 
ATOM      6  C   UNL     1       6.799   4.360  13.474  0.00  0.00    +0.000 A 
ATOM      7  C   UNL     1       5.520   4.088  13.985  0.00  0.00    +0.000 A 
ATOM      8  C   UNL     1       5.184   4.536  15.262  0.00  0.00    +0.000 A 
ATOM      9  C   UNL     1       6.098   5.301  15.974  0.00  0.00    +0.000 A 
ATOM     10  C   UNL     1       6.080   5.795  17.402  0.00  0.00    +0.000 C 
ATOM     11  N   UNL     1       6.538   4.742  18.336  0.00  0.00    +0.000 N 
ATOM     12  N   UNL     1       5.523   3.933  18.754  0.00  0.00    +0.000 NA
ATOM     13  C   UNL     1       4.371   4.513  18.566  0.00  0.00    +0.000 C 
ATOM     14  S   UNL     1       4.442   6.194  18.008  0.00  0.00    +0.000 S 
ATOM     15  H   UNL     1       8.776   7.128  15.966  0.00  0.00    +0.000 HD
ATOM     16  H   UNL     1       6.944   5.213  19.151  0.00  0.00    +0.000 HD
ENDROOT
BRANCH  13  17
ATOM     17  C   UNL     1       3.107   3.752  18.691  0.00  0.00    +0.000 A 
ATOM     18  C   UNL     1       3.020   2.541  17.977  0.00  0.00    +0.000 A 
ATOM     19  C   UNL     1       1.855   1.783  17.993  0.00  0.00    +0.000 A 
ATOM     20  C   UNL     1       0.757   2.224  18.723  0.00  0.00    +0.000 A 
ATOM     21  C   UNL     1       0.828   3.429  19.428  0.00  0.00    +0.000 A 
ATOM     22  C   UNL     1       1.997   4.198  19.411  0.00  0.00    +0.000 A 
ENDBRANCH  13  17
BRANCH   7  23
ATOM     23  O   UNL     1       4.579   3.298  13.402  0.00  0.00    +0.000 OA
BRANCH  23  24
ATOM     24  C   UNL     1       4.614   3.065  12.001  0.00  0.00    +0.000 C 
ATOM     25  F   UNL     1       5.372   2.016  11.625  0.00  0.00    +0.000 F 
ATOM     26  F   UNL     1       3.350   2.849  11.574  0.00  0.00    +0.000 F 
ATOM     27  F   UNL     1       5.082   4.170  11.377  0.00  0.00    +0.000 F 
ENDBRANCH  23  24
ENDBRANCH   7  23
TORSDOF 3
ENDMDL
