MODEL 1
REMARK VINA RESULT:      -6.7      0.000      0.000
REMARK  Name = 
REMARK  6 active torsions:
REMARK  status: ('A' for Active; 'I' for Inactive)
REMARK    1  A    between atoms: C_1  and  C_2
REMARK    2  A    between atoms: C_2  and  O_3
REMARK    3  A    between atoms: O_3  and  C_4
REMARK    4  A    between atoms: C_9  and  C_10
REMARK    5  A    between atoms: C_12  and  C_13
REMARK    6  A    between atoms: C_13  and  N_14
REMARK                            x       y       z     vdW  Elec       q    Type
REMARK                         _______ _______ _______ _____ _____    ______ ____
ROOT
ATOM      1  C   UNL     1       4.053   6.140  17.836  0.00  0.00    +0.000 A 
ATOM      2  N   UNL     1       3.583   5.578  18.943  0.00  0.00    +0.000 NA
ATOM      3  C   UNL     1       2.609   6.447  19.393  0.00  0.00    +0.000 A 
ATOM      4  C   UNL     1       2.541   7.522  18.537  0.00  0.00    +0.000 A 
ATOM      5  O   UNL     1       3.457   7.339  17.546  0.00  0.00    +0.000 OA
ENDROOT
BRANCH   1  11
ATOM      6  C   UNL     1       6.363   6.096  16.717  0.00  0.00    +0.000 A 
ATOM      7  C   UNL     1       7.192   5.495  15.743  0.00  0.00    +0.000 A 
ATOM      8  C   UNL     1       6.746   4.443  14.950  0.00  0.00    +0.000 A 
ATOM      9  C   UNL     1       5.465   3.949  15.124  0.00  0.00    +0.000 A 
ATOM     10  C   UNL     1       4.633   4.517  16.092  0.00  0.00    +0.000 A 
ATOM     11  C   UNL     1       5.052   5.599  16.900  0.00  0.00    +0.000 A 
BRANCH   6  12
ATOM     12  O   UNL     1       6.792   7.150  17.494  0.00  0.00    +0.000 OA
BRANCH  12  14
ATOM     13  C   UNL     1       7.644   5.799  19.313  0.00  0.00    +0.000 C 
ATOM     14  C   UNL     1       7.934   6.912  18.325  0.00  0.00    +0.000 C 
ENDBRANCH  12  14
ENDBRANCH   6  12
ENDBRANCH   1  11
BRANCH   3  15
ATOM     15  C   UNL     1       1.770   6.133  20.579  0.00  0.00    +0.000 C 
BRANCH  15  16
ATOM     16  N   UNL     1       1.687   4.704  20.825  0.00  0.00    +0.000 N 
ATOM     17  C   UNL     1       0.903   3.806  20.151  0.00  0.00    +0.000 A 
ATOM     18  C   UNL     1       1.226   2.580  20.685  0.00  0.00    +0.000 A 
ATOM     19  N   UNL     1       2.195   2.711  21.645  0.00  0.00    +0.000 NA
ATOM     20  C   UNL     1       2.459   3.997  21.704  0.00  0.00    +0.000 A 
ENDBRANCH  15  16
ENDBRANCH   3  15
TORSDOF 5
ENDMDL
MODEL 2
REMARK VINA RESULT:      -6.4      1.621      2.058
REMARK  Name = 
REMARK  6 active torsions:
REMARK  status: ('A' for Active; 'I' for Inactive)
REMARK    1  A    between atoms: C_1  and  C_2
REMARK    2  A    between atoms: C_2  and  O_3
REMARK    3  A    between atoms: O_3  and  C_4
REMARK    4  A    between atoms: C_9  and  C_10
REMARK    5  A    between atoms: C_12  and  C_13
REMARK    6  A    between atoms: C_13  and  N_14
REMARK                            x       y       z     vdW  Elec       q    Type
REMARK                         _______ _______ _______ _____ _____    ______ ____
ROOT
ATOM      1  C   UNL     1       4.531   4.584  16.367  0.00  0.00    +0.000 A 
ATOM      2  N   UNL     1       3.729   3.606  16.770  0.00  0.00    +0.000 NA
ATOM      3  C   UNL     1       2.904   4.190  17.710  0.00  0.00    +0.000 A 
ATOM      4  C   UNL     1       3.256   5.512  17.852  0.00  0.00    +0.000 A 
ATOM      5  O   UNL     1       4.291   5.773  17.004  0.00  0.00    +0.000 OA
ENDROOT
BRANCH   1  11
ATOM      6  C   UNL     1       6.849   5.097  15.393  0.00  0.00    +0.000 A 
ATOM      7  C   UNL     1       7.704   5.012  14.271  0.00  0.00    +0.000 A 
ATOM      8  C   UNL     1       7.296   4.413  13.084  0.00  0.00    +0.000 A 
ATOM      9  C   UNL     1       6.030   3.862  12.994  0.00  0.00    +0.000 A 
ATOM     10  C   UNL     1       5.174   3.920  14.097  0.00  0.00    +0.000 A 
ATOM     11  C   UNL     1       5.552   4.540  15.309  0.00  0.00    +0.000 A 
BRANCH   6  12
ATOM     12  O   UNL     1       7.240   5.706  16.566  0.00  0.00    +0.000 OA
BRANCH  12  14
ATOM     13  C   UNL     1       7.752   5.638  18.931  0.00  0.00    +0.000 C 
ATOM     14  C   UNL     1       7.596   4.841  17.650  0.00  0.00    +0.000 C 
ENDBRANCH  12  14
ENDBRANCH   6  12
ENDBRANCH   1  11
BRANCH   3  15
ATOM     15  C   UNL     1       1.792   3.439  18.347  0.00  0.00    +0.000 C 
BRANCH  15  16
ATOM     16  N   UNL     1       2.049   3.170  19.751  0.00  0.00    +0.000 N 
ATOM     17  C   UNL     1       1.149   3.274  20.778  0.00  0.00    +0.000 A 
ATOM     18  C   UNL     1       1.831   2.843  21.893  0.00  0.00    +0.000 A 
ATOM     19  N   UNL     1       3.106   2.464  21.564  0.00  0.00    +0.000 NA
ATOM     20  C   UNL     1       3.208   2.664  20.269  0.00  0.00    +0.000 A 
ENDBRANCH  15  16
ENDBRANCH   3  15
TORSDOF 5
ENDMDL
MODEL 3
REMARK VINA RESULT:      -6.4      2.333      6.195
REMARK  Name = 
REMARK  6 active torsions:
REMARK  status: ('A' for Active; 'I' for Inactive)
REMARK    1  A    between atoms: C_1  and  C_2
REMARK    2  A    between atoms: C_2  and  O_3
REMARK    3  A    between atoms: O_3  and  C_4
REMARK    4  A    between atoms: C_9  and  C_10
REMARK    5  A    between atoms: C_12  and  C_13
REMARK    6  A    between atoms: C_13  and  N_14
REMARK                            x       y       z     vdW  Elec       q    Type
REMARK                         _______ _______ _______ _____ _____    ______ ____
ROOT
ATOM      1  C   UNL     1       4.297   3.788  18.496  0.00  0.00    +0.000 A 
ATOM      2  N   UNL     1       5.559   4.116  18.742  0.00  0.00    +0.000 NA
ATOM      3  C   UNL     1       6.151   4.199  17.497  0.00  0.00    +0.000 A 
ATOM      4  C   UNL     1       5.214   3.895  16.537  0.00  0.00    +0.000 A 
ATOM      5  O   UNL     1       4.033   3.629  17.161  0.00  0.00    +0.000 OA
ENDROOT
BRANCH   1  11
ATOM      6  C   UNL     1       2.063   4.495  19.542  0.00  0.00    +0.000 A 
ATOM      7  C   UNL     1       1.106   4.260  20.555  0.00  0.00    +0.000 A 
ATOM      8  C   UNL     1       1.257   3.232  21.480  0.00  0.00    +0.000 A 
ATOM      9  C   UNL     1       2.359   2.397  21.404  0.00  0.00    +0.000 A 
ATOM     10  C   UNL     1       3.310   2.603  20.401  0.00  0.00    +0.000 A 
ATOM     11  C   UNL     1       3.193   3.650  19.458  0.00  0.00    +0.000 A 
BRANCH   6  12
ATOM     12  O   UNL     1       1.929   5.522  18.633  0.00  0.00    +0.000 OA
BRANCH  12  14
ATOM     13  C   UNL     1       3.348   7.309  17.828  0.00  0.00    +0.000 C 
ATOM     14  C   UNL     1       2.529   6.773  18.986  0.00  0.00    +0.000 C 
ENDBRANCH  12  14
ENDBRANCH   6  12
ENDBRANCH   1  11
BRANCH   3  15
ATOM     15  C   UNL     1       7.562   4.634  17.331  0.00  0.00    +0.000 C 
BRANCH  15  16
ATOM     16  N   UNL     1       7.732   6.051  17.605  0.00  0.00    +0.000 N 
ATOM     17  C   UNL     1       7.301   7.088  16.822  0.00  0.00    +0.000 A 
ATOM     18  C   UNL     1       7.619   8.225  17.531  0.00  0.00    +0.000 A 
ATOM     19  N   UNL     1       8.210   7.901  18.724  0.00  0.00    +0.000 NA
ATOM     20  C   UNL     1       8.259   6.588  18.746  0.00  0.00    +0.000 A 
ENDBRANCH  15  16
ENDBRANCH   3  15
TORSDOF 5
ENDMDL
MODEL 4
REMARK VINA RESULT:      -6.3      2.378      6.314
REMARK  Name = 
REMARK  6 active torsions:
REMARK  status: ('A' for Active; 'I' for Inactive)
REMARK    1  A    between atoms: C_1  and  C_2
REMARK    2  A    between atoms: C_2  and  O_3
REMARK    3  A    between atoms: O_3  and  C_4
REMARK    4  A    between atoms: C_9  and  C_10
REMARK    5  A    between atoms: C_12  and  C_13
REMARK    6  A    between atoms: C_13  and  N_14
REMARK                            x       y       z     vdW  Elec       q    Type
REMARK                         _______ _______ _______ _____ _____    ______ ____
ROOT
ATOM      1  C   UNL     1       3.763   6.067  18.460  0.00  0.00    +0.000 A 
ATOM      2  N   UNL     1       3.913   5.476  17.281  0.00  0.00    +0.000 NA
ATOM      3  C   UNL     1       4.811   4.454  17.511  0.00  0.00    +0.000 A 
ATOM      4  C   UNL     1       5.187   4.479  18.834  0.00  0.00    +0.000 A 
ATOM      5  O   UNL     1       4.528   5.503  19.446  0.00  0.00    +0.000 OA
ENDROOT
BRANCH   1  11
ATOM      6  C   UNL     1       2.025   7.218  19.958  0.00  0.00    +0.000 A 
ATOM      7  C   UNL     1       1.168   8.327  20.134  0.00  0.00    +0.000 A 
ATOM      8  C   UNL     1       1.103   9.359  19.202  0.00  0.00    +0.000 A 
ATOM      9  C   UNL     1       1.912   9.319  18.079  0.00  0.00    +0.000 A 
ATOM     10  C   UNL     1       2.778   8.239  17.892  0.00  0.00    +0.000 A 
ATOM     11  C   UNL     1       2.852   7.168  18.812  0.00  0.00    +0.000 A 
BRANCH   6  12
ATOM     12  O   UNL     1       2.081   6.185  20.867  0.00  0.00    +0.000 OA
BRANCH  12  14
ATOM     13  C   UNL     1       1.902   3.791  21.177  0.00  0.00    +0.000 C 
ATOM     14  C   UNL     1       1.274   5.037  20.584  0.00  0.00    +0.000 C 
ENDBRANCH  12  14
ENDBRANCH   6  12
ENDBRANCH   1  11
BRANCH   3  15
ATOM     15  C   UNL     1       5.184   3.487  16.445  0.00  0.00    +0.000 C 
BRANCH  15  16
ATOM     16  N   UNL     1       6.083   4.073  15.467  0.00  0.00    +0.000 N 
ATOM     17  C   UNL     1       6.000   3.947  14.106  0.00  0.00    +0.000 A 
ATOM     18  C   UNL     1       7.013   4.737  13.613  0.00  0.00    +0.000 A 
ATOM     19  N   UNL     1       7.691   5.349  14.635  0.00  0.00    +0.000 NA
ATOM     20  C   UNL     1       7.106   4.938  15.738  0.00  0.00    +0.000 A 
ENDBRANCH  15  16
ENDBRANCH   3  15
TORSDOF 5
ENDMDL
MODEL 5
REMARK VINA RESULT:      -6.3      2.758      6.382
REMARK  Name = 
REMARK  6 active torsions:
REMARK  status: ('A' for Active; 'I' for Inactive)
REMARK    1  A    between atoms: C_1  and  C_2
REMARK    2  A    between atoms: C_2  and  O_3
REMARK    3  A    between atoms: O_3  and  C_4
REMARK    4  A    between atoms: C_9  and  C_10
REMARK    5  A    between atoms: C_12  and  C_13
REMARK    6  A    between atoms: C_13  and  N_14
REMARK                            x       y       z     vdW  Elec       q    Type
REMARK                         _______ _______ _______ _____ _____    ______ ____
ROOT
ATOM      1  C   UNL     1       4.601   4.504  18.068  0.00  0.00    +0.000 A 
ATOM      2  N   UNL     1       4.870   5.161  16.947  0.00  0.00    +0.000 NA
ATOM      3  C   UNL     1       6.249   5.169  16.865  0.00  0.00    +0.000 A 
ATOM      4  C   UNL     1       6.764   4.523  17.965  0.00  0.00    +0.000 A 
ATOM      5  O   UNL     1       5.725   4.098  18.738  0.00  0.00    +0.000 OA
ENDROOT
BRANCH   1  11
ATOM      6  C   UNL     1       2.518   4.885  19.518  0.00  0.00    +0.000 A 
ATOM      7  C   UNL     1       1.286   4.365  19.975  0.00  0.00    +0.000 A 
ATOM      8  C   UNL     1       0.816   3.123  19.560  0.00  0.00    +0.000 A 
ATOM      9  C   UNL     1       1.556   2.376  18.660  0.00  0.00    +0.000 A 
ATOM     10  C   UNL     1       2.770   2.877  18.184  0.00  0.00    +0.000 A 
ATOM     11  C   UNL     1       3.282   4.127  18.602  0.00  0.00    +0.000 A 
BRANCH   6  12
ATOM     12  O   UNL     1       2.998   6.106  19.939  0.00  0.00    +0.000 OA
BRANCH  12  14
ATOM     13  C   UNL     1       2.421   7.686  18.199  0.00  0.00    +0.000 C 
ATOM     14  C   UNL     1       2.195   7.251  19.633  0.00  0.00    +0.000 C 
ENDBRANCH  12  14
ENDBRANCH   6  12
ENDBRANCH   1  11
BRANCH   3  15
ATOM     15  C   UNL     1       6.958   5.741  15.692  0.00  0.00    +0.000 C 
BRANCH  15  16
ATOM     16  N   UNL     1       6.810   4.913  14.508  0.00  0.00    +0.000 N 
ATOM     17  C   UNL     1       5.930   3.877  14.344  0.00  0.00    +0.000 A 
ATOM     18  C   UNL     1       6.108   3.461  13.044  0.00  0.00    +0.000 A 
ATOM     19  N   UNL     1       7.055   4.228  12.416  0.00  0.00    +0.000 NA
ATOM     20  C   UNL     1       7.455   5.098  13.317  0.00  0.00    +0.000 A 
ENDBRANCH  15  16
ENDBRANCH   3  15
TORSDOF 5
ENDMDL
MODEL 6
REMARK VINA RESULT:      -6.2      3.494      5.439
REMARK  Name = 
REMARK  6 active torsions:
REMARK  status: ('A' for Active; 'I' for Inactive)
REMARK    1  A    between atoms: C_1  and  C_2
REMARK    2  A    between atoms: C_2  and  O_3
REMARK    3  A    between atoms: O_3  and  C_4
REMARK    4  A    between atoms: C_9  and  C_10
REMARK    5  A    between atoms: C_12  and  C_13
REMARK    6  A    between atoms: C_13  and  N_14
REMARK                            x       y       z     vdW  Elec       q    Type
REMARK                         _______ _______ _______ _____ _____    ______ ____
ROOT
ATOM      1  C   UNL     1       2.504   7.202  18.453  0.00  0.00    +0.000 A 
ATOM      2  N   UNL     1       2.073   8.302  17.847  0.00  0.00    +0.000 NA
ATOM      3  C   UNL     1       1.537   9.075  18.857  0.00  0.00    +0.000 A 
ATOM      4  C   UNL     1       1.651   8.394  20.047  0.00  0.00    +0.000 A 
ATOM      5  O   UNL     1       2.261   7.201  19.802  0.00  0.00    +0.000 OA
ENDROOT
BRANCH   1  11
ATOM      6  C   UNL     1       2.744   4.756  17.717  0.00  0.00    +0.000 A 
ATOM      7  C   UNL     1       3.591   3.764  17.171  0.00  0.00    +0.000 A 
ATOM      8  C   UNL     1       4.900   4.046  16.794  0.00  0.00    +0.000 A 
ATOM      9  C   UNL     1       5.391   5.333  16.932  0.00  0.00    +0.000 A 
ATOM     10  C   UNL     1       4.566   6.332  17.454  0.00  0.00    +0.000 A 
ATOM     11  C   UNL     1       3.239   6.072  17.864  0.00  0.00    +0.000 A 
BRANCH   6  12
ATOM     12  O   UNL     1       1.453   4.479  18.109  0.00  0.00    +0.000 OA
BRANCH  12  14
ATOM     13  C   UNL     1       1.079   3.927  20.436  0.00  0.00    +0.000 C 
ATOM     14  C   UNL     1       1.280   3.397  19.030  0.00  0.00    +0.000 C 
ENDBRANCH  12  14
ENDBRANCH   6  12
ENDBRANCH   1  11
BRANCH   3  15
ATOM     15  C   UNL     1       1.018  10.444  18.601  0.00  0.00    +0.000 C 
BRANCH  15  16
ATOM     16  N   UNL     1       0.471  11.053  19.800  0.00  0.00    +0.000 N 
ATOM     17  C   UNL     1      -0.778  10.843  20.323  0.00  0.00    +0.000 A 
ATOM     18  C   UNL     1      -0.801  11.569  21.492  0.00  0.00    +0.000 A 
ATOM     19  N   UNL     1       0.402  12.192  21.698  0.00  0.00    +0.000 NA
ATOM     20  C   UNL     1       1.150  11.859  20.671  0.00  0.00    +0.000 A 
ENDBRANCH  15  16
ENDBRANCH   3  15
TORSDOF 5
ENDMDL
MODEL 7
REMARK VINA RESULT:      -6.2      3.569      5.081
REMARK  Name = 
REMARK  6 active torsions:
REMARK  status: ('A' for Active; 'I' for Inactive)
REMARK    1  A    between atoms: C_1  and  C_2
REMARK    2  A    between atoms: C_2  and  O_3
REMARK    3  A    between atoms: O_3  and  C_4
REMARK    4  A    between atoms: C_9  and  C_10
REMARK    5  A    between atoms: C_12  and  C_13
REMARK    6  A    between atoms: C_13  and  N_14
REMARK                            x       y       z     vdW  Elec       q    Type
REMARK                         _______ _______ _______ _____ _____    ______ ____
ROOT
ATOM      1  C   UNL     1       2.536   7.277  18.310  0.00  0.00    +0.000 A 
ATOM      2  N   UNL     1       1.903   7.755  19.374  0.00  0.00    +0.000 NA
ATOM      3  C   UNL     1       1.605   9.063  19.049  0.00  0.00    +0.000 A 
ATOM      4  C   UNL     1       2.092   9.331  17.791  0.00  0.00    +0.000 A 
ATOM      5  O   UNL     1       2.689   8.203  17.313  0.00  0.00    +0.000 OA
ENDROOT
BRANCH   1  11
ATOM      6  C   UNL     1       4.359   5.494  18.014  0.00  0.00    +0.000 A 
ATOM      7  C   UNL     1       4.652   4.140  17.738  0.00  0.00    +0.000 A 
ATOM      8  C   UNL     1       3.647   3.204  17.511  0.00  0.00    +0.000 A 
ATOM      9  C   UNL     1       2.321   3.594  17.575  0.00  0.00    +0.000 A 
ATOM     10  C   UNL     1       2.008   4.925  17.862  0.00  0.00    +0.000 A 
ATOM     11  C   UNL     1       3.007   5.902  18.078  0.00  0.00    +0.000 A 
BRANCH   6  12
ATOM     12  O   UNL     1       5.349   6.429  18.222  0.00  0.00    +0.000 OA
BRANCH  12  14
ATOM     13  C   UNL     1       7.493   7.283  17.492  0.00  0.00    +0.000 C 
ATOM     14  C   UNL     1       6.108   6.825  17.075  0.00  0.00    +0.000 C 
ENDBRANCH  12  14
ENDBRANCH   6  12
ENDBRANCH   1  11
BRANCH   3  15
ATOM     15  C   UNL     1       0.809   9.931  19.955  0.00  0.00    +0.000 C 
BRANCH  15  16
ATOM     16  N   UNL     1      -0.054  10.840  19.221  0.00  0.00    +0.000 N 
ATOM     17  C   UNL     1      -1.284  10.547  18.695  0.00  0.00    +0.000 A 
ATOM     18  C   UNL     1      -1.739  11.736  18.171  0.00  0.00    +0.000 A 
ATOM     19  N   UNL     1      -0.828  12.738  18.384  0.00  0.00    +0.000 NA
ATOM     20  C   UNL     1       0.171  12.174  19.024  0.00  0.00    +0.000 A 
ENDBRANCH  15  16
ENDBRANCH   3  15
TORSDOF 5
ENDMDL
MODEL 8
REMARK VINA RESULT:      -6.2      3.557      5.591
REMARK  Name = 
REMARK  6 active torsions:
REMARK  status: ('A' for Active; 'I' for Inactive)
REMARK    1  A    between atoms: C_1  and  C_2
REMARK    2  A    between atoms: C_2  and  O_3
REMARK    3  A    between atoms: O_3  and  C_4
REMARK    4  A    between atoms: C_9  and  C_10
REMARK    5  A    between atoms: C_12  and  C_13
REMARK    6  A    between atoms: C_13  and  N_14
REMARK                            x       y       z     vdW  Elec       q    Type
REMARK                         _______ _______ _______ _____ _____    ______ ____
ROOT
ATOM      1  C   UNL     1       2.506   7.374  18.438  0.00  0.00    +0.000 A 
ATOM      2  N   UNL     1       2.146   8.510  17.854  0.00  0.00    +0.000 NA
ATOM      3  C   UNL     1       1.519   9.234  18.849  0.00  0.00    +0.000 A 
ATOM      4  C   UNL     1       1.510   8.489  20.005  0.00  0.00    +0.000 A 
ATOM      5  O   UNL     1       2.132   7.303  19.754  0.00  0.00    +0.000 OA
ENDROOT
BRANCH   1  11
ATOM      6  C   UNL     1       2.840   4.933  17.718  0.00  0.00    +0.000 A 
ATOM      7  C   UNL     1       3.726   3.970  17.185  0.00  0.00    +0.000 A 
ATOM      8  C   UNL     1       5.027   4.297  16.816  0.00  0.00    +0.000 A 
ATOM      9  C   UNL     1       5.470   5.602  16.949  0.00  0.00    +0.000 A 
ATOM     10  C   UNL     1       4.606   6.573  17.459  0.00  0.00    +0.000 A 
ATOM     11  C   UNL     1       3.285   6.267  17.861  0.00  0.00    +0.000 A 
BRANCH   6  12
ATOM     12  O   UNL     1       1.557   4.613  18.103  0.00  0.00    +0.000 OA
BRANCH  12  14
ATOM     13  C   UNL     1       0.832   2.437  18.879  0.00  0.00    +0.000 C 
ATOM     14  C   UNL     1       1.423   3.781  19.261  0.00  0.00    +0.000 C 
ENDBRANCH  12  14
ENDBRANCH   6  12
ENDBRANCH   1  11
BRANCH   3  15
ATOM     15  C   UNL     1       1.040  10.622  18.620  0.00  0.00    +0.000 C 
BRANCH  15  16
ATOM     16  N   UNL     1      -0.405  10.685  18.482  0.00  0.00    +0.000 N 
ATOM     17  C   UNL     1      -1.246  11.558  19.118  0.00  0.00    +0.000 A 
ATOM     18  C   UNL     1      -2.495  11.283  18.610  0.00  0.00    +0.000 A 
ATOM     19  N   UNL     1      -2.427  10.285  17.673  0.00  0.00    +0.000 NA
ATOM     20  C   UNL     1      -1.158   9.949  17.611  0.00  0.00    +0.000 A 
ENDBRANCH  15  16
ENDBRANCH   3  15
TORSDOF 5
ENDMDL
MODEL 9
REMARK VINA RESULT:      -6.2      1.634      2.042
REMARK  Name = 
REMARK  6 active torsions:
REMARK  status: ('A' for Active; 'I' for Inactive)
REMARK    1  A    between atoms: C_1  and  C_2
REMARK    2  A    between atoms: C_2  and  O_3
REMARK    3  A    between atoms: O_3  and  C_4
REMARK    4  A    between atoms: C_9  and  C_10
REMARK    5  A    between atoms: C_12  and  C_13
REMARK    6  A    between atoms: C_13  and  N_14
REMARK                            x       y       z     vdW  Elec       q    Type
REMARK                         _______ _______ _______ _____ _____    ______ ____
ROOT
ATOM      1  C   UNL     1       5.404   4.658  17.224  0.00  0.00    +0.000 A 
ATOM      2  N   UNL     1       4.214   5.116  17.594  0.00  0.00    +0.000 NA
ATOM      3  C   UNL     1       4.208   5.010  18.970  0.00  0.00    +0.000 A 
ATOM      4  C   UNL     1       5.404   4.469  19.381  0.00  0.00    +0.000 A 
ATOM      5  O   UNL     1       6.171   4.238  18.279  0.00  0.00    +0.000 OA
ENDROOT
BRANCH   1  11
ATOM      6  C   UNL     1       7.103   5.359  15.432  0.00  0.00    +0.000 A 
ATOM      7  C   UNL     1       7.509   5.251  14.083  0.00  0.00    +0.000 A 
ATOM      8  C   UNL     1       6.821   4.453  13.174  0.00  0.00    +0.000 A 
ATOM      9  C   UNL     1       5.722   3.725  13.594  0.00  0.00    +0.000 A 
ATOM     10  C   UNL     1       5.313   3.805  14.928  0.00  0.00    +0.000 A 
ATOM     11  C   UNL     1       5.979   4.621  15.870  0.00  0.00    +0.000 A 
BRANCH   6  12
ATOM     12  O   UNL     1       7.768   6.161  16.334  0.00  0.00    +0.000 OA
BRANCH  12  14
ATOM     13  C   UNL     1       7.899   8.059  17.829  0.00  0.00    +0.000 C 
ATOM     14  C   UNL     1       7.070   7.323  16.795  0.00  0.00    +0.000 C 
ENDBRANCH  12  14
ENDBRANCH   6  12
ENDBRANCH   1  11
BRANCH   3  15
ATOM     15  C   UNL     1       3.070   5.507  19.787  0.00  0.00    +0.000 C 
BRANCH  15  16
ATOM     16  N   UNL     1       2.185   4.433  20.199  0.00  0.00    +0.000 N 
ATOM     17  C   UNL     1       1.303   3.753  19.401  0.00  0.00    +0.000 A 
ATOM     18  C   UNL     1       0.757   2.788  20.216  0.00  0.00    +0.000 A 
ATOM     19  N   UNL     1       1.298   2.853  21.474  0.00  0.00    +0.000 NA
ATOM     20  C   UNL     1       2.158   3.846  21.433  0.00  0.00    +0.000 A 
ENDBRANCH  15  16
ENDBRANCH   3  15
TORSDOF 5
ENDMDL
