MODEL 1
REMARK VINA RESULT:      -7.6      0.000      0.000
REMARK  Name = 
REMARK  4 active torsions:
REMARK  status: ('A' for Active; 'I' for Inactive)
REMARK    1  A    between atoms: C_1  and  C_2
REMARK    2  A    between atoms: C_2  and  N_3
REMARK    3  A    between atoms: C_4  and  C_6
REMARK    4  A    between atoms: C_9  and  N_10
REMARK                            x       y       z     vdW  Elec       q    Type
REMARK                         _______ _______ _______ _____ _____    ______ ____
ROOT
ATOM      1  C   UNL     1       6.473   4.477  15.892  0.00  0.00    +0.000 A 
ATOM      2  C   UNL     1       7.272   4.770  16.984  0.00  0.00    +0.000 A 
ATOM      3  C   UNL     1       6.549   4.762  18.215  0.00  0.00    +0.000 A 
ATOM      4  C   UNL     1       5.229   4.432  18.015  0.00  0.00    +0.000 A 
ATOM      5  S   UNL     1       4.883   4.068  16.394  0.00  0.00    +0.000 S 
ENDROOT
BRANCH   4   6
ATOM      6  N   UNL     1       4.198   4.389  18.962  0.00  0.00    +0.000 N 
ATOM      7  C   UNL     1       3.770   3.286  19.680  0.00  0.00    +0.000 A 
ATOM      8  N   UNL     1       2.826   3.569  20.549  0.00  0.00    +0.000 NA
ATOM      9  C   UNL     1       2.563   4.897  20.362  0.00  0.00    +0.000 A 
ATOM     10  C   UNL     1       1.602   5.697  20.999  0.00  0.00    +0.000 A 
ATOM     11  C   UNL     1       1.459   7.022  20.583  0.00  0.00    +0.000 A 
ATOM     12 CL   UNL     1       0.267   8.018  21.328  0.00  0.00    +0.000 Cl
ATOM     13  C   UNL     1       2.246   7.547  19.561  0.00  0.00    +0.000 A 
ATOM     14  C   UNL     1       3.223   6.767  18.933  0.00  0.00    +0.000 A 
ATOM     15  C   UNL     1       3.379   5.440  19.370  0.00  0.00    +0.000 A 
ENDBRANCH   4   6
BRANCH   1  17
ATOM     16  N   UNL     1       6.264   3.539  13.690  0.00  0.00    +0.000 N 
ATOM     17  C   UNL     1       6.875   4.484  14.491  0.00  0.00    +0.000 C 
ATOM     18  O   UNL     1       7.686   5.288  14.038  0.00  0.00    +0.000 OA
ATOM     19  H   UNL     1       5.551   2.955  14.109  0.00  0.00    +0.000 HD
BRANCH  16  21
ATOM     20  C   UNL     1       5.302   2.859  11.541  0.00  0.00    +0.000 C 
ATOM     21  C   UNL     1       6.497   3.447  12.268  0.00  0.00    +0.000 C 
ENDBRANCH  16  21
ENDBRANCH   1  17
TORSDOF 3
ENDMDL
MODEL 2
REMARK VINA RESULT:      -7.6      1.761      2.469
REMARK  Name = 
REMARK  4 active torsions:
REMARK  status: ('A' for Active; 'I' for Inactive)
REMARK    1  A    between atoms: C_1  and  C_2
REMARK    2  A    between atoms: C_2  and  N_3
REMARK    3  A    between atoms: C_4  and  C_6
REMARK    4  A    between atoms: C_9  and  N_10
REMARK                            x       y       z     vdW  Elec       q    Type
REMARK                         _______ _______ _______ _____ _____    ______ ____
ROOT
ATOM      1  C   UNL     1       6.491   5.150  15.567  0.00  0.00    +0.000 A 
ATOM      2  C   UNL     1       7.197   5.826  16.547  0.00  0.00    +0.000 A 
ATOM      3  C   UNL     1       6.414   6.087  17.712  0.00  0.00    +0.000 A 
ATOM      4  C   UNL     1       5.146   5.571  17.585  0.00  0.00    +0.000 A 
ATOM      5  S   UNL     1       4.925   4.727  16.129  0.00  0.00    +0.000 S 
ENDROOT
BRANCH   4   6
ATOM      6  N   UNL     1       4.075   5.684  18.480  0.00  0.00    +0.000 N 
ATOM      7  C   UNL     1       3.331   6.819  18.751  0.00  0.00    +0.000 A 
ATOM      8  N   UNL     1       2.342   6.602  19.588  0.00  0.00    +0.000 NA
ATOM      9  C   UNL     1       2.466   5.288  19.945  0.00  0.00    +0.000 A 
ATOM     10  C   UNL     1       1.694   4.552  20.857  0.00  0.00    +0.000 A 
ATOM     11  C   UNL     1       2.059   3.232  21.123  0.00  0.00    +0.000 A 
ATOM     12 CL   UNL     1       1.146   2.314  22.260  0.00  0.00    +0.000 Cl
ATOM     13  C   UNL     1       3.164   2.649  20.506  0.00  0.00    +0.000 A 
ATOM     14  C   UNL     1       3.928   3.365  19.578  0.00  0.00    +0.000 A 
ATOM     15  C   UNL     1       3.543   4.686  19.295  0.00  0.00    +0.000 A 
ENDBRANCH   4   6
BRANCH   1  17
ATOM     16  N   UNL     1       6.315   3.748  13.624  0.00  0.00    +0.000 N 
ATOM     17  C   UNL     1       6.965   4.803  14.233  0.00  0.00    +0.000 C 
ATOM     18  O   UNL     1       7.867   5.419  13.670  0.00  0.00    +0.000 OA
ATOM     19  H   UNL     1       5.531   3.331  14.112  0.00  0.00    +0.000 HD
BRANCH  16  21
ATOM     20  C   UNL     1       5.425   2.621  11.638  0.00  0.00    +0.000 C 
ATOM     21  C   UNL     1       6.613   3.313  12.279  0.00  0.00    +0.000 C 
ENDBRANCH  16  21
ENDBRANCH   1  17
TORSDOF 3
ENDMDL
MODEL 3
REMARK VINA RESULT:      -6.8      3.127      4.477
REMARK  Name = 
REMARK  4 active torsions:
REMARK  status: ('A' for Active; 'I' for Inactive)
REMARK    1  A    between atoms: C_1  and  C_2
REMARK    2  A    between atoms: C_2  and  N_3
REMARK    3  A    between atoms: C_4  and  C_6
REMARK    4  A    between atoms: C_9  and  N_10
REMARK                            x       y       z     vdW  Elec       q    Type
REMARK                         _______ _______ _______ _____ _____    ______ ____
ROOT
ATOM      1  C   UNL     1       4.364   5.599  18.321  0.00  0.00    +0.000 A 
ATOM      2  C   UNL     1       3.584   5.152  19.374  0.00  0.00    +0.000 A 
ATOM      3  C   UNL     1       2.570   6.085  19.745  0.00  0.00    +0.000 A 
ATOM      4  C   UNL     1       2.597   7.198  18.937  0.00  0.00    +0.000 A 
ATOM      5  S   UNL     1       3.768   7.089  17.714  0.00  0.00    +0.000 S 
ENDROOT
BRANCH   4   6
ATOM      6  N   UNL     1       1.812   8.353  19.033  0.00  0.00    +0.000 N 
ATOM      7  C   UNL     1       1.526   9.254  18.023  0.00  0.00    +0.000 A 
ATOM      8  N   UNL     1       0.702  10.207  18.397  0.00  0.00    +0.000 NA
ATOM      9  C   UNL     1       0.477   9.975  19.725  0.00  0.00    +0.000 A 
ATOM     10  C   UNL     1      -0.293  10.727  20.626  0.00  0.00    +0.000 A 
ATOM     11  C   UNL     1      -0.313  10.339  21.967  0.00  0.00    +0.000 A 
ATOM     12 CL   UNL     1      -1.227  11.261  23.100  0.00  0.00    +0.000 Cl
ATOM     13  C   UNL     1       0.412   9.236  22.410  0.00  0.00    +0.000 A 
ATOM     14  C   UNL     1       1.165   8.465  21.518  0.00  0.00    +0.000 A 
ATOM     15  C   UNL     1       1.164   8.844  20.165  0.00  0.00    +0.000 A 
ENDBRANCH   4   6
BRANCH   1  17
ATOM     16  N   UNL     1       5.674   5.041  16.387  0.00  0.00    +0.000 N 
ATOM     17  C   UNL     1       5.529   4.931  17.755  0.00  0.00    +0.000 C 
ATOM     18  O   UNL     1       6.348   4.327  18.446  0.00  0.00    +0.000 OA
ATOM     19  H   UNL     1       5.005   5.613  15.885  0.00  0.00    +0.000 HD
BRANCH  16  21
ATOM     20  C   UNL     1       6.411   4.022  14.283  0.00  0.00    +0.000 C 
ATOM     21  C   UNL     1       6.803   4.496  15.670  0.00  0.00    +0.000 C 
ENDBRANCH  16  21
ENDBRANCH   1  17
TORSDOF 3
ENDMDL
MODEL 4
REMARK VINA RESULT:      -6.7      1.957      2.510
REMARK  Name = 
REMARK  4 active torsions:
REMARK  status: ('A' for Active; 'I' for Inactive)
REMARK    1  A    between atoms: C_1  and  C_2
REMARK    2  A    between atoms: C_2  and  N_3
REMARK    3  A    between atoms: C_4  and  C_6
REMARK    4  A    between atoms: C_9  and  N_10
REMARK                            x       y       z     vdW  Elec       q    Type
REMARK                         _______ _______ _______ _____ _____    ______ ____
ROOT
ATOM      1  C   UNL     1       5.240   4.941  16.160  0.00  0.00    +0.000 A 
ATOM      2  C   UNL     1       4.498   3.852  16.585  0.00  0.00    +0.000 A 
ATOM      3  C   UNL     1       3.544   4.191  17.591  0.00  0.00    +0.000 A 
ATOM      4  C   UNL     1       3.575   5.537  17.874  0.00  0.00    +0.000 A 
ATOM      5  S   UNL     1       4.676   6.385  16.898  0.00  0.00    +0.000 S 
ENDROOT
BRANCH   4   6
ATOM      6  N   UNL     1       2.845   6.231  18.845  0.00  0.00    +0.000 N 
ATOM      7  C   UNL     1       2.464   5.768  20.092  0.00  0.00    +0.000 A 
ATOM      8  N   UNL     1       1.845   6.674  20.814  0.00  0.00    +0.000 NA
ATOM      9  C   UNL     1       1.746   7.766  19.998  0.00  0.00    +0.000 A 
ATOM     10  C   UNL     1       1.127   8.999  20.256  0.00  0.00    +0.000 A 
ATOM     11  C   UNL     1       1.081   9.946  19.232  0.00  0.00    +0.000 A 
ATOM     12 CL   UNL     1       0.301  11.457  19.513  0.00  0.00    +0.000 Cl
ATOM     13  C   UNL     1       1.632   9.685  17.980  0.00  0.00    +0.000 A 
ATOM     14  C   UNL     1       2.273   8.469  17.717  0.00  0.00    +0.000 A 
ATOM     15  C   UNL     1       2.337   7.526  18.758  0.00  0.00    +0.000 A 
ENDBRANCH   4   6
BRANCH   1  17
ATOM     16  N   UNL     1       6.092   4.293  14.010  0.00  0.00    +0.000 N 
ATOM     17  C   UNL     1       6.345   4.926  15.211  0.00  0.00    +0.000 C 
ATOM     18  O   UNL     1       7.427   5.460  15.445  0.00  0.00    +0.000 OA
ATOM     19  H   UNL     1       5.157   3.938  13.851  0.00  0.00    +0.000 HD
BRANCH  16  21
ATOM     20  C   UNL     1       6.653   3.230  11.874  0.00  0.00    +0.000 C 
ATOM     21  C   UNL     1       7.052   4.241  12.932  0.00  0.00    +0.000 C 
ENDBRANCH  16  21
ENDBRANCH   1  17
TORSDOF 3
ENDMDL
MODEL 5
REMARK VINA RESULT:      -6.7      1.281      1.585
REMARK  Name = 
REMARK  4 active torsions:
REMARK  status: ('A' for Active; 'I' for Inactive)
REMARK    1  A    between atoms: C_1  and  C_2
REMARK    2  A    between atoms: C_2  and  N_3
REMARK    3  A    between atoms: C_4  and  C_6
REMARK    4  A    between atoms: C_9  and  N_10
REMARK                            x       y       z     vdW  Elec       q    Type
REMARK                         _______ _______ _______ _____ _____    ______ ____
ROOT
ATOM      1  C   UNL     1       6.440   4.323  14.556  0.00  0.00    +0.000 A 
ATOM      2  C   UNL     1       7.388   4.896  15.386  0.00  0.00    +0.000 A 
ATOM      3  C   UNL     1       6.874   5.203  16.682  0.00  0.00    +0.000 A 
ATOM      4  C   UNL     1       5.558   4.822  16.799  0.00  0.00    +0.000 A 
ATOM      5  S   UNL     1       4.975   4.047  15.407  0.00  0.00    +0.000 S 
ENDROOT
BRANCH   4   6
ATOM      6  N   UNL     1       4.696   5.019  17.885  0.00  0.00    +0.000 N 
ATOM      7  C   UNL     1       4.455   4.143  18.929  0.00  0.00    +0.000 A 
ATOM      8  N   UNL     1       3.647   4.634  19.841  0.00  0.00    +0.000 NA
ATOM      9  C   UNL     1       3.279   5.860  19.361  0.00  0.00    +0.000 A 
ATOM     10  C   UNL     1       2.387   6.788  19.920  0.00  0.00    +0.000 A 
ATOM     11  C   UNL     1       2.102   7.951  19.204  0.00  0.00    +0.000 A 
ATOM     12 CL   UNL     1       0.988   9.093  19.855  0.00  0.00    +0.000 Cl
ATOM     13  C   UNL     1       2.682   8.195  17.962  0.00  0.00    +0.000 A 
ATOM     14  C   UNL     1       3.591   7.289  17.403  0.00  0.00    +0.000 A 
ATOM     15  C   UNL     1       3.893   6.130  18.138  0.00  0.00    +0.000 A 
ENDBRANCH   4   6
BRANCH   1  17
ATOM     16  N   UNL     1       5.900   2.864  12.727  0.00  0.00    +0.000 N 
ATOM     17  C   UNL     1       6.610   3.968  13.153  0.00  0.00    +0.000 C 
ATOM     18  O   UNL     1       7.319   4.617  12.387  0.00  0.00    +0.000 OA
ATOM     19  H   UNL     1       5.278   2.417  13.389  0.00  0.00    +0.000 HD
BRANCH  16  21
ATOM     20  C   UNL     1       6.368   0.971  11.242  0.00  0.00    +0.000 C 
ATOM     21  C   UNL     1       5.903   2.410  11.355  0.00  0.00    +0.000 C 
ENDBRANCH  16  21
ENDBRANCH   1  17
TORSDOF 3
ENDMDL
MODEL 6
REMARK VINA RESULT:      -6.6      2.057      2.756
REMARK  Name = 
REMARK  4 active torsions:
REMARK  status: ('A' for Active; 'I' for Inactive)
REMARK    1  A    between atoms: C_1  and  C_2
REMARK    2  A    between atoms: C_2  and  N_3
REMARK    3  A    between atoms: C_4  and  C_6
REMARK    4  A    between atoms: C_9  and  N_10
REMARK                            x       y       z     vdW  Elec       q    Type
REMARK                         _______ _______ _______ _____ _____    ______ ____
ROOT
ATOM      1  C   UNL     1       6.260   4.025  13.781  0.00  0.00    +0.000 A 
ATOM      2  C   UNL     1       7.206   4.982  14.108  0.00  0.00    +0.000 A 
ATOM      3  C   UNL     1       7.139   5.378  15.478  0.00  0.00    +0.000 A 
ATOM      4  C   UNL     1       6.162   4.682  16.151  0.00  0.00    +0.000 A 
ATOM      5  S   UNL     1       5.392   3.527  15.175  0.00  0.00    +0.000 S 
ENDROOT
BRANCH   4   6
ATOM      6  N   UNL     1       5.751   4.840  17.480  0.00  0.00    +0.000 N 
ATOM      7  C   UNL     1       6.541   5.184  18.562  0.00  0.00    +0.000 A 
ATOM      8  N   UNL     1       5.860   5.325  19.676  0.00  0.00    +0.000 NA
ATOM      9  C   UNL     1       4.574   5.001  19.345  0.00  0.00    +0.000 A 
ATOM     10  C   UNL     1       3.445   4.939  20.177  0.00  0.00    +0.000 A 
ATOM     11  C   UNL     1       2.239   4.501  19.628  0.00  0.00    +0.000 A 
ATOM     12 CL   UNL     1       0.844   4.388  20.633  0.00  0.00    +0.000 Cl
ATOM     13  C   UNL     1       2.147   4.132  18.288  0.00  0.00    +0.000 A 
ATOM     14  C   UNL     1       3.259   4.211  17.443  0.00  0.00    +0.000 A 
ATOM     15  C   UNL     1       4.466   4.674  17.994  0.00  0.00    +0.000 A 
ENDBRANCH   4   6
BRANCH   1  17
ATOM     16  N   UNL     1       4.677   3.394  12.089  0.00  0.00    +0.000 N 
ATOM     17  C   UNL     1       6.005   3.469  12.458  0.00  0.00    +0.000 C 
ATOM     18  O   UNL     1       6.907   3.109  11.705  0.00  0.00    +0.000 OA
ATOM     19  H   UNL     1       3.987   3.774  12.725  0.00  0.00    +0.000 HD
BRANCH  16  21
ATOM     20  C   UNL     1       3.224   3.861  10.171  0.00  0.00    +0.000 C 
ATOM     21  C   UNL     1       4.248   2.929  10.790  0.00  0.00    +0.000 C 
ENDBRANCH  16  21
ENDBRANCH   1  17
TORSDOF 3
ENDMDL
MODEL 7
REMARK VINA RESULT:      -6.6      5.080      7.309
REMARK  Name = 
REMARK  4 active torsions:
REMARK  status: ('A' for Active; 'I' for Inactive)
REMARK    1  A    between atoms: C_1  and  C_2
REMARK    2  A    between atoms: C_2  and  N_3
REMARK    3  A    between atoms: C_4  and  C_6
REMARK    4  A    between atoms: C_9  and  N_10
REMARK                            x       y       z     vdW  Elec       q    Type
REMARK                         _______ _______ _______ _____ _____    ______ ____
ROOT
ATOM      1  C   UNL     1       2.630   7.191  19.128  0.00  0.00    +0.000 A 
ATOM      2  C   UNL     1       2.836   7.914  17.965  0.00  0.00    +0.000 A 
ATOM      3  C   UNL     1       2.016   9.081  17.889  0.00  0.00    +0.000 A 
ATOM      4  C   UNL     1       1.237   9.217  19.013  0.00  0.00    +0.000 A 
ATOM      5  S   UNL     1       1.538   8.010  20.168  0.00  0.00    +0.000 S 
ENDROOT
BRANCH   4   6
ATOM      6  N   UNL     1       0.262  10.188  19.274  0.00  0.00    +0.000 N 
ATOM      7  C   UNL     1       0.265  11.119  20.297  0.00  0.00    +0.000 A 
ATOM      8  N   UNL     1      -0.754  11.947  20.246  0.00  0.00    +0.000 NA
ATOM      9  C   UNL     1      -1.505  11.515  19.189  0.00  0.00    +0.000 A 
ATOM     10  C   UNL     1      -2.729  12.017  18.722  0.00  0.00    +0.000 A 
ATOM     11  C   UNL     1      -3.357  11.358  17.664  0.00  0.00    +0.000 A 
ATOM     12 CL   UNL     1      -4.876  11.935  17.091  0.00  0.00    +0.000 Cl
ATOM     13  C   UNL     1      -2.791  10.228  17.079  0.00  0.00    +0.000 A 
ATOM     14  C   UNL     1      -1.560   9.732  17.519  0.00  0.00    +0.000 A 
ATOM     15  C   UNL     1      -0.919  10.411  18.570  0.00  0.00    +0.000 A 
ENDBRANCH   4   6
BRANCH   1  17
ATOM     16  N   UNL     1       2.389   4.983  20.042  0.00  0.00    +0.000 N 
ATOM     17  C   UNL     1       3.239   5.914  19.480  0.00  0.00    +0.000 C 
ATOM     18  O   UNL     1       4.425   5.667  19.272  0.00  0.00    +0.000 OA
ATOM     19  H   UNL     1       1.409   5.222  20.119  0.00  0.00    +0.000 HD
BRANCH  16  21
ATOM     20  C   UNL     1       2.017   3.095  21.561  0.00  0.00    +0.000 C 
ATOM     21  C   UNL     1       2.811   3.646  20.392  0.00  0.00    +0.000 C 
ENDBRANCH  16  21
ENDBRANCH   1  17
TORSDOF 3
ENDMDL
MODEL 8
REMARK VINA RESULT:      -6.5      4.815      7.497
REMARK  Name = 
REMARK  4 active torsions:
REMARK  status: ('A' for Active; 'I' for Inactive)
REMARK    1  A    between atoms: C_1  and  C_2
REMARK    2  A    between atoms: C_2  and  N_3
REMARK    3  A    between atoms: C_4  and  C_6
REMARK    4  A    between atoms: C_9  and  N_10
REMARK                            x       y       z     vdW  Elec       q    Type
REMARK                         _______ _______ _______ _____ _____    ______ ____
ROOT
ATOM      1  C   UNL     1       0.623   9.750  18.946  0.00  0.00    +0.000 A 
ATOM      2  C   UNL     1       0.900   9.169  20.171  0.00  0.00    +0.000 A 
ATOM      3  C   UNL     1       1.831   8.091  20.073  0.00  0.00    +0.000 A 
ATOM      4  C   UNL     1       2.251   7.912  18.776  0.00  0.00    +0.000 A 
ATOM      5  S   UNL     1       1.598   9.062  17.712  0.00  0.00    +0.000 S 
ENDROOT
BRANCH   4   6
ATOM      6  N   UNL     1       3.101   6.919  18.273  0.00  0.00    +0.000 N 
ATOM      7  C   UNL     1       4.191   7.096  17.440  0.00  0.00    +0.000 A 
ATOM      8  N   UNL     1       4.840   5.981  17.192  0.00  0.00    +0.000 NA
ATOM      9  C   UNL     1       4.121   5.008  17.828  0.00  0.00    +0.000 A 
ATOM     10  C   UNL     1       4.347   3.623  17.845  0.00  0.00    +0.000 A 
ATOM     11  C   UNL     1       3.426   2.807  18.503  0.00  0.00    +0.000 A 
ATOM     12 CL   UNL     1       3.664   1.101  18.515  0.00  0.00    +0.000 Cl
ATOM     13  C   UNL     1       2.303   3.344  19.129  0.00  0.00    +0.000 A 
ATOM     14  C   UNL     1       2.078   4.725  19.139  0.00  0.00    +0.000 A 
ATOM     15  C   UNL     1       3.020   5.545  18.495  0.00  0.00    +0.000 A 
ENDBRANCH   4   6
BRANCH   1  17
ATOM     16  N   UNL     1      -1.214  10.581  17.640  0.00  0.00    +0.000 N 
ATOM     17  C   UNL     1      -0.340  10.812  18.683  0.00  0.00    +0.000 C 
ATOM     18  O   UNL     1      -0.392  11.840  19.355  0.00  0.00    +0.000 OA
ATOM     19  H   UNL     1      -1.166   9.683  17.173  0.00  0.00    +0.000 HD
BRANCH  16  21
ATOM     20  C   UNL     1      -2.941  11.103  15.980  0.00  0.00    +0.000 C 
ATOM     21  C   UNL     1      -2.272  11.498  17.283  0.00  0.00    +0.000 C 
ENDBRANCH  16  21
ENDBRANCH   1  17
TORSDOF 3
ENDMDL
MODEL 9
REMARK VINA RESULT:      -6.4      4.891      8.333
REMARK  Name = 
REMARK  4 active torsions:
REMARK  status: ('A' for Active; 'I' for Inactive)
REMARK    1  A    between atoms: C_1  and  C_2
REMARK    2  A    between atoms: C_2  and  N_3
REMARK    3  A    between atoms: C_4  and  C_6
REMARK    4  A    between atoms: C_9  and  N_10
REMARK                            x       y       z     vdW  Elec       q    Type
REMARK                         _______ _______ _______ _____ _____    ______ ____
ROOT
ATOM      1  C   UNL     1       1.029   9.902  20.253  0.00  0.00    +0.000 A 
ATOM      2  C   UNL     1       1.217  10.050  18.890  0.00  0.00    +0.000 A 
ATOM      3  C   UNL     1       1.758   8.880  18.277  0.00  0.00    +0.000 A 
ATOM      4  C   UNL     1       1.933   7.872  19.196  0.00  0.00    +0.000 A 
ATOM      5  S   UNL     1       1.391   8.298  20.746  0.00  0.00    +0.000 S 
ENDROOT
BRANCH   4   6
ATOM      6  N   UNL     1       2.501   6.608  18.992  0.00  0.00    +0.000 N 
ATOM      7  C   UNL     1       2.253   5.455  19.715  0.00  0.00    +0.000 A 
ATOM      8  N   UNL     1       2.884   4.403  19.245  0.00  0.00    +0.000 NA
ATOM      9  C   UNL     1       3.636   4.879  18.208  0.00  0.00    +0.000 A 
ATOM     10  C   UNL     1       4.539   4.183  17.390  0.00  0.00    +0.000 A 
ATOM     11  C   UNL     1       5.261   4.901  16.436  0.00  0.00    +0.000 A 
ATOM     12 CL   UNL     1       6.397   4.077  15.437  0.00  0.00    +0.000 Cl
ATOM     13  C   UNL     1       5.099   6.277  16.292  0.00  0.00    +0.000 A 
ATOM     14  C   UNL     1       4.185   6.980  17.086  0.00  0.00    +0.000 A 
ATOM     15  C   UNL     1       3.443   6.249  18.030  0.00  0.00    +0.000 A 
ENDBRANCH   4   6
BRANCH   1  17
ATOM     16  N   UNL     1      -0.554  10.608  21.916  0.00  0.00    +0.000 N 
ATOM     17  C   UNL     1       0.575  10.925  21.187  0.00  0.00    +0.000 C 
ATOM     18  O   UNL     1       1.164  11.993  21.338  0.00  0.00    +0.000 OA
ATOM     19  H   UNL     1      -0.949   9.684  21.798  0.00  0.00    +0.000 HD
BRANCH  16  21
ATOM     20  C   UNL     1      -2.366  12.169  22.452  0.00  0.00    +0.000 C 
ATOM     21  C   UNL     1      -1.103  11.479  22.930  0.00  0.00    +0.000 C 
ENDBRANCH  16  21
ENDBRANCH   1  17
TORSDOF 3
ENDMDL
