MODEL 1
REMARK VINA RESULT:      -7.2      0.000      0.000
REMARK  Name = 
REMARK  12 active torsions:
REMARK  status: ('A' for Active; 'I' for Inactive)
REMARK    1  A    between atoms: C_1  and  C_2
REMARK    2  A    between atoms: C_2  and  N_3
REMARK    3  A    between atoms: N_3  and  C_4
REMARK    4  A    between atoms: N_3  and  C_10
REMARK    5  A    between atoms: C_10  and  C_11
REMARK    6  A    between atoms: C_10  and  C_15
REMARK    7  A    between atoms: C_11  and  C_12
REMARK    8  A    between atoms: C_12  and  O_14
REMARK    9  A    between atoms: C_22  and  C_23
REMARK   10  A    between atoms: C_23  and  C_24
REMARK   11  A    between atoms: C_24  and  O_25
REMARK   12  A    between atoms: O_25  and  C_26
REMARK                            x       y       z     vdW  Elec       q    Type
REMARK                         _______ _______ _______ _____ _____    ______ ____
ROOT
ATOM      1  C   UNL     1       8.157  13.407  18.151  0.00  0.00    +0.000 C 
ATOM      2  O   UNL     1       7.549  13.012  17.149  0.00  0.00    +0.000 OA
ATOM      3  N   UNL     1       8.955  12.503  18.854  0.00  0.00    +0.000 N 
ATOM      4  C   UNL     1       9.482  12.687  20.211  0.00  0.00    +0.000 C 
ATOM      5  C   UNL     1      10.998  12.806  20.191  0.00  0.00    +0.000 C 
ATOM      6  C   UNL     1      11.629  11.610  19.481  0.00  0.00    +0.000 C 
ATOM      7  C   UNL     1      11.015  11.401  18.097  0.00  0.00    +0.000 C 
ATOM      8  C   UNL     1       9.476  11.321  18.129  0.00  0.00    +0.000 C 
ENDROOT
BRANCH   1   9
ATOM      9  C   UNL     1       7.898  14.829  18.735  0.00  0.00    +0.000 C 
BRANCH   9  10
ATOM     10  N   UNL     1       9.139  15.637  18.843  0.00  0.00    +0.000 NA
BRANCH  10  11
ATOM     11  C   UNL     1       9.289  16.611  19.963  0.00  0.00    +0.000 C 
ATOM     12  C   UNL     1       8.591  16.335  21.324  0.00  0.00    +0.000 C 
ATOM     13  C   UNL     1       9.427  15.706  22.442  0.00  0.00    +0.000 C 
ATOM     14  C   UNL     1      10.851  16.236  22.549  0.00  0.00    +0.000 C 
ATOM     15  C   UNL     1      11.535  16.290  21.198  0.00  0.00    +0.000 C 
ATOM     16  C   UNL     1      10.724  17.129  20.210  0.00  0.00    +0.000 C 
ENDBRANCH  10  11
BRANCH  10  18
ATOM     17  C   UNL     1      11.003  15.266  17.179  0.00  0.00    +0.000 C 
ATOM     18  C   UNL     1       9.748  16.042  17.567  0.00  0.00    +0.000 C 
ENDBRANCH  10  18
ENDBRANCH   9  10
BRANCH   9  19
ATOM     19  C   UNL     1       6.693  15.470  18.044  0.00  0.00    +0.000 C 
BRANCH  19  20
ATOM     20  C   UNL     1       5.315  15.045  18.470  0.00  0.00    +0.000 C 
ATOM     21  O   UNL     1       4.807  15.421  19.519  0.00  0.00    +0.000 OA
BRANCH  20  22
ATOM     22  O   UNL     1       4.702  14.138  17.685  0.00  0.00    +0.000 OA
ATOM     23  H   UNL     1       4.802  14.247  16.717  0.00  0.00    +0.000 HD
ENDBRANCH  20  22
ENDBRANCH  19  20
ENDBRANCH   9  19
ENDBRANCH   1   9
BRANCH   8  24
ATOM     24  C   UNL     1       8.952   9.971  18.670  0.00  0.00    +0.000 C 
BRANCH  24  25
ATOM     25  C   UNL     1       8.232   9.181  17.579  0.00  0.00    +0.000 C 
BRANCH  25  26
ATOM     26  O   UNL     1       7.378   8.182  18.149  0.00  0.00    +0.000 OA
BRANCH  26  27
ATOM     27  C   UNL     1       7.688   6.854  17.683  0.00  0.00    +0.000 C 
ATOM     28  C   UNL     1       6.631   6.429  16.660  0.00  0.00    +0.000 C 
ATOM     29  C   UNL     1       5.316   6.006  17.312  0.00  0.00    +0.000 C 
ATOM     30  N   UNL     1       5.570   4.952  18.302  0.00  0.00    +0.000 N 
ATOM     31  C   UNL     1       4.749   3.866  18.458  0.00  0.00    +0.000 C 
ATOM     32  N   UNL     1       3.699   3.556  17.785  0.00  0.00    +0.000 NA
ATOM     33  N   UNL     1       5.123   2.962  19.393  0.00  0.00    +0.000 N 
ATOM     34  C   UNL     1       6.441   5.435  19.385  0.00  0.00    +0.000 C 
ATOM     35  C   UNL     1       7.799   5.820  18.810  0.00  0.00    +0.000 C 
ATOM     36  H   UNL     1       3.487   4.269  17.098  0.00  0.00    +0.000 HD
ATOM     37  H   UNL     1       6.093   2.691  19.304  0.00  0.00    +0.000 HD
ATOM     38  H   UNL     1       4.521   2.148  19.309  0.00  0.00    +0.000 HD
ENDBRANCH  26  27
ENDBRANCH  25  26
ENDBRANCH  24  25
ENDBRANCH   8  24
TORSDOF 11
ENDMDL
MODEL 2
REMARK VINA RESULT:      -6.9      3.072     10.792
REMARK  Name = 
REMARK  12 active torsions:
REMARK  status: ('A' for Active; 'I' for Inactive)
REMARK    1  A    between atoms: C_1  and  C_2
REMARK    2  A    between atoms: C_2  and  N_3
REMARK    3  A    between atoms: N_3  and  C_4
REMARK    4  A    between atoms: N_3  and  C_10
REMARK    5  A    between atoms: C_10  and  C_11
REMARK    6  A    between atoms: C_10  and  C_15
REMARK    7  A    between atoms: C_11  and  C_12
REMARK    8  A    between atoms: C_12  and  O_14
REMARK    9  A    between atoms: C_22  and  C_23
REMARK   10  A    between atoms: C_23  and  C_24
REMARK   11  A    between atoms: C_24  and  O_25
REMARK   12  A    between atoms: O_25  and  C_26
REMARK                            x       y       z     vdW  Elec       q    Type
REMARK                         _______ _______ _______ _____ _____    ______ ____
ROOT
ATOM      1  C   UNL     1       5.417   5.207  18.795  0.00  0.00    +0.000 C 
ATOM      2  O   UNL     1       6.124   5.399  19.790  0.00  0.00    +0.000 OA
ATOM      3  N   UNL     1       5.809   5.759  17.574  0.00  0.00    +0.000 N 
ATOM      4  C   UNL     1       4.965   5.915  16.384  0.00  0.00    +0.000 C 
ATOM      5  C   UNL     1       5.459   5.029  15.250  0.00  0.00    +0.000 C 
ATOM      6  C   UNL     1       6.934   5.295  14.954  0.00  0.00    +0.000 C 
ATOM      7  C   UNL     1       7.780   5.191  16.224  0.00  0.00    +0.000 C 
ATOM      8  C   UNL     1       7.245   6.065  17.375  0.00  0.00    +0.000 C 
ENDROOT
BRANCH   1   9
ATOM      9  C   UNL     1       4.021   4.527  18.925  0.00  0.00    +0.000 C 
BRANCH   9  10
ATOM     10  N   UNL     1       2.948   5.487  19.290  0.00  0.00    +0.000 NA
BRANCH  10  11
ATOM     11  C   UNL     1       2.004   5.152  20.395  0.00  0.00    +0.000 C 
ATOM     12  C   UNL     1       0.650   4.462  20.069  0.00  0.00    +0.000 C 
ATOM     13  C   UNL     1       0.565   2.941  20.228  0.00  0.00    +0.000 C 
ATOM     14  C   UNL     1       1.290   2.386  21.448  0.00  0.00    +0.000 C 
ATOM     15  C   UNL     1       2.685   2.962  21.586  0.00  0.00    +0.000 C 
ATOM     16  C   UNL     1       2.639   4.490  21.638  0.00  0.00    +0.000 C 
ENDBRANCH  10  11
BRANCH  10  18
ATOM     17  C   UNL     1       2.447   7.765  18.322  0.00  0.00    +0.000 C 
ATOM     18  C   UNL     1       2.370   6.249  18.173  0.00  0.00    +0.000 C 
ENDBRANCH  10  18
ENDBRANCH   9  10
BRANCH   9  19
ATOM     19  C   UNL     1       3.771   3.606  17.729  0.00  0.00    +0.000 C 
BRANCH  19  20
ATOM     20  C   UNL     1       3.246   2.221  17.990  0.00  0.00    +0.000 C 
ATOM     21  O   UNL     1       3.852   1.409  18.679  0.00  0.00    +0.000 OA
BRANCH  20  22
ATOM     22  O   UNL     1       2.118   1.878  17.337  0.00  0.00    +0.000 OA
ATOM     23  H   UNL     1       1.413   1.447  17.862  0.00  0.00    +0.000 HD
ENDBRANCH  20  22
ENDBRANCH  19  20
ENDBRANCH   9  19
ENDBRANCH   1   9
BRANCH   8  24
ATOM     24  C   UNL     1       7.546   7.569  17.182  0.00  0.00    +0.000 C 
BRANCH  24  25
ATOM     25  C   UNL     1       8.287   8.142  18.389  0.00  0.00    +0.000 C 
BRANCH  25  26
ATOM     26  O   UNL     1       8.307   9.574  18.344  0.00  0.00    +0.000 OA
BRANCH  26  27
ATOM     27  C   UNL     1       9.582  10.124  18.727  0.00  0.00    +0.000 C 
ATOM     28  C   UNL     1       9.493  10.623  20.172  0.00  0.00    +0.000 C 
ATOM     29  C   UNL     1       8.764  11.960  20.290  0.00  0.00    +0.000 C 
ATOM     30  N   UNL     1       9.399  12.950  19.411  0.00  0.00    +0.000 N 
ATOM     31  C   UNL     1       9.599  14.253  19.783  0.00  0.00    +0.000 C 
ATOM     32  N   UNL     1       9.334  14.811  20.909  0.00  0.00    +0.000 NA
ATOM     33  N   UNL     1      10.220  15.045  18.878  0.00  0.00    +0.000 N 
ATOM     34  C   UNL     1       9.311  12.545  17.999  0.00  0.00    +0.000 C 
ATOM     35  C   UNL     1      10.072  11.240  17.797  0.00  0.00    +0.000 C 
ATOM     36  H   UNL     1       8.884  14.158  21.539  0.00  0.00    +0.000 HD
ATOM     37  H   UNL     1      11.062  14.625  18.508  0.00  0.00    +0.000 HD
ATOM     38  H   UNL     1      10.435  15.932  19.325  0.00  0.00    +0.000 HD
ENDBRANCH  26  27
ENDBRANCH  25  26
ENDBRANCH  24  25
ENDBRANCH   8  24
TORSDOF 11
ENDMDL
MODEL 3
REMARK VINA RESULT:      -6.8      6.965      8.901
REMARK  Name = 
REMARK  12 active torsions:
REMARK  status: ('A' for Active; 'I' for Inactive)
REMARK    1  A    between atoms: C_1  and  C_2
REMARK    2  A    between atoms: C_2  and  N_3
REMARK    3  A    between atoms: N_3  and  C_4
REMARK    4  A    between atoms: N_3  and  C_10
REMARK    5  A    between atoms: C_10  and  C_11
REMARK    6  A    between atoms: C_10  and  C_15
REMARK    7  A    between atoms: C_11  and  C_12
REMARK    8  A    between atoms: C_12  and  O_14
REMARK    9  A    between atoms: C_22  and  C_23
REMARK   10  A    between atoms: C_23  and  C_24
REMARK   11  A    between atoms: C_24  and  O_25
REMARK   12  A    between atoms: O_25  and  C_26
REMARK                            x       y       z     vdW  Elec       q    Type
REMARK                         _______ _______ _______ _____ _____    ______ ____
ROOT
ATOM      1  C   UNL     1       0.459  10.954  19.695  0.00  0.00    +0.000 C 
ATOM      2  O   UNL     1       1.430  10.846  18.937  0.00  0.00    +0.000 OA
ATOM      3  N   UNL     1       0.259   9.982  20.677  0.00  0.00    +0.000 N 
ATOM      4  C   UNL     1      -0.975   9.761  21.438  0.00  0.00    +0.000 C 
ATOM      5  C   UNL     1      -0.768  10.084  22.910  0.00  0.00    +0.000 C 
ATOM      6  C   UNL     1       0.413   9.300  23.480  0.00  0.00    +0.000 C 
ATOM      7  C   UNL     1       1.668   9.495  22.629  0.00  0.00    +0.000 C 
ATOM      8  C   UNL     1       1.433   9.200  21.135  0.00  0.00    +0.000 C 
ENDROOT
BRANCH   1   9
ATOM      9  C   UNL     1      -0.630  12.042  19.450  0.00  0.00    +0.000 C 
BRANCH   9  10
ATOM     10  N   UNL     1      -0.355  13.302  20.184  0.00  0.00    +0.000 NA
BRANCH  10  11
ATOM     11  C   UNL     1      -1.473  14.018  20.863  0.00  0.00    +0.000 C 
ATOM     12  C   UNL     1      -2.884  13.368  20.921  0.00  0.00    +0.000 C 
ATOM     13  C   UNL     1      -3.274  12.617  22.197  0.00  0.00    +0.000 C 
ATOM     14  C   UNL     1      -2.822  13.281  23.492  0.00  0.00    +0.000 C 
ATOM     15  C   UNL     1      -1.371  13.713  23.427  0.00  0.00    +0.000 C 
ATOM     16  C   UNL     1      -1.132  14.642  22.236  0.00  0.00    +0.000 C 
ENDBRANCH  10  11
BRANCH  10  18
ATOM     17  C   UNL     1       0.172  15.439  18.944  0.00  0.00    +0.000 C 
ATOM     18  C   UNL     1       0.687  14.163  19.603  0.00  0.00    +0.000 C 
ENDBRANCH  10  18
ENDBRANCH   9  10
BRANCH   9  19
ATOM     19  C   UNL     1      -0.943  12.146  17.956  0.00  0.00    +0.000 C 
BRANCH  19  20
ATOM     20  C   UNL     1      -2.085  11.336  17.407  0.00  0.00    +0.000 C 
ATOM     21  O   UNL     1      -2.657  10.477  18.065  0.00  0.00    +0.000 OA
BRANCH  20  22
ATOM     22  O   UNL     1      -2.383  11.532  16.107  0.00  0.00    +0.000 OA
ATOM     23  H   UNL     1      -2.175  10.803  15.487  0.00  0.00    +0.000 HD
ENDBRANCH  20  22
ENDBRANCH  19  20
ENDBRANCH   9  19
ENDBRANCH   1   9
BRANCH   8  24
ATOM     24  C   UNL     1       1.341   7.689  20.824  0.00  0.00    +0.000 C 
BRANCH  24  25
ATOM     25  C   UNL     1       1.993   7.362  19.481  0.00  0.00    +0.000 C 
BRANCH  25  26
ATOM     26  O   UNL     1       3.195   6.604  19.666  0.00  0.00    +0.000 OA
BRANCH  26  27
ATOM     27  C   UNL     1       3.318   5.519  18.727  0.00  0.00    +0.000 C 
ATOM     28  C   UNL     1       4.266   4.466  19.307  0.00  0.00    +0.000 C 
ATOM     29  C   UNL     1       5.735   4.869  19.192  0.00  0.00    +0.000 C 
ATOM     30  N   UNL     1       6.057   5.180  17.794  0.00  0.00    +0.000 N 
ATOM     31  C   UNL     1       7.231   4.801  17.200  0.00  0.00    +0.000 C 
ATOM     32  N   UNL     1       8.191   4.108  17.700  0.00  0.00    +0.000 NA
ATOM     33  N   UNL     1       7.378   5.134  15.897  0.00  0.00    +0.000 N 
ATOM     34  C   UNL     1       5.267   6.321  17.305  0.00  0.00    +0.000 C 
ATOM     35  C   UNL     1       3.785   5.964  17.336  0.00  0.00    +0.000 C 
ATOM     36  H   UNL     1       8.007   3.884  18.670  0.00  0.00    +0.000 HD
ATOM     37  H   UNL     1       6.575   4.881  15.339  0.00  0.00    +0.000 HD
ATOM     38  H   UNL     1       8.213   4.676  15.542  0.00  0.00    +0.000 HD
ENDBRANCH  26  27
ENDBRANCH  25  26
ENDBRANCH  24  25
ENDBRANCH   8  24
TORSDOF 11
ENDMDL
MODEL 4
REMARK VINA RESULT:      -6.7      1.570      2.643
REMARK  Name = 
REMARK  12 active torsions:
REMARK  status: ('A' for Active; 'I' for Inactive)
REMARK    1  A    between atoms: C_1  and  C_2
REMARK    2  A    between atoms: C_2  and  N_3
REMARK    3  A    between atoms: N_3  and  C_4
REMARK    4  A    between atoms: N_3  and  C_10
REMARK    5  A    between atoms: C_10  and  C_11
REMARK    6  A    between atoms: C_10  and  C_15
REMARK    7  A    between atoms: C_11  and  C_12
REMARK    8  A    between atoms: C_12  and  O_14
REMARK    9  A    between atoms: C_22  and  C_23
REMARK   10  A    between atoms: C_23  and  C_24
REMARK   11  A    between atoms: C_24  and  O_25
REMARK   12  A    between atoms: O_25  and  C_26
REMARK                            x       y       z     vdW  Elec       q    Type
REMARK                         _______ _______ _______ _____ _____    ______ ____
ROOT
ATOM      1  C   UNL     1       8.473  13.644  19.061  0.00  0.00    +0.000 C 
ATOM      2  O   UNL     1       7.578  13.490  18.222  0.00  0.00    +0.000 OA
ATOM      3  N   UNL     1       9.330  12.577  19.336  0.00  0.00    +0.000 N 
ATOM      4  C   UNL     1      10.221  12.460  20.496  0.00  0.00    +0.000 C 
ATOM      5  C   UNL     1      11.679  12.498  20.064  0.00  0.00    +0.000 C 
ATOM      6  C   UNL     1      11.962  11.435  19.005  0.00  0.00    +0.000 C 
ATOM      7  C   UNL     1      10.977  11.539  17.840  0.00  0.00    +0.000 C 
ATOM      8  C   UNL     1       9.505  11.536  18.296  0.00  0.00    +0.000 C 
ENDROOT
BRANCH   1   9
ATOM      9  C   UNL     1       8.536  14.934  19.934  0.00  0.00    +0.000 C 
BRANCH   9  10
ATOM     10  N   UNL     1       8.425  16.177  19.129  0.00  0.00    +0.000 NA
BRANCH  10  11
ATOM     11  C   UNL     1       9.662  16.836  18.618  0.00  0.00    +0.000 C 
ATOM     12  C   UNL     1      10.902  16.974  19.546  0.00  0.00    +0.000 C 
ATOM     13  C   UNL     1      12.018  15.935  19.407  0.00  0.00    +0.000 C 
ATOM     14  C   UNL     1      12.332  15.523  17.974  0.00  0.00    +0.000 C 
ATOM     15  C   UNL     1      11.074  15.213  17.188  0.00  0.00    +0.000 C 
ATOM     16  C   UNL     1      10.114  16.404  17.205  0.00  0.00    +0.000 C 
ENDBRANCH  10  11
BRANCH  10  18
ATOM     17  C   UNL     1       6.017  16.853  18.777  0.00  0.00    +0.000 C 
ATOM     18  C   UNL     1       7.334  17.086  19.511  0.00  0.00    +0.000 C 
ENDBRANCH  10  18
ENDBRANCH   9  10
BRANCH   9  19
ATOM     19  C   UNL     1       7.617  14.792  21.149  0.00  0.00    +0.000 C 
BRANCH  19  20
ATOM     20  C   UNL     1       8.194  15.039  22.515  0.00  0.00    +0.000 C 
ATOM     21  O   UNL     1       8.735  14.156  23.169  0.00  0.00    +0.000 OA
BRANCH  20  22
ATOM     22  O   UNL     1       7.992  16.267  23.034  0.00  0.00    +0.000 OA
ATOM     23  H   UNL     1       7.314  16.826  22.603  0.00  0.00    +0.000 HD
ENDBRANCH  20  22
ENDBRANCH  19  20
ENDBRANCH   9  19
ENDBRANCH   1   9
BRANCH   8  24
ATOM     24  C   UNL     1       9.006  10.136  18.719  0.00  0.00    +0.000 C 
BRANCH  24  25
ATOM     25  C   UNL     1       8.236   9.459  17.586  0.00  0.00    +0.000 C 
BRANCH  25  26
ATOM     26  O   UNL     1       7.333   8.473  18.098  0.00  0.00    +0.000 OA
BRANCH  26  27
ATOM     27  C   UNL     1       7.507   7.184  17.478  0.00  0.00    +0.000 C 
ATOM     28  C   UNL     1       6.246   6.844  16.679  0.00  0.00    +0.000 C 
ATOM     29  C   UNL     1       5.094   6.377  17.566  0.00  0.00    +0.000 C 
ATOM     30  N   UNL     1       5.532   5.248  18.396  0.00  0.00    +0.000 N 
ATOM     31  C   UNL     1       4.742   4.157  18.644  0.00  0.00    +0.000 C 
ATOM     32  N   UNL     1       3.566   3.905  18.192  0.00  0.00    +0.000 NA
ATOM     33  N   UNL     1       5.290   3.182  19.405  0.00  0.00    +0.000 N 
ATOM     34  C   UNL     1       6.626   5.642  19.298  0.00  0.00    +0.000 C 
ATOM     35  C   UNL     1       7.837   6.065  18.474  0.00  0.00    +0.000 C 
ATOM     36  H   UNL     1       3.226   4.670  17.622  0.00  0.00    +0.000 HD
ATOM     37  H   UNL     1       6.211   2.915  19.089  0.00  0.00    +0.000 HD
ATOM     38  H   UNL     1       4.666   2.379  19.392  0.00  0.00    +0.000 HD
ENDBRANCH  26  27
ENDBRANCH  25  26
ENDBRANCH  24  25
ENDBRANCH   8  24
TORSDOF 11
ENDMDL
MODEL 5
REMARK VINA RESULT:      -6.7      3.119     10.420
REMARK  Name = 
REMARK  12 active torsions:
REMARK  status: ('A' for Active; 'I' for Inactive)
REMARK    1  A    between atoms: C_1  and  C_2
REMARK    2  A    between atoms: C_2  and  N_3
REMARK    3  A    between atoms: N_3  and  C_4
REMARK    4  A    between atoms: N_3  and  C_10
REMARK    5  A    between atoms: C_10  and  C_11
REMARK    6  A    between atoms: C_10  and  C_15
REMARK    7  A    between atoms: C_11  and  C_12
REMARK    8  A    between atoms: C_12  and  O_14
REMARK    9  A    between atoms: C_22  and  C_23
REMARK   10  A    between atoms: C_23  and  C_24
REMARK   11  A    between atoms: C_24  and  O_25
REMARK   12  A    between atoms: O_25  and  C_26
REMARK                            x       y       z     vdW  Elec       q    Type
REMARK                         _______ _______ _______ _____ _____    ______ ____
ROOT
ATOM      1  C   UNL     1       4.555   6.265  18.226  0.00  0.00    +0.000 C 
ATOM      2  O   UNL     1       4.971   6.518  19.362  0.00  0.00    +0.000 OA
ATOM      3  N   UNL     1       5.440   6.349  17.150  0.00  0.00    +0.000 N 
ATOM      4  C   UNL     1       5.075   6.404  15.730  0.00  0.00    +0.000 C 
ATOM      5  C   UNL     1       5.541   5.151  15.003  0.00  0.00    +0.000 C 
ATOM      6  C   UNL     1       7.038   4.927  15.208  0.00  0.00    +0.000 C 
ATOM      7  C   UNL     1       7.401   4.942  16.694  0.00  0.00    +0.000 C 
ATOM      8  C   UNL     1       6.889   6.198  17.424  0.00  0.00    +0.000 C 
ENDROOT
BRANCH   1   9
ATOM      9  C   UNL     1       3.035   6.040  17.963  0.00  0.00    +0.000 C 
BRANCH   9  10
ATOM     10  N   UNL     1       2.604   4.650  18.256  0.00  0.00    +0.000 NA
BRANCH  10  11
ATOM     11  C   UNL     1       1.480   4.412  19.208  0.00  0.00    +0.000 C 
ATOM     12  C   UNL     1       0.752   3.039  19.214  0.00  0.00    +0.000 C 
ATOM     13  C   UNL     1       1.178   2.008  20.264  0.00  0.00    +0.000 C 
ATOM     14  C   UNL     1       1.469   2.587  21.644  0.00  0.00    +0.000 C 
ATOM     15  C   UNL     1       2.351   3.816  21.566  0.00  0.00    +0.000 C 
ATOM     16  C   UNL     1       1.726   4.878  20.661  0.00  0.00    +0.000 C 
ENDBRANCH  10  11
BRANCH  10  18
ATOM     17  C   UNL     1       3.613   2.612  17.156  0.00  0.00    +0.000 C 
ATOM     18  C   UNL     1       3.676   3.642  18.279  0.00  0.00    +0.000 C 
ENDBRANCH  10  18
ENDBRANCH   9  10
BRANCH   9  19
ATOM     19  C   UNL     1       2.221   7.179  18.576  0.00  0.00    +0.000 C 
BRANCH  19  20
ATOM     20  C   UNL     1       2.029   8.435  17.771  0.00  0.00    +0.000 C 
ATOM     21  O   UNL     1       2.917   8.911  17.075  0.00  0.00    +0.000 OA
BRANCH  20  22
ATOM     22  O   UNL     1       0.854   9.075  17.937  0.00  0.00    +0.000 OA
ATOM     23  H   UNL     1       0.888   9.978  18.315  0.00  0.00    +0.000 HD
ENDBRANCH  20  22
ENDBRANCH  19  20
ENDBRANCH   9  19
ENDBRANCH   1   9
BRANCH   8  24
ATOM     24  C   UNL     1       7.722   7.462  17.110  0.00  0.00    +0.000 C 
BRANCH  24  25
ATOM     25  C   UNL     1       8.179   8.155  18.393  0.00  0.00    +0.000 C 
BRANCH  25  26
ATOM     26  O   UNL     1       9.014   9.281  18.097  0.00  0.00    +0.000 OA
BRANCH  26  27
ATOM     27  C   UNL     1       8.658  10.452  18.856  0.00  0.00    +0.000 C 
ATOM     28  C   UNL     1       8.491  11.633  17.897  0.00  0.00    +0.000 C 
ATOM     29  C   UNL     1       9.828  12.212  17.435  0.00  0.00    +0.000 C 
ATOM     30  N   UNL     1      10.643  12.570  18.603  0.00  0.00    +0.000 N 
ATOM     31  C   UNL     1      11.396  13.713  18.660  0.00  0.00    +0.000 C 
ATOM     32  N   UNL     1      11.491  14.650  17.787  0.00  0.00    +0.000 NA
ATOM     33  N   UNL     1      12.075  13.925  19.811  0.00  0.00    +0.000 N 
ATOM     34  C   UNL     1      10.955  11.387  19.420  0.00  0.00    +0.000 C 
ATOM     35  C   UNL     1       9.662  10.791  19.965  0.00  0.00    +0.000 C 
ATOM     36  H   UNL     1      10.949  14.430  16.961  0.00  0.00    +0.000 HD
ATOM     37  H   UNL     1      11.494  13.815  20.630  0.00  0.00    +0.000 HD
ATOM     38  H   UNL     1      12.470  14.861  19.781  0.00  0.00    +0.000 HD
ENDBRANCH  26  27
ENDBRANCH  25  26
ENDBRANCH  24  25
ENDBRANCH   8  24
TORSDOF 11
ENDMDL
MODEL 6
REMARK VINA RESULT:      -6.5      7.109      9.013
REMARK  Name = 
REMARK  12 active torsions:
REMARK  status: ('A' for Active; 'I' for Inactive)
REMARK    1  A    between atoms: C_1  and  C_2
REMARK    2  A    between atoms: C_2  and  N_3
REMARK    3  A    between atoms: N_3  and  C_4
REMARK    4  A    between atoms: N_3  and  C_10
REMARK    5  A    between atoms: C_10  and  C_11
REMARK    6  A    between atoms: C_10  and  C_15
REMARK    7  A    between atoms: C_11  and  C_12
REMARK    8  A    between atoms: C_12  and  O_14
REMARK    9  A    between atoms: C_22  and  C_23
REMARK   10  A    between atoms: C_23  and  C_24
REMARK   11  A    between atoms: C_24  and  O_25
REMARK   12  A    between atoms: O_25  and  C_26
REMARK                            x       y       z     vdW  Elec       q    Type
REMARK                         _______ _______ _______ _____ _____    ______ ____
ROOT
ATOM      1  C   UNL     1      -0.087  10.103  19.267  0.00  0.00    +0.000 C 
ATOM      2  O   UNL     1       0.779  10.000  18.391  0.00  0.00    +0.000 OA
ATOM      3  N   UNL     1       0.020   9.318  20.416  0.00  0.00    +0.000 N 
ATOM      4  C   UNL     1      -1.044   9.065  21.394  0.00  0.00    +0.000 C 
ATOM      5  C   UNL     1      -0.705   9.691  22.738  0.00  0.00    +0.000 C 
ATOM      6  C   UNL     1       0.661   9.218  23.232  0.00  0.00    +0.000 C 
ATOM      7  C   UNL     1       1.738   9.433  22.168  0.00  0.00    +0.000 C 
ATOM      8  C   UNL     1       1.364   8.825  20.802  0.00  0.00    +0.000 C 
ENDROOT
BRANCH   1   9
ATOM      9  C   UNL     1      -1.374  10.947  19.023  0.00  0.00    +0.000 C 
BRANCH   9  10
ATOM     10  N   UNL     1      -1.358  12.240  19.753  0.00  0.00    +0.000 NA
BRANCH  10  11
ATOM     11  C   UNL     1      -0.058  12.926  20.008  0.00  0.00    +0.000 C 
ATOM     12  C   UNL     1       0.606  13.763  18.879  0.00  0.00    +0.000 C 
ATOM     13  C   UNL     1       0.393  15.279  18.891  0.00  0.00    +0.000 C 
ATOM     14  C   UNL     1       0.437  15.918  20.274  0.00  0.00    +0.000 C 
ATOM     15  C   UNL     1      -0.398  15.150  21.278  0.00  0.00    +0.000 C 
ATOM     16  C   UNL     1       0.044  13.688  21.349  0.00  0.00    +0.000 C 
ENDBRANCH  10  11
BRANCH  10  18
ATOM     17  C   UNL     1      -3.751  12.806  20.329  0.00  0.00    +0.000 C 
ATOM     18  C   UNL     1      -2.368  12.385  20.813  0.00  0.00    +0.000 C 
ENDBRANCH  10  18
ENDBRANCH   9  10
BRANCH   9  19
ATOM     19  C   UNL     1      -1.707  10.981  17.530  0.00  0.00    +0.000 C 
BRANCH  19  20
ATOM     20  C   UNL     1      -2.607   9.913  16.974  0.00  0.00    +0.000 C 
ATOM     21  O   UNL     1      -2.701   9.693  15.773  0.00  0.00    +0.000 OA
BRANCH  20  22
ATOM     22  O   UNL     1      -3.391   9.272  17.864  0.00  0.00    +0.000 OA
ATOM     23  H   UNL     1      -3.699   8.375  17.621  0.00  0.00    +0.000 HD
ENDBRANCH  20  22
ENDBRANCH  19  20
ENDBRANCH   9  19
ENDBRANCH   1   9
BRANCH   8  24
ATOM     24  C   UNL     1       1.501   7.286  20.767  0.00  0.00    +0.000 C 
BRANCH  24  25
ATOM     25  C   UNL     1       2.449   6.842  19.654  0.00  0.00    +0.000 C 
BRANCH  25  26
ATOM     26  O   UNL     1       2.941   5.519  19.899  0.00  0.00    +0.000 OA
BRANCH  26  27
ATOM     27  C   UNL     1       3.129   4.763  18.687  0.00  0.00    +0.000 C 
ATOM     28  C   UNL     1       4.193   3.689  18.931  0.00  0.00    +0.000 C 
ATOM     29  C   UNL     1       5.612   4.253  18.923  0.00  0.00    +0.000 C 
ATOM     30  N   UNL     1       5.850   4.979  17.669  0.00  0.00    +0.000 N 
ATOM     31  C   UNL     1       7.032   4.904  16.980  0.00  0.00    +0.000 C 
ATOM     32  N   UNL     1       8.070   4.197  17.251  0.00  0.00    +0.000 NA
ATOM     33  N   UNL     1       7.098   5.607  15.826  0.00  0.00    +0.000 N 
ATOM     34  C   UNL     1       4.940   6.127  17.535  0.00  0.00    +0.000 C 
ATOM     35  C   UNL     1       3.500   5.630  17.477  0.00  0.00    +0.000 C 
ATOM     36  H   UNL     1       7.945   3.689  18.118  0.00  0.00    +0.000 HD
ATOM     37  H   UNL     1       6.301   5.443  15.226  0.00  0.00    +0.000 HD
ATOM     38  H   UNL     1       7.958   5.354  15.346  0.00  0.00    +0.000 HD
ENDBRANCH  26  27
ENDBRANCH  25  26
ENDBRANCH  24  25
ENDBRANCH   8  24
TORSDOF 11
ENDMDL
MODEL 7
REMARK VINA RESULT:      -6.5      1.569      3.269
REMARK  Name = 
REMARK  12 active torsions:
REMARK  status: ('A' for Active; 'I' for Inactive)
REMARK    1  A    between atoms: C_1  and  C_2
REMARK    2  A    between atoms: C_2  and  N_3
REMARK    3  A    between atoms: N_3  and  C_4
REMARK    4  A    between atoms: N_3  and  C_10
REMARK    5  A    between atoms: C_10  and  C_11
REMARK    6  A    between atoms: C_10  and  C_15
REMARK    7  A    between atoms: C_11  and  C_12
REMARK    8  A    between atoms: C_12  and  O_14
REMARK    9  A    between atoms: C_22  and  C_23
REMARK   10  A    between atoms: C_23  and  C_24
REMARK   11  A    between atoms: C_24  and  O_25
REMARK   12  A    between atoms: O_25  and  C_26
REMARK                            x       y       z     vdW  Elec       q    Type
REMARK                         _______ _______ _______ _____ _____    ______ ____
ROOT
ATOM      1  C   UNL     1       8.643  13.566  18.001  0.00  0.00    +0.000 C 
ATOM      2  O   UNL     1       7.933  13.117  17.094  0.00  0.00    +0.000 OA
ATOM      3  N   UNL     1       9.372  12.674  18.790  0.00  0.00    +0.000 N 
ATOM      4  C   UNL     1       9.999  12.974  20.082  0.00  0.00    +0.000 C 
ATOM      5  C   UNL     1      11.515  12.901  19.977  0.00  0.00    +0.000 C 
ATOM      6  C   UNL     1      11.958  11.550  19.417  0.00  0.00    +0.000 C 
ATOM      7  C   UNL     1      11.239  11.233  18.105  0.00  0.00    +0.000 C 
ATOM      8  C   UNL     1       9.707  11.349  18.217  0.00  0.00    +0.000 C 
ENDROOT
BRANCH   1   9
ATOM      9  C   UNL     1       8.587  15.075  18.388  0.00  0.00    +0.000 C 
BRANCH   9  10
ATOM     10  N   UNL     1       7.871  15.312  19.666  0.00  0.00    +0.000 NA
BRANCH  10  11
ATOM     11  C   UNL     1       6.435  14.927  19.789  0.00  0.00    +0.000 C 
ATOM     12  C   UNL     1       5.662  15.238  21.101  0.00  0.00    +0.000 C 
ATOM     13  C   UNL     1       4.795  16.499  21.140  0.00  0.00    +0.000 C 
ATOM     14  C   UNL     1       4.019  16.779  19.858  0.00  0.00    +0.000 C 
ATOM     15  C   UNL     1       4.896  16.648  18.629  0.00  0.00    +0.000 C 
ATOM     16  C   UNL     1       5.547  15.266  18.570  0.00  0.00    +0.000 C 
ENDBRANCH  10  11
BRANCH  10  18
ATOM     17  C   UNL     1       7.958  17.836  19.690  0.00  0.00    +0.000 C 
ATOM     18  C   UNL     1       8.266  16.523  20.402  0.00  0.00    +0.000 C 
ENDBRANCH  10  18
ENDBRANCH   9  10
BRANCH   9  19
ATOM     19  C   UNL     1       9.968  15.712  18.221  0.00  0.00    +0.000 C 
BRANCH  19  20
ATOM     20  C   UNL     1      10.768  15.373  16.992  0.00  0.00    +0.000 C 
ATOM     21  O   UNL     1      11.687  14.565  17.010  0.00  0.00    +0.000 OA
BRANCH  20  22
ATOM     22  O   UNL     1      10.488  16.087  15.884  0.00  0.00    +0.000 OA
ATOM     23  H   UNL     1      10.297  17.040  16.005  0.00  0.00    +0.000 HD
ENDBRANCH  20  22
ENDBRANCH  19  20
ENDBRANCH   9  19
ENDBRANCH   1   9
BRANCH   8  24
ATOM     24  C   UNL     1       9.064  10.160  18.968  0.00  0.00    +0.000 C 
BRANCH  24  25
ATOM     25  C   UNL     1       8.318   9.238  18.005  0.00  0.00    +0.000 C 
BRANCH  25  26
ATOM     26  O   UNL     1       7.917   8.029  18.661  0.00  0.00    +0.000 OA
BRANCH  26  27
ATOM     27  C   UNL     1       7.817   6.913  17.756  0.00  0.00    +0.000 C 
ATOM     28  C   UNL     1       6.569   7.090  16.886  0.00  0.00    +0.000 C 
ATOM     29  C   UNL     1       5.280   6.739  17.627  0.00  0.00    +0.000 C 
ATOM     30  N   UNL     1       5.375   5.378  18.171  0.00  0.00    +0.000 N 
ATOM     31  C   UNL     1       4.330   4.494  18.147  0.00  0.00    +0.000 C 
ATOM     32  N   UNL     1       3.161   4.653  17.637  0.00  0.00    +0.000 NA
ATOM     33  N   UNL     1       4.573   3.266  18.662  0.00  0.00    +0.000 N 
ATOM     34  C   UNL     1       6.468   5.270  19.151  0.00  0.00    +0.000 C 
ATOM     35  C   UNL     1       7.798   5.552  18.462  0.00  0.00    +0.000 C 
ATOM     36  H   UNL     1       3.056   5.587  17.261  0.00  0.00    +0.000 HD
ATOM     37  H   UNL     1       5.422   2.855  18.300  0.00  0.00    +0.000 HD
ATOM     38  H   UNL     1       3.776   2.669  18.454  0.00  0.00    +0.000 HD
ENDBRANCH  26  27
ENDBRANCH  25  26
ENDBRANCH  24  25
ENDBRANCH   8  24
TORSDOF 11
ENDMDL
MODEL 8
REMARK VINA RESULT:      -6.3      3.296     10.183
REMARK  Name = 
REMARK  12 active torsions:
REMARK  status: ('A' for Active; 'I' for Inactive)
REMARK    1  A    between atoms: C_1  and  C_2
REMARK    2  A    between atoms: C_2  and  N_3
REMARK    3  A    between atoms: N_3  and  C_4
REMARK    4  A    between atoms: N_3  and  C_10
REMARK    5  A    between atoms: C_10  and  C_11
REMARK    6  A    between atoms: C_10  and  C_15
REMARK    7  A    between atoms: C_11  and  C_12
REMARK    8  A    between atoms: C_12  and  O_14
REMARK    9  A    between atoms: C_22  and  C_23
REMARK   10  A    between atoms: C_23  and  C_24
REMARK   11  A    between atoms: C_24  and  O_25
REMARK   12  A    between atoms: O_25  and  C_26
REMARK                            x       y       z     vdW  Elec       q    Type
REMARK                         _______ _______ _______ _____ _____    ______ ____
ROOT
ATOM      1  C   UNL     1       4.810   5.500  18.862  0.00  0.00    +0.000 C 
ATOM      2  O   UNL     1       5.374   5.773  19.927  0.00  0.00    +0.000 OA
ATOM      3  N   UNL     1       5.414   5.882  17.662  0.00  0.00    +0.000 N 
ATOM      4  C   UNL     1       4.768   5.937  16.346  0.00  0.00    +0.000 C 
ATOM      5  C   UNL     1       5.364   4.899  15.407  0.00  0.00    +0.000 C 
ATOM      6  C   UNL     1       6.881   5.053  15.315  0.00  0.00    +0.000 C 
ATOM      7  C   UNL     1       7.521   5.059  16.704  0.00  0.00    +0.000 C 
ATOM      8  C   UNL     1       6.882   6.089  17.655  0.00  0.00    +0.000 C 
ENDROOT
BRANCH   1   9
ATOM      9  C   UNL     1       3.367   4.911  18.848  0.00  0.00    +0.000 C 
BRANCH   9  10
ATOM     10  N   UNL     1       2.349   5.879  19.330  0.00  0.00    +0.000 NA
BRANCH  10  11
ATOM     11  C   UNL     1       2.657   7.338  19.320  0.00  0.00    +0.000 C 
ATOM     12  C   UNL     1       2.563   8.137  17.990  0.00  0.00    +0.000 C 
ATOM     13  C   UNL     1       1.281   8.931  17.722  0.00  0.00    +0.000 C 
ATOM     14  C   UNL     1       0.704   9.642  18.940  0.00  0.00    +0.000 C 
ATOM     15  C   UNL     1       0.647   8.732  20.150  0.00  0.00    +0.000 C 
ATOM     16  C   UNL     1       2.030   8.161  20.467  0.00  0.00    +0.000 C 
ENDBRANCH  10  11
BRANCH  10  18
ATOM     17  C   UNL     1       1.247   3.915  20.473  0.00  0.00    +0.000 C 
ATOM     18  C   UNL     1       1.510   5.417  20.446  0.00  0.00    +0.000 C 
ENDBRANCH  10  18
ENDBRANCH   9  10
BRANCH   9  19
ATOM     19  C   UNL     1       3.099   4.205  17.517  0.00  0.00    +0.000 C 
BRANCH  19  20
ATOM     20  C   UNL     1       3.106   2.701  17.492  0.00  0.00    +0.000 C 
ATOM     21  O   UNL     1       2.075   2.040  17.479  0.00  0.00    +0.000 OA
BRANCH  20  22
ATOM     22  O   UNL     1       4.312   2.109  17.592  0.00  0.00    +0.000 OA
ATOM     23  H   UNL     1       4.444   1.280  17.088  0.00  0.00    +0.000 HD
ENDBRANCH  20  22
ENDBRANCH  19  20
ENDBRANCH   9  19
ENDBRANCH   1   9
BRANCH   8  24
ATOM     24  C   UNL     1       7.308   7.543  17.347  0.00  0.00    +0.000 C 
BRANCH  24  25
ATOM     25  C   UNL     1       8.325   8.048  18.369  0.00  0.00    +0.000 C 
BRANCH  25  26
ATOM     26  O   UNL     1       8.290   9.477  18.464  0.00  0.00    +0.000 OA
BRANCH  26  27
ATOM     27  C   UNL     1       9.566  10.042  18.822  0.00  0.00    +0.000 C 
ATOM     28  C   UNL     1       9.473  10.618  20.238  0.00  0.00    +0.000 C 
ATOM     29  C   UNL     1       8.748  11.963  20.280  0.00  0.00    +0.000 C 
ATOM     30  N   UNL     1       9.391  12.902  19.352  0.00  0.00    +0.000 N 
ATOM     31  C   UNL     1       9.594  14.222  19.654  0.00  0.00    +0.000 C 
ATOM     32  N   UNL     1       9.327  14.841  20.747  0.00  0.00    +0.000 NA
ATOM     33  N   UNL     1      10.223  14.962  18.710  0.00  0.00    +0.000 N 
ATOM     34  C   UNL     1       9.307  12.421  17.964  0.00  0.00    +0.000 C 
ATOM     35  C   UNL     1      10.064  11.104  17.835  0.00  0.00    +0.000 C 
ATOM     36  H   UNL     1       8.871  14.225  21.409  0.00  0.00    +0.000 HD
ATOM     37  H   UNL     1      11.064  14.519  18.368  0.00  0.00    +0.000 HD
ATOM     38  H   UNL     1      10.439  15.871  19.109  0.00  0.00    +0.000 HD
ENDBRANCH  26  27
ENDBRANCH  25  26
ENDBRANCH  24  25
ENDBRANCH   8  24
TORSDOF 11
ENDMDL
MODEL 9
REMARK VINA RESULT:      -6.3      7.425     11.171
REMARK  Name = 
REMARK  12 active torsions:
REMARK  status: ('A' for Active; 'I' for Inactive)
REMARK    1  A    between atoms: C_1  and  C_2
REMARK    2  A    between atoms: C_2  and  N_3
REMARK    3  A    between atoms: N_3  and  C_4
REMARK    4  A    between atoms: N_3  and  C_10
REMARK    5  A    between atoms: C_10  and  C_11
REMARK    6  A    between atoms: C_10  and  C_15
REMARK    7  A    between atoms: C_11  and  C_12
REMARK    8  A    between atoms: C_12  and  O_14
REMARK    9  A    between atoms: C_22  and  C_23
REMARK   10  A    between atoms: C_23  and  C_24
REMARK   11  A    between atoms: C_24  and  O_25
REMARK   12  A    between atoms: O_25  and  C_26
REMARK                            x       y       z     vdW  Elec       q    Type
REMARK                         _______ _______ _______ _____ _____    ______ ____
ROOT
ATOM      1  C   UNL     1       3.285   5.059  18.425  0.00  0.00    +0.000 C 
ATOM      2  O   UNL     1       2.741   5.905  17.706  0.00  0.00    +0.000 OA
ATOM      3  N   UNL     1       2.811   4.876  19.725  0.00  0.00    +0.000 N 
ATOM      4  C   UNL     1       3.507   4.174  20.810  0.00  0.00    +0.000 C 
ATOM      5  C   UNL     1       2.764   2.905  21.198  0.00  0.00    +0.000 C 
ATOM      6  C   UNL     1       1.309   3.210  21.546  0.00  0.00    +0.000 C 
ATOM      7  C   UNL     1       0.627   3.999  20.427  0.00  0.00    +0.000 C 
ATOM      8  C   UNL     1       1.411   5.262  20.019  0.00  0.00    +0.000 C 
ENDROOT
BRANCH   1   9
ATOM      9  C   UNL     1       4.590   4.340  17.968  0.00  0.00    +0.000 C 
BRANCH   9  10
ATOM     10  N   UNL     1       5.794   5.200  18.101  0.00  0.00    +0.000 NA
BRANCH  10  11
ATOM     11  C   UNL     1       6.639   5.475  16.904  0.00  0.00    +0.000 C 
ATOM     12  C   UNL     1       7.260   4.292  16.110  0.00  0.00    +0.000 C 
ATOM     13  C   UNL     1       6.533   3.817  14.848  0.00  0.00    +0.000 C 
ATOM     14  C   UNL     1       5.954   4.933  13.987  0.00  0.00    +0.000 C 
ATOM     15  C   UNL     1       5.192   5.947  14.816  0.00  0.00    +0.000 C 
ATOM     16  C   UNL     1       6.079   6.526  15.918  0.00  0.00    +0.000 C 
ENDBRANCH  10  11
BRANCH  10  18
ATOM     17  C   UNL     1       7.899   5.736  19.390  0.00  0.00    +0.000 C 
ATOM     18  C   UNL     1       6.520   5.085  19.376  0.00  0.00    +0.000 C 
ENDBRANCH  10  18
ENDBRANCH   9  10
BRANCH   9  19
ATOM     19  C   UNL     1       4.654   2.934  18.568  0.00  0.00    +0.000 C 
BRANCH  19  20
ATOM     20  C   UNL     1       3.702   1.892  18.049  0.00  0.00    +0.000 C 
ATOM     21  O   UNL     1       2.638   2.182  17.516  0.00  0.00    +0.000 OA
BRANCH  20  22
ATOM     22  O   UNL     1       4.031   0.609  18.297  0.00  0.00    +0.000 OA
ATOM     23  H   UNL     1       3.658  -0.070  17.699  0.00  0.00    +0.000 HD
ENDBRANCH  20  22
ENDBRANCH  19  20
ENDBRANCH   9  19
ENDBRANCH   1   9
BRANCH   8  24
ATOM     24  C   UNL     1       1.278   6.412  21.042  0.00  0.00    +0.000 C 
BRANCH  24  25
ATOM     25  C   UNL     1       1.712   7.745  20.434  0.00  0.00    +0.000 C 
BRANCH  25  26
ATOM     26  O   UNL     1       0.667   8.719  20.536  0.00  0.00    +0.000 OA
BRANCH  26  27
ATOM     27  C   UNL     1       0.929   9.899  19.753  0.00  0.00    +0.000 C 
ATOM     28  C   UNL     1       0.015  11.029  20.237  0.00  0.00    +0.000 C 
ATOM     29  C   UNL     1      -1.419  10.885  19.731  0.00  0.00    +0.000 C 
ATOM     30  N   UNL     1      -1.420  10.775  18.267  0.00  0.00    +0.000 N 
ATOM     31  C   UNL     1      -2.347  11.399  17.476  0.00  0.00    +0.000 C 
ATOM     32  N   UNL     1      -3.299  12.186  17.831  0.00  0.00    +0.000 NA
ATOM     33  N   UNL     1      -2.207  11.228  16.140  0.00  0.00    +0.000 N 
ATOM     34  C   UNL     1      -0.693   9.575  17.821  0.00  0.00    +0.000 C 
ATOM     35  C   UNL     1       0.768   9.680  18.243  0.00  0.00    +0.000 C 
ATOM     36  H   UNL     1      -3.335  12.277  18.839  0.00  0.00    +0.000 HD
ATOM     37  H   UNL     1      -1.264  11.403  15.824  0.00  0.00    +0.000 HD
ATOM     38  H   UNL     1      -2.858  11.851  15.669  0.00  0.00    +0.000 HD
ENDBRANCH  26  27
ENDBRANCH  25  26
ENDBRANCH  24  25
ENDBRANCH   8  24
TORSDOF 11
ENDMDL
