MODEL 1
REMARK VINA RESULT:      -7.2      0.000      0.000
REMARK  Name = 
REMARK  10 active torsions:
REMARK  status: ('A' for Active; 'I' for Inactive)
REMARK    1  A    between atoms: C_1  and  C_2
REMARK    2  A    between atoms: C_2  and  C_3
REMARK    3  A    between atoms: C_3  and  C_4
REMARK    4  A    between atoms: C_4  and  N_5
REMARK    5  A    between atoms: C_6  and  C_8
REMARK    6  A    between atoms: C_11  and  C_12
REMARK    7  A    between atoms: C_12  and  S_13
REMARK    8  A    between atoms: S_13  and  C_16
REMARK    9  A    between atoms: C_21  and  O_22
REMARK   10  A    between atoms: O_22  and  C_23
REMARK                            x       y       z     vdW  Elec       q    Type
REMARK                         _______ _______ _______ _____ _____    ______ ____
ROOT
ATOM      1  C   UNL     1       6.221   4.708  17.143  0.00  0.00    +0.000 A 
ATOM      2  C   UNL     1       6.354   4.949  18.496  0.00  0.00    +0.000 A 
ATOM      3  C   UNL     1       5.395   4.146  19.152  0.00  0.00    +0.000 A 
ATOM      4  C   UNL     1       4.724   3.460  18.162  0.00  0.00    +0.000 A 
ATOM      5  O   UNL     1       5.239   3.771  16.939  0.00  0.00    +0.000 OA
ENDROOT
BRANCH   1   7
ATOM      6  N   UNL     1       6.817   4.537  14.850  0.00  0.00    +0.000 N 
ATOM      7  C   UNL     1       6.938   5.268  16.011  0.00  0.00    +0.000 C 
ATOM      8  O   UNL     1       7.588   6.304  16.079  0.00  0.00    +0.000 OA
ATOM      9  H   UNL     1       6.299   3.667  14.890  0.00  0.00    +0.000 HD
BRANCH   6  10
ATOM     10  C   UNL     1       7.512   4.900  13.636  0.00  0.00    +0.000 C 
BRANCH  10  11
ATOM     11  C   UNL     1       6.828   4.348  12.385  0.00  0.00    +0.000 C 
BRANCH  11  13
ATOM     12  C   UNL     1       5.472   2.339  11.679  0.00  0.00    +0.000 C 
ATOM     13  C   UNL     1       5.657   3.424  12.726  0.00  0.00    +0.000 C 
ENDBRANCH  11  13
ENDBRANCH  10  11
ENDBRANCH   6  10
ENDBRANCH   1   7
BRANCH   4  14
ATOM     14  C   UNL     1       3.661   2.438  18.211  0.00  0.00    +0.000 C 
BRANCH  14  15
ATOM     15  S   UNL     1       2.042   3.114  17.910  0.00  0.00    +0.000 S 
ATOM     16  O   UNL     1       1.950   3.438  16.497  0.00  0.00    +0.000 OA
ATOM     17  O   UNL     1       1.082   2.163  18.459  0.00  0.00    +0.000 OA
BRANCH  15  18
ATOM     18  C   UNL     1       1.862   4.651  18.810  0.00  0.00    +0.000 A 
ATOM     19  C   UNL     1       2.320   5.800  18.119  0.00  0.00    +0.000 A 
ATOM     20  C   UNL     1       2.450   7.038  18.751  0.00  0.00    +0.000 A 
ATOM     21  C   UNL     1       2.097   7.163  20.083  0.00  0.00    +0.000 A 
ATOM     22  C   UNL     1       1.638   6.042  20.774  0.00  0.00    +0.000 A 
ATOM     23  C   UNL     1       1.535   4.768  20.169  0.00  0.00    +0.000 A 
BRANCH  23  24
ATOM     24  O   UNL     1       1.272   3.829  21.122  0.00  0.00    +0.000 OA
ATOM     25  C   UNL     1       2.304   3.137  21.789  0.00  0.00    +0.000 C 
ENDBRANCH  23  24
ENDBRANCH  15  18
ENDBRANCH  14  15
ENDBRANCH   4  14
TORSDOF 8
ENDMDL
MODEL 2
REMARK VINA RESULT:      -7.0      2.272      3.549
REMARK  Name = 
REMARK  10 active torsions:
REMARK  status: ('A' for Active; 'I' for Inactive)
REMARK    1  A    between atoms: C_1  and  C_2
REMARK    2  A    between atoms: C_2  and  C_3
REMARK    3  A    between atoms: C_3  and  C_4
REMARK    4  A    between atoms: C_4  and  N_5
REMARK    5  A    between atoms: C_6  and  C_8
REMARK    6  A    between atoms: C_11  and  C_12
REMARK    7  A    between atoms: C_12  and  S_13
REMARK    8  A    between atoms: S_13  and  C_16
REMARK    9  A    between atoms: C_21  and  O_22
REMARK   10  A    between atoms: O_22  and  C_23
REMARK                            x       y       z     vdW  Elec       q    Type
REMARK                         _______ _______ _______ _____ _____    ______ ____
ROOT
ATOM      1  C   UNL     1       6.354   4.410  14.098  0.00  0.00    +0.000 A 
ATOM      2  C   UNL     1       7.437   4.925  14.782  0.00  0.00    +0.000 A 
ATOM      3  C   UNL     1       6.966   5.330  16.050  0.00  0.00    +0.000 A 
ATOM      4  C   UNL     1       5.617   5.046  16.070  0.00  0.00    +0.000 A 
ATOM      5  O   UNL     1       5.241   4.458  14.900  0.00  0.00    +0.000 OA
ENDROOT
BRANCH   1   7
ATOM      6  N   UNL     1       5.081   3.200  12.499  0.00  0.00    +0.000 N 
ATOM      7  C   UNL     1       6.260   3.864  12.755  0.00  0.00    +0.000 C 
ATOM      8  O   UNL     1       7.148   3.987  11.921  0.00  0.00    +0.000 OA
ATOM      9  H   UNL     1       4.417   3.103  13.258  0.00  0.00    +0.000 HD
BRANCH   6  10
ATOM     10  C   UNL     1       4.831   2.534  11.241  0.00  0.00    +0.000 C 
BRANCH  10  11
ATOM     11  C   UNL     1       3.470   2.899  10.647  0.00  0.00    +0.000 C 
BRANCH  11  13
ATOM     12  C   UNL     1       2.410   4.581   9.092  0.00  0.00    +0.000 C 
ATOM     13  C   UNL     1       3.399   4.368  10.225  0.00  0.00    +0.000 C 
ENDBRANCH  11  13
ENDBRANCH  10  11
ENDBRANCH   6  10
ENDBRANCH   1   7
BRANCH   4  14
ATOM     14  C   UNL     1       4.591   5.184  17.121  0.00  0.00    +0.000 C 
BRANCH  14  15
ATOM     15  S   UNL     1       4.595   3.824  18.269  0.00  0.00    +0.000 S 
ATOM     16  O   UNL     1       4.418   2.600  17.508  0.00  0.00    +0.000 OA
ATOM     17  O   UNL     1       5.801   3.960  19.077  0.00  0.00    +0.000 OA
BRANCH  15  18
ATOM     18  C   UNL     1       3.186   3.964  19.365  0.00  0.00    +0.000 A 
ATOM     19  C   UNL     1       2.398   2.791  19.471  0.00  0.00    +0.000 A 
ATOM     20  C   UNL     1       1.156   2.793  20.108  0.00  0.00    +0.000 A 
ATOM     21  C   UNL     1       0.685   3.961  20.679  0.00  0.00    +0.000 A 
ATOM     22  C   UNL     1       1.453   5.122  20.589  0.00  0.00    +0.000 A 
ATOM     23  C   UNL     1       2.695   5.158  19.914  0.00  0.00    +0.000 A 
BRANCH  23  24
ATOM     24  O   UNL     1       3.114   6.450  19.796  0.00  0.00    +0.000 OA
ATOM     25  C   UNL     1       2.299   7.445  19.217  0.00  0.00    +0.000 C 
ENDBRANCH  23  24
ENDBRANCH  15  18
ENDBRANCH  14  15
ENDBRANCH   4  14
TORSDOF 8
ENDMDL
MODEL 3
REMARK VINA RESULT:      -6.9      2.287      3.597
REMARK  Name = 
REMARK  10 active torsions:
REMARK  status: ('A' for Active; 'I' for Inactive)
REMARK    1  A    between atoms: C_1  and  C_2
REMARK    2  A    between atoms: C_2  and  C_3
REMARK    3  A    between atoms: C_3  and  C_4
REMARK    4  A    between atoms: C_4  and  N_5
REMARK    5  A    between atoms: C_6  and  C_8
REMARK    6  A    between atoms: C_11  and  C_12
REMARK    7  A    between atoms: C_12  and  S_13
REMARK    8  A    between atoms: S_13  and  C_16
REMARK    9  A    between atoms: C_21  and  O_22
REMARK   10  A    between atoms: O_22  and  C_23
REMARK                            x       y       z     vdW  Elec       q    Type
REMARK                         _______ _______ _______ _____ _____    ______ ____
ROOT
ATOM      1  C   UNL     1       6.590   4.324  14.238  0.00  0.00    +0.000 A 
ATOM      2  C   UNL     1       7.423   5.257  14.823  0.00  0.00    +0.000 A 
ATOM      3  C   UNL     1       7.113   5.277  16.201  0.00  0.00    +0.000 A 
ATOM      4  C   UNL     1       6.102   4.358  16.383  0.00  0.00    +0.000 A 
ATOM      5  O   UNL     1       5.798   3.750  15.201  0.00  0.00    +0.000 OA
ENDROOT
BRANCH   1   7
ATOM      6  N   UNL     1       5.441   3.019  12.620  0.00  0.00    +0.000 N 
ATOM      7  C   UNL     1       6.469   3.906  12.853  0.00  0.00    +0.000 C 
ATOM      8  O   UNL     1       7.210   4.310  11.966  0.00  0.00    +0.000 OA
ATOM      9  H   UNL     1       4.903   2.698  13.417  0.00  0.00    +0.000 HD
BRANCH   6  10
ATOM     10  C   UNL     1       5.204   2.440  11.318  0.00  0.00    +0.000 C 
BRANCH  10  11
ATOM     11  C   UNL     1       3.760   2.627  10.850  0.00  0.00    +0.000 C 
BRANCH  11  13
ATOM     12  C   UNL     1       2.846   4.348   9.246  0.00  0.00    +0.000 C 
ATOM     13  C   UNL     1       3.407   4.100  10.636  0.00  0.00    +0.000 C 
ENDBRANCH  11  13
ENDBRANCH  10  11
ENDBRANCH   6  10
ENDBRANCH   1   7
BRANCH   4  14
ATOM     14  C   UNL     1       5.396   3.887  17.590  0.00  0.00    +0.000 C 
BRANCH  14  15
ATOM     15  S   UNL     1       4.929   5.217  18.676  0.00  0.00    +0.000 S 
ATOM     16  O   UNL     1       6.039   5.464  19.581  0.00  0.00    +0.000 OA
ATOM     17  O   UNL     1       4.481   6.315  17.827  0.00  0.00    +0.000 OA
BRANCH  15  18
ATOM     18  C   UNL     1       3.540   4.705  19.684  0.00  0.00    +0.000 A 
ATOM     19  C   UNL     1       3.416   3.304  19.856  0.00  0.00    +0.000 A 
ATOM     20  C   UNL     1       2.280   2.730  20.427  0.00  0.00    +0.000 A 
ATOM     21  C   UNL     1       1.252   3.544  20.866  0.00  0.00    +0.000 A 
ATOM     22  C   UNL     1       1.363   4.926  20.709  0.00  0.00    +0.000 A 
ATOM     23  C   UNL     1       2.485   5.531  20.097  0.00  0.00    +0.000 A 
BRANCH  23  24
ATOM     24  O   UNL     1       2.231   6.854  19.884  0.00  0.00    +0.000 OA
ATOM     25  C   UNL     1       1.411   7.603  20.754  0.00  0.00    +0.000 C 
ENDBRANCH  23  24
ENDBRANCH  15  18
ENDBRANCH  14  15
ENDBRANCH   4  14
TORSDOF 8
ENDMDL
MODEL 4
REMARK VINA RESULT:      -6.8      4.118      5.862
REMARK  Name = 
REMARK  10 active torsions:
REMARK  status: ('A' for Active; 'I' for Inactive)
REMARK    1  A    between atoms: C_1  and  C_2
REMARK    2  A    between atoms: C_2  and  C_3
REMARK    3  A    between atoms: C_3  and  C_4
REMARK    4  A    between atoms: C_4  and  N_5
REMARK    5  A    between atoms: C_6  and  C_8
REMARK    6  A    between atoms: C_11  and  C_12
REMARK    7  A    between atoms: C_12  and  S_13
REMARK    8  A    between atoms: S_13  and  C_16
REMARK    9  A    between atoms: C_21  and  O_22
REMARK   10  A    between atoms: O_22  and  C_23
REMARK                            x       y       z     vdW  Elec       q    Type
REMARK                         _______ _______ _______ _____ _____    ______ ____
ROOT
ATOM      1  C   UNL     1       8.007   7.530  18.166  0.00  0.00    +0.000 A 
ATOM      2  C   UNL     1       8.103   6.580  19.163  0.00  0.00    +0.000 A 
ATOM      3  C   UNL     1       7.727   5.345  18.590  0.00  0.00    +0.000 A 
ATOM      4  C   UNL     1       7.415   5.609  17.273  0.00  0.00    +0.000 A 
ATOM      5  O   UNL     1       7.612   6.929  16.997  0.00  0.00    +0.000 OA
ENDROOT
BRANCH   1   7
ATOM      6  N   UNL     1       9.245   9.336  19.085  0.00  0.00    +0.000 N 
ATOM      7  C   UNL     1       8.260   8.960  18.199  0.00  0.00    +0.000 C 
ATOM      8  O   UNL     1       7.657   9.761  17.497  0.00  0.00    +0.000 OA
ATOM      9  H   UNL     1       9.663   8.617  19.663  0.00  0.00    +0.000 HD
BRANCH   6  10
ATOM     10  C   UNL     1       9.592  10.722  19.306  0.00  0.00    +0.000 C 
BRANCH  10  11
ATOM     11  C   UNL     1      10.361  11.326  18.130  0.00  0.00    +0.000 C 
BRANCH  11  13
ATOM     12  C   UNL     1      12.092  11.841  19.893  0.00  0.00    +0.000 C 
ATOM     13  C   UNL     1      11.455  12.292  18.590  0.00  0.00    +0.000 C 
ENDBRANCH  11  13
ENDBRANCH  10  11
ENDBRANCH   6  10
ENDBRANCH   1   7
BRANCH   4  14
ATOM     14  C   UNL     1       7.013   4.733  16.156  0.00  0.00    +0.000 C 
BRANCH  14  15
ATOM     15  S   UNL     1       5.391   5.116  15.533  0.00  0.00    +0.000 S 
ATOM     16  O   UNL     1       5.426   6.467  15.000  0.00  0.00    +0.000 OA
ATOM     17  O   UNL     1       5.022   4.033  14.628  0.00  0.00    +0.000 OA
BRANCH  15  18
ATOM     18  C   UNL     1       4.217   5.120  16.885  0.00  0.00    +0.000 A 
ATOM     19  C   UNL     1       3.961   6.397  17.444  0.00  0.00    +0.000 A 
ATOM     20  C   UNL     1       3.244   6.551  18.631  0.00  0.00    +0.000 A 
ATOM     21  C   UNL     1       2.741   5.433  19.274  0.00  0.00    +0.000 A 
ATOM     22  C   UNL     1       2.981   4.171  18.731  0.00  0.00    +0.000 A 
ATOM     23  C   UNL     1       3.738   3.983  17.552  0.00  0.00    +0.000 A 
BRANCH  23  24
ATOM     24  O   UNL     1       3.992   2.655  17.378  0.00  0.00    +0.000 OA
ATOM     25  C   UNL     1       3.551   1.687  18.304  0.00  0.00    +0.000 C 
ENDBRANCH  23  24
ENDBRANCH  15  18
ENDBRANCH  14  15
ENDBRANCH   4  14
TORSDOF 8
ENDMDL
MODEL 5
REMARK VINA RESULT:      -6.7      4.200      6.310
REMARK  Name = 
REMARK  10 active torsions:
REMARK  status: ('A' for Active; 'I' for Inactive)
REMARK    1  A    between atoms: C_1  and  C_2
REMARK    2  A    between atoms: C_2  and  C_3
REMARK    3  A    between atoms: C_3  and  C_4
REMARK    4  A    between atoms: C_4  and  N_5
REMARK    5  A    between atoms: C_6  and  C_8
REMARK    6  A    between atoms: C_11  and  C_12
REMARK    7  A    between atoms: C_12  and  S_13
REMARK    8  A    between atoms: S_13  and  C_16
REMARK    9  A    between atoms: C_21  and  O_22
REMARK   10  A    between atoms: O_22  and  C_23
REMARK                            x       y       z     vdW  Elec       q    Type
REMARK                         _______ _______ _______ _____ _____    ______ ____
ROOT
ATOM      1  C   UNL     1       8.012   7.567  18.099  0.00  0.00    +0.000 A 
ATOM      2  C   UNL     1       8.049   6.582  19.066  0.00  0.00    +0.000 A 
ATOM      3  C   UNL     1       7.665   5.377  18.438  0.00  0.00    +0.000 A 
ATOM      4  C   UNL     1       7.408   5.693  17.120  0.00  0.00    +0.000 A 
ATOM      5  O   UNL     1       7.646   7.016  16.897  0.00  0.00    +0.000 OA
ENDROOT
BRANCH   1   7
ATOM      6  N   UNL     1       9.171   9.322  19.202  0.00  0.00    +0.000 N 
ATOM      7  C   UNL     1       8.298   8.988  18.191  0.00  0.00    +0.000 C 
ATOM      8  O   UNL     1       7.812   9.817  17.433  0.00  0.00    +0.000 OA
ATOM      9  H   UNL     1       9.492   8.582  19.816  0.00  0.00    +0.000 HD
BRANCH   6  10
ATOM     10  C   UNL     1       9.525  10.693  19.492  0.00  0.00    +0.000 C 
BRANCH  10  11
ATOM     11  C   UNL     1       9.313  11.053  20.963  0.00  0.00    +0.000 C 
BRANCH  11  13
ATOM     12  C   UNL     1       9.786  13.400  20.165  0.00  0.00    +0.000 C 
ATOM     13  C   UNL     1       9.909  12.417  21.317  0.00  0.00    +0.000 C 
ENDBRANCH  11  13
ENDBRANCH  10  11
ENDBRANCH   6  10
ENDBRANCH   1   7
BRANCH   4  14
ATOM     14  C   UNL     1       7.026   4.866  15.960  0.00  0.00    +0.000 C 
BRANCH  14  15
ATOM     15  S   UNL     1       5.349   5.150  15.435  0.00  0.00    +0.000 S 
ATOM     16  O   UNL     1       5.220   6.557  15.099  0.00  0.00    +0.000 OA
ATOM     17  O   UNL     1       5.062   4.169  14.395  0.00  0.00    +0.000 OA
BRANCH  15  18
ATOM     18  C   UNL     1       4.235   4.837  16.802  0.00  0.00    +0.000 A 
ATOM     19  C   UNL     1       3.651   3.546  16.807  0.00  0.00    +0.000 A 
ATOM     20  C   UNL     1       2.606   3.214  17.671  0.00  0.00    +0.000 A 
ATOM     21  C   UNL     1       2.140   4.156  18.570  0.00  0.00    +0.000 A 
ATOM     22  C   UNL     1       2.710   5.428  18.580  0.00  0.00    +0.000 A 
ATOM     23  C   UNL     1       3.741   5.805  17.689  0.00  0.00    +0.000 A 
BRANCH  23  24
ATOM     24  O   UNL     1       3.952   7.149  17.775  0.00  0.00    +0.000 OA
ATOM     25  C   UNL     1       2.884   8.070  17.762  0.00  0.00    +0.000 C 
ENDBRANCH  23  24
ENDBRANCH  15  18
ENDBRANCH  14  15
ENDBRANCH   4  14
TORSDOF 8
ENDMDL
MODEL 6
REMARK VINA RESULT:      -6.6      1.670      2.827
REMARK  Name = 
REMARK  10 active torsions:
REMARK  status: ('A' for Active; 'I' for Inactive)
REMARK    1  A    between atoms: C_1  and  C_2
REMARK    2  A    between atoms: C_2  and  C_3
REMARK    3  A    between atoms: C_3  and  C_4
REMARK    4  A    between atoms: C_4  and  N_5
REMARK    5  A    between atoms: C_6  and  C_8
REMARK    6  A    between atoms: C_11  and  C_12
REMARK    7  A    between atoms: C_12  and  S_13
REMARK    8  A    between atoms: S_13  and  C_16
REMARK    9  A    between atoms: C_21  and  O_22
REMARK   10  A    between atoms: O_22  and  C_23
REMARK                            x       y       z     vdW  Elec       q    Type
REMARK                         _______ _______ _______ _____ _____    ______ ____
ROOT
ATOM      1  C   UNL     1       6.721   4.812  15.514  0.00  0.00    +0.000 A 
ATOM      2  C   UNL     1       7.460   4.391  16.602  0.00  0.00    +0.000 A 
ATOM      3  C   UNL     1       6.735   4.758  17.757  0.00  0.00    +0.000 A 
ATOM      4  C   UNL     1       5.593   5.389  17.312  0.00  0.00    +0.000 A 
ATOM      5  O   UNL     1       5.560   5.400  15.950  0.00  0.00    +0.000 OA
ENDROOT
BRANCH   1   7
ATOM      6  N   UNL     1       6.323   3.684  13.463  0.00  0.00    +0.000 N 
ATOM      7  C   UNL     1       6.994   4.709  14.092  0.00  0.00    +0.000 C 
ATOM      8  O   UNL     1       7.749   5.469  13.500  0.00  0.00    +0.000 OA
ATOM      9  H   UNL     1       5.752   3.070  14.033  0.00  0.00    +0.000 HD
BRANCH   6  10
ATOM     10  C   UNL     1       6.517   3.382  12.063  0.00  0.00    +0.000 C 
BRANCH  10  11
ATOM     11  C   UNL     1       5.729   2.149  11.617  0.00  0.00    +0.000 C 
BRANCH  11  13
ATOM     12  C   UNL     1       6.074  -0.328  11.275  0.00  0.00    +0.000 C 
ATOM     13  C   UNL     1       6.636   1.063  11.035  0.00  0.00    +0.000 C 
ENDBRANCH  11  13
ENDBRANCH  10  11
ENDBRANCH   6  10
ENDBRANCH   1   7
BRANCH   4  14
ATOM     14  C   UNL     1       4.426   5.944  18.025  0.00  0.00    +0.000 C 
BRANCH  14  15
ATOM     15  S   UNL     1       2.966   4.945  17.836  0.00  0.00    +0.000 S 
ATOM     16  O   UNL     1       1.846   5.836  17.592  0.00  0.00    +0.000 OA
ATOM     17  O   UNL     1       3.274   3.939  16.825  0.00  0.00    +0.000 OA
BRANCH  15  18
ATOM     18  C   UNL     1       2.625   4.088  19.371  0.00  0.00    +0.000 A 
ATOM     19  C   UNL     1       2.287   2.720  19.224  0.00  0.00    +0.000 A 
ATOM     20  C   UNL     1       1.788   1.966  20.287  0.00  0.00    +0.000 A 
ATOM     21  C   UNL     1       1.642   2.555  21.530  0.00  0.00    +0.000 A 
ATOM     22  C   UNL     1       1.977   3.899  21.691  0.00  0.00    +0.000 A 
ATOM     23  C   UNL     1       2.446   4.697  20.622  0.00  0.00    +0.000 A 
BRANCH  23  24
ATOM     24  O   UNL     1       2.485   6.004  21.008  0.00  0.00    +0.000 OA
ATOM     25  C   UNL     1       1.365   6.851  20.879  0.00  0.00    +0.000 C 
ENDBRANCH  23  24
ENDBRANCH  15  18
ENDBRANCH  14  15
ENDBRANCH   4  14
TORSDOF 8
ENDMDL
MODEL 7
REMARK VINA RESULT:      -6.5      4.108      7.446
REMARK  Name = 
REMARK  10 active torsions:
REMARK  status: ('A' for Active; 'I' for Inactive)
REMARK    1  A    between atoms: C_1  and  C_2
REMARK    2  A    between atoms: C_2  and  C_3
REMARK    3  A    between atoms: C_3  and  C_4
REMARK    4  A    between atoms: C_4  and  N_5
REMARK    5  A    between atoms: C_6  and  C_8
REMARK    6  A    between atoms: C_11  and  C_12
REMARK    7  A    between atoms: C_12  and  S_13
REMARK    8  A    between atoms: S_13  and  C_16
REMARK    9  A    between atoms: C_21  and  O_22
REMARK   10  A    between atoms: O_22  and  C_23
REMARK                            x       y       z     vdW  Elec       q    Type
REMARK                         _______ _______ _______ _____ _____    ______ ____
ROOT
ATOM      1  C   UNL     1       1.800   8.710  18.774  0.00  0.00    +0.000 A 
ATOM      2  C   UNL     1       2.636   8.627  17.678  0.00  0.00    +0.000 A 
ATOM      3  C   UNL     1       3.360   7.421  17.806  0.00  0.00    +0.000 A 
ATOM      4  C   UNL     1       2.931   6.835  18.977  0.00  0.00    +0.000 A 
ATOM      5  O   UNL     1       1.960   7.595  19.557  0.00  0.00    +0.000 OA
ENDROOT
BRANCH   1   7
ATOM      6  N   UNL     1      -0.357   9.665  18.499  0.00  0.00    +0.000 N 
ATOM      7  C   UNL     1       0.850   9.739  19.158  0.00  0.00    +0.000 C 
ATOM      8  O   UNL     1       1.096  10.595  19.999  0.00  0.00    +0.000 OA
ATOM      9  H   UNL     1      -0.463   8.955  17.783  0.00  0.00    +0.000 HD
BRANCH   6  10
ATOM     10  C   UNL     1      -1.404  10.640  18.698  0.00  0.00    +0.000 C 
BRANCH  10  11
ATOM     11  C   UNL     1      -2.683  10.287  17.938  0.00  0.00    +0.000 C 
BRANCH  11  13
ATOM     12  C   UNL     1      -4.607  11.315  16.666  0.00  0.00    +0.000 C 
ATOM     13  C   UNL     1      -3.635  11.479  17.823  0.00  0.00    +0.000 C 
ENDBRANCH  11  13
ENDBRANCH  10  11
ENDBRANCH   6  10
ENDBRANCH   1   7
BRANCH   4  14
ATOM     14  C   UNL     1       3.265   5.551  19.623  0.00  0.00    +0.000 C 
BRANCH  14  15
ATOM     15  S   UNL     1       3.419   4.215  18.458  0.00  0.00    +0.000 S 
ATOM     16  O   UNL     1       3.654   2.994  19.209  0.00  0.00    +0.000 OA
ATOM     17  O   UNL     1       2.244   4.272  17.596  0.00  0.00    +0.000 OA
BRANCH  15  18
ATOM     18  C   UNL     1       4.862   4.481  17.432  0.00  0.00    +0.000 A 
ATOM     19  C   UNL     1       4.661   4.236  16.051  0.00  0.00    +0.000 A 
ATOM     20  C   UNL     1       5.725   4.187  15.149  0.00  0.00    +0.000 A 
ATOM     21  C   UNL     1       7.013   4.411  15.601  0.00  0.00    +0.000 A 
ATOM     22  C   UNL     1       7.224   4.661  16.957  0.00  0.00    +0.000 A 
ATOM     23  C   UNL     1       6.170   4.675  17.899  0.00  0.00    +0.000 A 
BRANCH  23  24
ATOM     24  O   UNL     1       6.685   4.725  19.160  0.00  0.00    +0.000 OA
ATOM     25  C   UNL     1       7.660   5.675  19.528  0.00  0.00    +0.000 C 
ENDBRANCH  23  24
ENDBRANCH  15  18
ENDBRANCH  14  15
ENDBRANCH   4  14
TORSDOF 8
ENDMDL
MODEL 8
REMARK VINA RESULT:      -6.3      3.085      7.080
REMARK  Name = 
REMARK  10 active torsions:
REMARK  status: ('A' for Active; 'I' for Inactive)
REMARK    1  A    between atoms: C_1  and  C_2
REMARK    2  A    between atoms: C_2  and  C_3
REMARK    3  A    between atoms: C_3  and  C_4
REMARK    4  A    between atoms: C_4  and  N_5
REMARK    5  A    between atoms: C_6  and  C_8
REMARK    6  A    between atoms: C_11  and  C_12
REMARK    7  A    between atoms: C_12  and  S_13
REMARK    8  A    between atoms: S_13  and  C_16
REMARK    9  A    between atoms: C_21  and  O_22
REMARK   10  A    between atoms: O_22  and  C_23
REMARK                            x       y       z     vdW  Elec       q    Type
REMARK                         _______ _______ _______ _____ _____    ______ ____
ROOT
ATOM      1  C   UNL     1       2.201   6.768  19.739  0.00  0.00    +0.000 A 
ATOM      2  C   UNL     1       1.530   6.129  20.762  0.00  0.00    +0.000 A 
ATOM      3  C   UNL     1       2.058   4.821  20.845  0.00  0.00    +0.000 A 
ATOM      4  C   UNL     1       3.021   4.731  19.863  0.00  0.00    +0.000 A 
ATOM      5  O   UNL     1       3.138   5.918  19.205  0.00  0.00    +0.000 OA
ENDROOT
BRANCH   1   7
ATOM      6  N   UNL     1       1.292   8.946  20.001  0.00  0.00    +0.000 N 
ATOM      7  C   UNL     1       2.055   8.113  19.213  0.00  0.00    +0.000 C 
ATOM      8  O   UNL     1       2.570   8.480  18.164  0.00  0.00    +0.000 OA
ATOM      9  H   UNL     1       0.862   8.552  20.830  0.00  0.00    +0.000 HD
BRANCH   6  10
ATOM     10  C   UNL     1       0.980  10.302  19.611  0.00  0.00    +0.000 C 
BRANCH  10  11
ATOM     11  C   UNL     1       0.448  11.137  20.776  0.00  0.00    +0.000 C 
BRANCH  11  13
ATOM     12  C   UNL     1      -0.377  10.150  22.948  0.00  0.00    +0.000 C 
ATOM     13  C   UNL     1      -0.713  10.449  21.497  0.00  0.00    +0.000 C 
ENDBRANCH  11  13
ENDBRANCH  10  11
ENDBRANCH   6  10
ENDBRANCH   1   7
BRANCH   4  14
ATOM     14  C   UNL     1       3.954   3.651  19.487  0.00  0.00    +0.000 C 
BRANCH  14  15
ATOM     15  S   UNL     1       3.803   3.176  17.778  0.00  0.00    +0.000 S 
ATOM     16  O   UNL     1       4.059   1.749  17.689  0.00  0.00    +0.000 OA
ATOM     17  O   UNL     1       2.510   3.670  17.318  0.00  0.00    +0.000 OA
BRANCH  15  18
ATOM     18  C   UNL     1       5.072   3.994  16.817  0.00  0.00    +0.000 A 
ATOM     19  C   UNL     1       4.880   3.941  15.414  0.00  0.00    +0.000 A 
ATOM     20  C   UNL     1       5.875   4.337  14.518  0.00  0.00    +0.000 A 
ATOM     21  C   UNL     1       7.075   4.823  15.004  0.00  0.00    +0.000 A 
ATOM     22  C   UNL     1       7.275   4.887  16.383  0.00  0.00    +0.000 A 
ATOM     23  C   UNL     1       6.301   4.455  17.312  0.00  0.00    +0.000 A 
BRANCH  23  24
ATOM     24  O   UNL     1       6.842   4.429  18.563  0.00  0.00    +0.000 OA
ATOM     25  C   UNL     1       7.174   5.612  19.254  0.00  0.00    +0.000 C 
ENDBRANCH  23  24
ENDBRANCH  15  18
ENDBRANCH  14  15
ENDBRANCH   4  14
TORSDOF 8
ENDMDL
MODEL 9
REMARK VINA RESULT:      -6.3      3.553      7.471
REMARK  Name = 
REMARK  10 active torsions:
REMARK  status: ('A' for Active; 'I' for Inactive)
REMARK    1  A    between atoms: C_1  and  C_2
REMARK    2  A    between atoms: C_2  and  C_3
REMARK    3  A    between atoms: C_3  and  C_4
REMARK    4  A    between atoms: C_4  and  N_5
REMARK    5  A    between atoms: C_6  and  C_8
REMARK    6  A    between atoms: C_11  and  C_12
REMARK    7  A    between atoms: C_12  and  S_13
REMARK    8  A    between atoms: S_13  and  C_16
REMARK    9  A    between atoms: C_21  and  O_22
REMARK   10  A    between atoms: O_22  and  C_23
REMARK                            x       y       z     vdW  Elec       q    Type
REMARK                         _______ _______ _______ _____ _____    ______ ____
ROOT
ATOM      1  C   UNL     1       1.909   7.718  19.246  0.00  0.00    +0.000 A 
ATOM      2  C   UNL     1       1.570   7.282  20.512  0.00  0.00    +0.000 A 
ATOM      3  C   UNL     1       1.869   5.902  20.562  0.00  0.00    +0.000 A 
ATOM      4  C   UNL     1       2.369   5.569  19.321  0.00  0.00    +0.000 A 
ATOM      5  O   UNL     1       2.427   6.673  18.524  0.00  0.00    +0.000 OA
ENDROOT
BRANCH   1   7
ATOM      6  N   UNL     1       1.180   9.970  19.442  0.00  0.00    +0.000 N 
ATOM      7  C   UNL     1       1.802   9.036  18.644  0.00  0.00    +0.000 C 
ATOM      8  O   UNL     1       2.233   9.297  17.528  0.00  0.00    +0.000 OA
ATOM      9  H   UNL     1       0.811   9.661  20.334  0.00  0.00    +0.000 HD
BRANCH   6  10
ATOM     10  C   UNL     1       0.923  11.319  18.991  0.00  0.00    +0.000 C 
BRANCH  10  11
ATOM     11  C   UNL     1       0.326  12.198  20.090  0.00  0.00    +0.000 C 
BRANCH  11  13
ATOM     12  C   UNL     1      -0.858  12.134  22.319  0.00  0.00    +0.000 C 
ATOM     13  C   UNL     1       0.129  11.433  21.400  0.00  0.00    +0.000 C 
ENDBRANCH  11  13
ENDBRANCH  10  11
ENDBRANCH   6  10
ENDBRANCH   1   7
BRANCH   4  14
ATOM     14  C   UNL     1       2.904   4.307  18.775  0.00  0.00    +0.000 C 
BRANCH  14  15
ATOM     15  S   UNL     1       4.657   4.135  19.033  0.00  0.00    +0.000 S 
ATOM     16  O   UNL     1       5.076   5.176  19.955  0.00  0.00    +0.000 OA
ATOM     17  O   UNL     1       4.891   2.747  19.415  0.00  0.00    +0.000 OA
BRANCH  15  18
ATOM     18  C   UNL     1       5.519   4.428  17.491  0.00  0.00    +0.000 A 
ATOM     19  C   UNL     1       4.741   4.210  16.326  0.00  0.00    +0.000 A 
ATOM     20  C   UNL     1       5.312   4.185  15.053  0.00  0.00    +0.000 A 
ATOM     21  C   UNL     1       6.670   4.404  14.911  0.00  0.00    +0.000 A 
ATOM     22  C   UNL     1       7.447   4.626  16.048  0.00  0.00    +0.000 A 
ATOM     23  C   UNL     1       6.902   4.617  17.353  0.00  0.00    +0.000 A 
BRANCH  23  24
ATOM     24  O   UNL     1       7.910   4.642  18.270  0.00  0.00    +0.000 OA
ATOM     25  C   UNL     1       8.144   5.769  19.085  0.00  0.00    +0.000 C 
ENDBRANCH  23  24
ENDBRANCH  15  18
ENDBRANCH  14  15
ENDBRANCH   4  14
TORSDOF 8
ENDMDL
