MODEL 1
REMARK VINA RESULT:      -7.8      0.000      0.000
REMARK  Name = 
REMARK  5 active torsions:
REMARK  status: ('A' for Active; 'I' for Inactive)
REMARK    1  A    between atoms: C_1  and  O_2
REMARK    2  A    between atoms: O_2  and  C_3
REMARK    3  A    between atoms: C_7  and  C_8
REMARK    4  A    between atoms: C_10  and  C_11
REMARK    5  A    between atoms: C_16  and  C_17
REMARK                            x       y       z     vdW  Elec       q    Type
REMARK                         _______ _______ _______ _____ _____    ______ ____
ROOT
ATOM      1  C   UNL     1       8.547   8.988  18.494  0.00  0.00    +0.000 A 
ATOM      2  C   UNL     1       7.707   8.617  17.477  0.00  0.00    +0.000 A 
ATOM      3  C   UNL     1       7.450   7.246  17.690  0.00  0.00    +0.000 A 
ATOM      4  N   UNL     1       8.099   6.797  18.781  0.00  0.00    +0.000 NA
ATOM      5  O   UNL     1       8.797   7.901  19.277  0.00  0.00    +0.000 OA
ENDROOT
BRANCH   3   6
ATOM      6  C   UNL     1       6.586   6.417  16.848  0.00  0.00    +0.000 C 
ATOM      7  O   UNL     1       5.421   6.225  17.180  0.00  0.00    +0.000 OA
ATOM      8  N   UNL     1       7.213   5.920  15.727  0.00  0.00    +0.000 N 
ATOM      9  C   UNL     1       6.591   5.093  14.814  0.00  0.00    +0.000 A 
ATOM     10  C   UNL     1       7.221   4.542  13.671  0.00  0.00    +0.000 A 
ATOM     11  C   UNL     1       6.245   3.783  13.070  0.00  0.00    +0.000 A 
ATOM     12  C   UNL     1       6.177   2.930  11.873  0.00  0.00    +0.000 C 
ATOM     13  O   UNL     1       5.102   3.879  13.793  0.00  0.00    +0.000 OA
ATOM     14  N   UNL     1       5.318   4.695  14.879  0.00  0.00    +0.000 NA
ATOM     15  H   UNL     1       8.188   6.157  15.584  0.00  0.00    +0.000 HD
ENDBRANCH   3   6
BRANCH   1  20
ATOM     16  C   UNL     1      10.078  12.381  18.044  0.00  0.00    +0.000 A 
ATOM     17  C   UNL     1      10.566  12.634  19.325  0.00  0.00    +0.000 A 
ATOM     18  C   UNL     1      10.340  11.727  20.363  0.00  0.00    +0.000 A 
ATOM     19  C   UNL     1       9.644  10.540  20.119  0.00  0.00    +0.000 A 
ATOM     20  C   UNL     1       9.167  10.258  18.836  0.00  0.00    +0.000 A 
ATOM     21  C   UNL     1       9.367  11.206  17.814  0.00  0.00    +0.000 A 
BRANCH  16  23
ATOM     22  C   UNL     1      11.445  14.222  17.404  0.00  0.00    +0.000 C 
ATOM     23  O   UNL     1      10.378  13.328  17.103  0.00  0.00    +0.000 OA
ENDBRANCH  16  23
ENDBRANCH   1  20
TORSDOF 3
ENDMDL
MODEL 2
REMARK VINA RESULT:      -7.6      2.979      3.740
REMARK  Name = 
REMARK  5 active torsions:
REMARK  status: ('A' for Active; 'I' for Inactive)
REMARK    1  A    between atoms: C_1  and  O_2
REMARK    2  A    between atoms: O_2  and  C_3
REMARK    3  A    between atoms: C_7  and  C_8
REMARK    4  A    between atoms: C_10  and  C_11
REMARK    5  A    between atoms: C_16  and  C_17
REMARK                            x       y       z     vdW  Elec       q    Type
REMARK                         _______ _______ _______ _____ _____    ______ ____
ROOT
ATOM      1  C   UNL     1       8.512   8.921  18.296  0.00  0.00    +0.000 A 
ATOM      2  C   UNL     1       8.149   7.815  19.020  0.00  0.00    +0.000 A 
ATOM      3  C   UNL     1       7.512   6.959  18.096  0.00  0.00    +0.000 A 
ATOM      4  N   UNL     1       7.483   7.511  16.869  0.00  0.00    +0.000 NA
ATOM      5  O   UNL     1       8.108   8.754  17.005  0.00  0.00    +0.000 OA
ENDROOT
BRANCH   3   6
ATOM      6  C   UNL     1       6.962   5.643  18.420  0.00  0.00    +0.000 C 
ATOM      7  O   UNL     1       7.664   4.645  18.292  0.00  0.00    +0.000 OA
ATOM      8  N   UNL     1       5.653   5.675  18.846  0.00  0.00    +0.000 N 
ATOM      9  C   UNL     1       4.933   4.544  19.174  0.00  0.00    +0.000 A 
ATOM     10  C   UNL     1       3.577   4.547  19.585  0.00  0.00    +0.000 A 
ATOM     11  C   UNL     1       3.275   3.222  19.788  0.00  0.00    +0.000 A 
ATOM     12  C   UNL     1       2.075   2.478  20.203  0.00  0.00    +0.000 C 
ATOM     13  O   UNL     1       4.376   2.472  19.532  0.00  0.00    +0.000 OA
ATOM     14  N   UNL     1       5.408   3.297  19.149  0.00  0.00    +0.000 NA
ATOM     15  H   UNL     1       5.193   6.577  18.896  0.00  0.00    +0.000 HD
ENDBRANCH   3   6
BRANCH   1  20
ATOM     16  C   UNL     1      10.387  12.145  17.910  0.00  0.00    +0.000 A 
ATOM     17  C   UNL     1      10.741  12.416  19.230  0.00  0.00    +0.000 A 
ATOM     18  C   UNL     1      10.314  11.582  20.266  0.00  0.00    +0.000 A 
ATOM     19  C   UNL     1       9.547  10.449  19.984  0.00  0.00    +0.000 A 
ATOM     20  C   UNL     1       9.200  10.148  18.664  0.00  0.00    +0.000 A 
ATOM     21  C   UNL     1       9.604  11.025  17.639  0.00  0.00    +0.000 A 
BRANCH  16  23
ATOM     22  C   UNL     1      12.276  13.296  17.030  0.00  0.00    +0.000 C 
ATOM     23  O   UNL     1      10.880  13.017  16.978  0.00  0.00    +0.000 OA
ENDBRANCH  16  23
ENDBRANCH   1  20
TORSDOF 3
ENDMDL
MODEL 3
REMARK VINA RESULT:      -7.4      6.944     10.150
REMARK  Name = 
REMARK  5 active torsions:
REMARK  status: ('A' for Active; 'I' for Inactive)
REMARK    1  A    between atoms: C_1  and  O_2
REMARK    2  A    between atoms: O_2  and  C_3
REMARK    3  A    between atoms: C_7  and  C_8
REMARK    4  A    between atoms: C_10  and  C_11
REMARK    5  A    between atoms: C_16  and  C_17
REMARK                            x       y       z     vdW  Elec       q    Type
REMARK                         _______ _______ _______ _____ _____    ______ ____
ROOT
ATOM      1  C   UNL     1       2.688   7.298  18.395  0.00  0.00    +0.000 A 
ATOM      2  C   UNL     1       2.228   7.462  19.675  0.00  0.00    +0.000 A 
ATOM      3  C   UNL     1       1.543   8.696  19.669  0.00  0.00    +0.000 A 
ATOM      4  N   UNL     1       1.582   9.263  18.448  0.00  0.00    +0.000 NA
ATOM      5  O   UNL     1       2.314   8.378  17.652  0.00  0.00    +0.000 OA
ENDROOT
BRANCH   3   6
ATOM      6  C   UNL     1       0.871   9.284  20.828  0.00  0.00    +0.000 C 
ATOM      7  O   UNL     1       0.560   8.569  21.775  0.00  0.00    +0.000 OA
ATOM      8  N   UNL     1       0.647  10.639  20.714  0.00  0.00    +0.000 N 
ATOM      9  C   UNL     1       0.002  11.384  21.679  0.00  0.00    +0.000 A 
ATOM     10  C   UNL     1      -0.269  12.771  21.574  0.00  0.00    +0.000 A 
ATOM     11  C   UNL     1      -0.930  13.084  22.737  0.00  0.00    +0.000 A 
ATOM     12  C   UNL     1      -1.516  14.307  23.307  0.00  0.00    +0.000 C 
ATOM     13  O   UNL     1      -1.039  11.967  23.499  0.00  0.00    +0.000 OA
ATOM     14  N   UNL     1      -0.458  10.908  22.839  0.00  0.00    +0.000 NA
ATOM     15  H   UNL     1       0.953  11.100  19.865  0.00  0.00    +0.000 HD
ENDBRANCH   3   6
BRANCH   1  20
ATOM     16  C   UNL     1       5.209   5.642  16.168  0.00  0.00    +0.000 A 
ATOM     17  C   UNL     1       4.847   4.301  16.294  0.00  0.00    +0.000 A 
ATOM     18  C   UNL     1       3.818   3.922  17.159  0.00  0.00    +0.000 A 
ATOM     19  C   UNL     1       3.122   4.888  17.888  0.00  0.00    +0.000 A 
ATOM     20  C   UNL     1       3.455   6.239  17.759  0.00  0.00    +0.000 A 
ATOM     21  C   UNL     1       4.524   6.597  16.915  0.00  0.00    +0.000 A 
BRANCH  16  23
ATOM     22  C   UNL     1       7.094   4.821  14.967  0.00  0.00    +0.000 C 
ATOM     23  O   UNL     1       6.215   5.898  15.276  0.00  0.00    +0.000 OA
ENDBRANCH  16  23
ENDBRANCH   1  20
TORSDOF 3
ENDMDL
MODEL 4
REMARK VINA RESULT:      -7.4      5.765      8.695
REMARK  Name = 
REMARK  5 active torsions:
REMARK  status: ('A' for Active; 'I' for Inactive)
REMARK    1  A    between atoms: C_1  and  O_2
REMARK    2  A    between atoms: O_2  and  C_3
REMARK    3  A    between atoms: C_7  and  C_8
REMARK    4  A    between atoms: C_10  and  C_11
REMARK    5  A    between atoms: C_16  and  C_17
REMARK                            x       y       z     vdW  Elec       q    Type
REMARK                         _______ _______ _______ _____ _____    ______ ____
ROOT
ATOM      1  C   UNL     1       5.711   4.882  15.821  0.00  0.00    +0.000 A 
ATOM      2  C   UNL     1       4.667   5.608  16.333  0.00  0.00    +0.000 A 
ATOM      3  C   UNL     1       4.762   5.457  17.733  0.00  0.00    +0.000 A 
ATOM      4  N   UNL     1       5.808   4.677  18.065  0.00  0.00    +0.000 NA
ATOM      5  O   UNL     1       6.397   4.310  16.851  0.00  0.00    +0.000 OA
ENDROOT
BRANCH   3   6
ATOM      6  C   UNL     1       3.853   6.071  18.702  0.00  0.00    +0.000 C 
ATOM      7  O   UNL     1       3.726   5.570  19.814  0.00  0.00    +0.000 OA
ATOM      8  N   UNL     1       3.208   7.192  18.228  0.00  0.00    +0.000 N 
ATOM      9  C   UNL     1       2.287   7.907  18.967  0.00  0.00    +0.000 A 
ATOM     10  C   UNL     1       1.588   9.044  18.493  0.00  0.00    +0.000 A 
ATOM     11  C   UNL     1       0.779   9.414  19.541  0.00  0.00    +0.000 A 
ATOM     12  C   UNL     1      -0.214  10.476  19.768  0.00  0.00    +0.000 C 
ATOM     13  O   UNL     1       0.986   8.567  20.580  0.00  0.00    +0.000 OA
ATOM     14  N   UNL     1       1.926   7.628  20.221  0.00  0.00    +0.000 NA
ATOM     15  H   UNL     1       3.407   7.488  17.279  0.00  0.00    +0.000 HD
ENDBRANCH   3   6
BRANCH   1  20
ATOM     16  C   UNL     1       5.820   3.432  12.365  0.00  0.00    +0.000 A 
ATOM     17  C   UNL     1       7.045   3.912  11.904  0.00  0.00    +0.000 A 
ATOM     18  C   UNL     1       7.815   4.769  12.695  0.00  0.00    +0.000 A 
ATOM     19  C   UNL     1       7.375   5.131  13.971  0.00  0.00    +0.000 A 
ATOM     20  C   UNL     1       6.160   4.642  14.459  0.00  0.00    +0.000 A 
ATOM     21  C   UNL     1       5.378   3.815  13.629  0.00  0.00    +0.000 A 
BRANCH  16  23
ATOM     22  C   UNL     1       3.884   3.000  11.048  0.00  0.00    +0.000 C 
ATOM     23  O   UNL     1       5.164   2.584  11.514  0.00  0.00    +0.000 OA
ENDBRANCH  16  23
ENDBRANCH   1  20
TORSDOF 3
ENDMDL
MODEL 5
REMARK VINA RESULT:      -7.4      6.128      7.516
REMARK  Name = 
REMARK  5 active torsions:
REMARK  status: ('A' for Active; 'I' for Inactive)
REMARK    1  A    between atoms: C_1  and  O_2
REMARK    2  A    between atoms: O_2  and  C_3
REMARK    3  A    between atoms: C_7  and  C_8
REMARK    4  A    between atoms: C_10  and  C_11
REMARK    5  A    between atoms: C_16  and  C_17
REMARK                            x       y       z     vdW  Elec       q    Type
REMARK                         _______ _______ _______ _____ _____    ______ ____
ROOT
ATOM      1  C   UNL     1       1.672   7.768  20.036  0.00  0.00    +0.000 A 
ATOM      2  C   UNL     1       2.420   7.318  18.980  0.00  0.00    +0.000 A 
ATOM      3  C   UNL     1       2.745   5.982  19.298  0.00  0.00    +0.000 A 
ATOM      4  N   UNL     1       2.226   5.629  20.488  0.00  0.00    +0.000 NA
ATOM      5  O   UNL     1       1.557   6.766  20.953  0.00  0.00    +0.000 OA
ENDROOT
BRANCH   3   6
ATOM      6  C   UNL     1       3.534   5.090  18.447  0.00  0.00    +0.000 C 
ATOM      7  O   UNL     1       3.652   3.908  18.754  0.00  0.00    +0.000 OA
ATOM      8  N   UNL     1       4.088   5.712  17.350  0.00  0.00    +0.000 N 
ATOM      9  C   UNL     1       4.891   5.063  16.435  0.00  0.00    +0.000 A 
ATOM     10  C   UNL     1       5.497   5.685  15.316  0.00  0.00    +0.000 A 
ATOM     11  C   UNL     1       6.207   4.679  14.703  0.00  0.00    +0.000 A 
ATOM     12  C   UNL     1       7.074   4.588  13.518  0.00  0.00    +0.000 C 
ATOM     13  O   UNL     1       6.030   3.527  15.396  0.00  0.00    +0.000 OA
ATOM     14  N   UNL     1       5.210   3.767  16.475  0.00  0.00    +0.000 NA
ATOM     15  H   UNL     1       3.911   6.702  17.227  0.00  0.00    +0.000 HD
ENDBRANCH   3   6
BRANCH   1  20
ATOM     16  C   UNL     1      -0.049  10.493  21.952  0.00  0.00    +0.000 A 
ATOM     17  C   UNL     1      -0.404  11.368  20.926  0.00  0.00    +0.000 A 
ATOM     18  C   UNL     1      -0.026  11.106  19.607  0.00  0.00    +0.000 A 
ATOM     19  C   UNL     1       0.691   9.946  19.299  0.00  0.00    +0.000 A 
ATOM     20  C   UNL     1       1.037   9.047  20.311  0.00  0.00    +0.000 A 
ATOM     21  C   UNL     1       0.685   9.351  21.640  0.00  0.00    +0.000 A 
BRANCH  16  23
ATOM     22  C   UNL     1      -1.626  11.698  23.267  0.00  0.00    +0.000 C 
ATOM     23  O   UNL     1      -0.491  10.840  23.200  0.00  0.00    +0.000 OA
ENDBRANCH  16  23
ENDBRANCH   1  20
TORSDOF 3
ENDMDL
MODEL 6
REMARK VINA RESULT:      -7.4      3.199      4.159
REMARK  Name = 
REMARK  5 active torsions:
REMARK  status: ('A' for Active; 'I' for Inactive)
REMARK    1  A    between atoms: C_1  and  O_2
REMARK    2  A    between atoms: O_2  and  C_3
REMARK    3  A    between atoms: C_7  and  C_8
REMARK    4  A    between atoms: C_10  and  C_11
REMARK    5  A    between atoms: C_16  and  C_17
REMARK                            x       y       z     vdW  Elec       q    Type
REMARK                         _______ _______ _______ _____ _____    ______ ____
ROOT
ATOM      1  C   UNL     1       8.531   8.920  18.306  0.00  0.00    +0.000 A 
ATOM      2  C   UNL     1       8.288   7.758  18.991  0.00  0.00    +0.000 A 
ATOM      3  C   UNL     1       7.448   6.999  18.148  0.00  0.00    +0.000 A 
ATOM      4  N   UNL     1       7.187   7.661  17.005  0.00  0.00    +0.000 NA
ATOM      5  O   UNL     1       7.867   8.877  17.117  0.00  0.00    +0.000 OA
ENDROOT
BRANCH   3   6
ATOM      6  C   UNL     1       6.932   5.667  18.463  0.00  0.00    +0.000 C 
ATOM      7  O   UNL     1       7.670   4.692  18.360  0.00  0.00    +0.000 OA
ATOM      8  N   UNL     1       5.611   5.658  18.852  0.00  0.00    +0.000 N 
ATOM      9  C   UNL     1       4.920   4.506  19.166  0.00  0.00    +0.000 A 
ATOM     10  C   UNL     1       3.554   4.466  19.539  0.00  0.00    +0.000 A 
ATOM     11  C   UNL     1       3.289   3.132  19.741  0.00  0.00    +0.000 A 
ATOM     12  C   UNL     1       2.103   2.351  20.126  0.00  0.00    +0.000 C 
ATOM     13  O   UNL     1       4.420   2.418  19.519  0.00  0.00    +0.000 OA
ATOM     14  N   UNL     1       5.436   3.274  19.160  0.00  0.00    +0.000 NA
ATOM     15  H   UNL     1       5.121   6.544  18.885  0.00  0.00    +0.000 HD
ENDBRANCH   3   6
BRANCH   1  20
ATOM     16  C   UNL     1      10.024  11.697  20.335  0.00  0.00    +0.000 A 
ATOM     17  C   UNL     1      10.606  12.482  19.340  0.00  0.00    +0.000 A 
ATOM     18  C   UNL     1      10.571  12.075  18.004  0.00  0.00    +0.000 A 
ATOM     19  C   UNL     1       9.928  10.887  17.648  0.00  0.00    +0.000 A 
ATOM     20  C   UNL     1       9.320  10.098  18.629  0.00  0.00    +0.000 A 
ATOM     21  C   UNL     1       9.404  10.504  19.975  0.00  0.00    +0.000 A 
BRANCH  16  23
ATOM     22  C   UNL     1       8.881  12.644  22.197  0.00  0.00    +0.000 C 
ATOM     23  O   UNL     1      10.099  12.206  21.603  0.00  0.00    +0.000 OA
ENDBRANCH  16  23
ENDBRANCH   1  20
TORSDOF 3
ENDMDL
MODEL 7
REMARK VINA RESULT:      -7.3      3.689      9.077
REMARK  Name = 
REMARK  5 active torsions:
REMARK  status: ('A' for Active; 'I' for Inactive)
REMARK    1  A    between atoms: C_1  and  O_2
REMARK    2  A    between atoms: O_2  and  C_3
REMARK    3  A    between atoms: C_7  and  C_8
REMARK    4  A    between atoms: C_10  and  C_11
REMARK    5  A    between atoms: C_16  and  C_17
REMARK                            x       y       z     vdW  Elec       q    Type
REMARK                         _______ _______ _______ _____ _____    ______ ____
ROOT
ATOM      1  C   UNL     1       5.861   4.931  18.475  0.00  0.00    +0.000 A 
ATOM      2  C   UNL     1       5.955   6.241  18.085  0.00  0.00    +0.000 A 
ATOM      3  C   UNL     1       7.319   6.575  18.231  0.00  0.00    +0.000 A 
ATOM      4  N   UNL     1       8.026   5.525  18.688  0.00  0.00    +0.000 NA
ATOM      5  O   UNL     1       7.097   4.493  18.849  0.00  0.00    +0.000 OA
ENDROOT
BRANCH   3   6
ATOM      6  C   UNL     1       7.896   7.883  17.920  0.00  0.00    +0.000 C 
ATOM      7  O   UNL     1       7.842   8.311  16.772  0.00  0.00    +0.000 OA
ATOM      8  N   UNL     1       8.469   8.511  19.004  0.00  0.00    +0.000 N 
ATOM      9  C   UNL     1       9.095   9.738  18.926  0.00  0.00    +0.000 A 
ATOM     10  C   UNL     1       9.718  10.391  20.017  0.00  0.00    +0.000 A 
ATOM     11  C   UNL     1      10.215  11.557  19.485  0.00  0.00    +0.000 A 
ATOM     12  C   UNL     1      10.976  12.702  20.010  0.00  0.00    +0.000 C 
ATOM     13  O   UNL     1       9.901  11.611  18.167  0.00  0.00    +0.000 OA
ATOM     14  N   UNL     1       9.204  10.477  17.819  0.00  0.00    +0.000 NA
ATOM     15  H   UNL     1       8.446   8.031  19.896  0.00  0.00    +0.000 HD
ENDBRANCH   3   6
BRANCH   1  20
ATOM     16  C   UNL     1       3.204   2.751  19.974  0.00  0.00    +0.000 A 
ATOM     17  C   UNL     1       2.735   2.076  18.848  0.00  0.00    +0.000 A 
ATOM     18  C   UNL     1       3.238   2.376  17.579  0.00  0.00    +0.000 A 
ATOM     19  C   UNL     1       4.239   3.340  17.431  0.00  0.00    +0.000 A 
ATOM     20  C   UNL     1       4.737   4.011  18.551  0.00  0.00    +0.000 A 
ATOM     21  C   UNL     1       4.187   3.725  19.815  0.00  0.00    +0.000 A 
BRANCH  16  23
ATOM     22  C   UNL     1       1.328   2.795  21.438  0.00  0.00    +0.000 C 
ATOM     23  O   UNL     1       2.656   2.359  21.165  0.00  0.00    +0.000 OA
ENDBRANCH  16  23
ENDBRANCH   1  20
TORSDOF 3
ENDMDL
MODEL 8
REMARK VINA RESULT:      -7.3      5.111      6.648
REMARK  Name = 
REMARK  5 active torsions:
REMARK  status: ('A' for Active; 'I' for Inactive)
REMARK    1  A    between atoms: C_1  and  O_2
REMARK    2  A    between atoms: O_2  and  C_3
REMARK    3  A    between atoms: C_7  and  C_8
REMARK    4  A    between atoms: C_10  and  C_11
REMARK    5  A    between atoms: C_16  and  C_17
REMARK                            x       y       z     vdW  Elec       q    Type
REMARK                         _______ _______ _______ _____ _____    ______ ____
ROOT
ATOM      1  C   UNL     1       2.884   7.361  18.819  0.00  0.00    +0.000 A 
ATOM      2  C   UNL     1       3.604   7.571  17.672  0.00  0.00    +0.000 A 
ATOM      3  C   UNL     1       4.481   6.469  17.577  0.00  0.00    +0.000 A 
ATOM      4  N   UNL     1       4.310   5.626  18.612  0.00  0.00    +0.000 NA
ATOM      5  O   UNL     1       3.307   6.201  19.397  0.00  0.00    +0.000 OA
ENDROOT
BRANCH   3   6
ATOM      6  C   UNL     1       5.444   6.259  16.495  0.00  0.00    +0.000 C 
ATOM      7  O   UNL     1       6.400   7.018  16.379  0.00  0.00    +0.000 OA
ATOM      8  N   UNL     1       5.147   5.183  15.687  0.00  0.00    +0.000 N 
ATOM      9  C   UNL     1       5.907   4.825  14.592  0.00  0.00    +0.000 A 
ATOM     10  C   UNL     1       5.608   3.744  13.727  0.00  0.00    +0.000 A 
ATOM     11  C   UNL     1       6.607   3.768  12.784  0.00  0.00    +0.000 A 
ATOM     12  C   UNL     1       6.936   2.970  11.592  0.00  0.00    +0.000 C 
ATOM     13  O   UNL     1       7.458   4.785  13.067  0.00  0.00    +0.000 OA
ATOM     14  N   UNL     1       7.021   5.444  14.194  0.00  0.00    +0.000 NA
ATOM     15  H   UNL     1       4.315   4.646  15.899  0.00  0.00    +0.000 HD
ENDBRANCH   3   6
BRANCH   1  20
ATOM     16  C   UNL     1       0.325  10.046  19.365  0.00  0.00    +0.000 A 
ATOM     17  C   UNL     1      -0.037   9.815  20.691  0.00  0.00    +0.000 A 
ATOM     18  C   UNL     1       0.504   8.738  21.397  0.00  0.00    +0.000 A 
ATOM     19  C   UNL     1       1.437   7.896  20.786  0.00  0.00    +0.000 A 
ATOM     20  C   UNL     1       1.829   8.125  19.465  0.00  0.00    +0.000 A 
ATOM     21  C   UNL     1       1.239   9.189  18.756  0.00  0.00    +0.000 A 
BRANCH  16  23
ATOM     22  C   UNL     1      -1.592  11.441  19.153  0.00  0.00    +0.000 C 
ATOM     23  O   UNL     1      -0.251  11.142  18.781  0.00  0.00    +0.000 OA
ENDBRANCH  16  23
ENDBRANCH   1  20
TORSDOF 3
ENDMDL
MODEL 9
REMARK VINA RESULT:      -7.3      7.352     10.778
REMARK  Name = 
REMARK  5 active torsions:
REMARK  status: ('A' for Active; 'I' for Inactive)
REMARK    1  A    between atoms: C_1  and  O_2
REMARK    2  A    between atoms: O_2  and  C_3
REMARK    3  A    between atoms: C_7  and  C_8
REMARK    4  A    between atoms: C_10  and  C_11
REMARK    5  A    between atoms: C_16  and  C_17
REMARK                            x       y       z     vdW  Elec       q    Type
REMARK                         _______ _______ _______ _____ _____    ______ ____
ROOT
ATOM      1  C   UNL     1       2.553   7.176  18.463  0.00  0.00    +0.000 A 
ATOM      2  C   UNL     1       2.192   7.390  19.768  0.00  0.00    +0.000 A 
ATOM      3  C   UNL     1       1.557   8.650  19.776  0.00  0.00    +0.000 A 
ATOM      4  N   UNL     1       1.529   9.184  18.541  0.00  0.00    +0.000 NA
ATOM      5  O   UNL     1       2.169   8.252  17.719  0.00  0.00    +0.000 OA
ENDROOT
BRANCH   3   6
ATOM      6  C   UNL     1       0.992   9.292  20.963  0.00  0.00    +0.000 C 
ATOM      7  O   UNL     1       1.293   8.877  22.077  0.00  0.00    +0.000 OA
ATOM      8  N   UNL     1       0.140  10.337  20.679  0.00  0.00    +0.000 N 
ATOM      9  C   UNL     1      -0.523  11.060  21.649  0.00  0.00    +0.000 A 
ATOM     10  C   UNL     1      -1.428  12.117  21.384  0.00  0.00    +0.000 A 
ATOM     11  C   UNL     1      -1.854  12.529  22.624  0.00  0.00    +0.000 A 
ATOM     12  C   UNL     1      -2.786  13.553  23.120  0.00  0.00    +0.000 C 
ATOM     13  O   UNL     1      -1.238  11.781  23.574  0.00  0.00    +0.000 OA
ATOM     14  N   UNL     1      -0.409  10.866  22.966  0.00  0.00    +0.000 NA
ATOM     15  H   UNL     1      -0.022  10.564  19.705  0.00  0.00    +0.000 HD
ENDBRANCH   3   6
BRANCH   1  20
ATOM     16  C   UNL     1       3.386   3.658  17.471  0.00  0.00    +0.000 A 
ATOM     17  C   UNL     1       4.586   3.842  16.786  0.00  0.00    +0.000 A 
ATOM     18  C   UNL     1       5.099   5.127  16.586  0.00  0.00    +0.000 A 
ATOM     19  C   UNL     1       4.425   6.239  17.097  0.00  0.00    +0.000 A 
ATOM     20  C   UNL     1       3.232   6.072  17.804  0.00  0.00    +0.000 A 
ATOM     21  C   UNL     1       2.709   4.774  17.957  0.00  0.00    +0.000 A 
BRANCH  16  23
ATOM     22  C   UNL     1       2.120   2.070  18.715  0.00  0.00    +0.000 C 
ATOM     23  O   UNL     1       2.992   2.356  17.625  0.00  0.00    +0.000 OA
ENDBRANCH  16  23
ENDBRANCH   1  20
TORSDOF 3
ENDMDL
