MODEL 1
REMARK VINA RESULT:      -5.6      0.000      0.000
REMARK  Name = 
REMARK  2 active torsions:
REMARK  status: ('A' for Active; 'I' for Inactive)
REMARK    1  A    between atoms: C_2  and  C_3
REMARK    2  A    between atoms: C_2  and  C_10
REMARK                            x       y       z     vdW  Elec       q    Type
REMARK                         _______ _______ _______ _____ _____    ______ ____
ROOT
ATOM      1  C   UNL     1       4.218   5.119  17.233  0.00  0.00    +0.000 A 
ATOM      2  C   UNL     1       4.301   3.720  17.095  0.00  0.00    +0.000 A 
ATOM      3  C   UNL     1       3.218   2.902  17.424  0.00  0.00    +0.000 A 
ATOM      4  C   UNL     1       2.034   3.468  17.882  0.00  0.00    +0.000 A 
ATOM      5  C   UNL     1       1.936   4.850  18.022  0.00  0.00    +0.000 A 
ATOM      6  C   UNL     1       3.021   5.682  17.707  0.00  0.00    +0.000 A 
ATOM      7  I   UNL     1       2.728   7.732  18.074  0.00  0.00    +0.000 I 
ENDROOT
BRANCH   1   9
ATOM      8  O   UNL     1       5.414   6.433  15.694  0.00  0.00    +0.000 OA
ATOM      9  C   UNL     1       5.398   5.939  16.819  0.00  0.00    +0.000 C 
BRANCH   9  10
ATOM     10  C   UNL     1       6.558   6.050  17.797  0.00  0.00    +0.000 C 
ATOM     11 CL   UNL     1       7.623   4.641  17.577  0.00  0.00    +0.000 Cl
ATOM     12 CL   UNL     1       7.459   7.553  17.512  0.00  0.00    +0.000 Cl
ENDBRANCH   9  10
ENDBRANCH   1   9
TORSDOF 2
ENDMDL
MODEL 2
REMARK VINA RESULT:      -5.5      2.985      3.871
REMARK  Name = 
REMARK  2 active torsions:
REMARK  status: ('A' for Active; 'I' for Inactive)
REMARK    1  A    between atoms: C_2  and  C_3
REMARK    2  A    between atoms: C_2  and  C_10
REMARK                            x       y       z     vdW  Elec       q    Type
REMARK                         _______ _______ _______ _____ _____    ______ ____
ROOT
ATOM      1  C   UNL     1       2.477   5.103  18.497  0.00  0.00    +0.000 A 
ATOM      2  C   UNL     1       2.686   6.396  17.979  0.00  0.00    +0.000 A 
ATOM      3  C   UNL     1       2.445   7.528  18.760  0.00  0.00    +0.000 A 
ATOM      4  C   UNL     1       2.005   7.387  20.071  0.00  0.00    +0.000 A 
ATOM      5  C   UNL     1       1.796   6.116  20.598  0.00  0.00    +0.000 A 
ATOM      6  C   UNL     1       2.022   4.971  19.820  0.00  0.00    +0.000 A 
ATOM      7  I   UNL     1       1.558   3.140  20.746  0.00  0.00    +0.000 I 
ENDROOT
BRANCH   1   9
ATOM      8  O   UNL     1       1.878   3.318  17.090  0.00  0.00    +0.000 OA
ATOM      9  C   UNL     1       2.799   3.933  17.624  0.00  0.00    +0.000 C 
BRANCH   9  10
ATOM     10  C   UNL     1       4.258   3.518  17.510  0.00  0.00    +0.000 C 
ATOM     11 CL   UNL     1       4.957   4.288  16.067  0.00  0.00    +0.000 Cl
ATOM     12 CL   UNL     1       5.150   4.010  18.964  0.00  0.00    +0.000 Cl
ENDBRANCH   9  10
ENDBRANCH   1   9
TORSDOF 2
ENDMDL
MODEL 3
REMARK VINA RESULT:      -5.5      0.696      1.176
REMARK  Name = 
REMARK  2 active torsions:
REMARK  status: ('A' for Active; 'I' for Inactive)
REMARK    1  A    between atoms: C_2  and  C_3
REMARK    2  A    between atoms: C_2  and  C_10
REMARK                            x       y       z     vdW  Elec       q    Type
REMARK                         _______ _______ _______ _____ _____    ______ ____
ROOT
ATOM      1  C   UNL     1       4.215   5.064  17.217  0.00  0.00    +0.000 A 
ATOM      2  C   UNL     1       4.303   3.667  17.063  0.00  0.00    +0.000 A 
ATOM      3  C   UNL     1       3.233   2.839  17.407  0.00  0.00    +0.000 A 
ATOM      4  C   UNL     1       2.055   3.393  17.896  0.00  0.00    +0.000 A 
ATOM      5  C   UNL     1       1.951   4.773  18.051  0.00  0.00    +0.000 A 
ATOM      6  C   UNL     1       3.024   5.615  17.722  0.00  0.00    +0.000 A 
ATOM      7  I   UNL     1       2.727   7.659  18.116  0.00  0.00    +0.000 I 
ENDROOT
BRANCH   1   9
ATOM      8  O   UNL     1       5.291   6.555  15.752  0.00  0.00    +0.000 OA
ATOM      9  C   UNL     1       5.380   5.896  16.786  0.00  0.00    +0.000 C 
BRANCH   9  10
ATOM     10  C   UNL     1       6.651   5.815  17.619  0.00  0.00    +0.000 C 
ATOM     11 CL   UNL     1       7.517   7.363  17.484  0.00  0.00    +0.000 Cl
ATOM     12 CL   UNL     1       6.252   5.479  19.315  0.00  0.00    +0.000 Cl
ENDBRANCH   9  10
ENDBRANCH   1   9
TORSDOF 2
ENDMDL
MODEL 4
REMARK VINA RESULT:      -5.5      3.371      4.388
REMARK  Name = 
REMARK  2 active torsions:
REMARK  status: ('A' for Active; 'I' for Inactive)
REMARK    1  A    between atoms: C_2  and  C_3
REMARK    2  A    between atoms: C_2  and  C_10
REMARK                            x       y       z     vdW  Elec       q    Type
REMARK                         _______ _______ _______ _____ _____    ______ ____
ROOT
ATOM      1  C   UNL     1       3.428   4.770  17.417  0.00  0.00    +0.000 A 
ATOM      2  C   UNL     1       4.335   3.889  16.797  0.00  0.00    +0.000 A 
ATOM      3  C   UNL     1       5.538   4.357  16.267  0.00  0.00    +0.000 A 
ATOM      4  C   UNL     1       5.861   5.706  16.359  0.00  0.00    +0.000 A 
ATOM      5  C   UNL     1       4.976   6.589  16.971  0.00  0.00    +0.000 A 
ATOM      6  C   UNL     1       3.757   6.134  17.497  0.00  0.00    +0.000 A 
ATOM      7  I   UNL     1       2.502   7.622  18.294  0.00  0.00    +0.000 I 
ENDROOT
BRANCH   1   9
ATOM      8  O   UNL     1       1.135   4.254  17.359  0.00  0.00    +0.000 OA
ATOM      9  C   UNL     1       2.178   4.197  18.006  0.00  0.00    +0.000 C 
BRANCH   9  10
ATOM     10  C   UNL     1       2.255   3.642  19.421  0.00  0.00    +0.000 C 
ATOM     11 CL   UNL     1       1.165   4.588  20.461  0.00  0.00    +0.000 Cl
ATOM     12 CL   UNL     1       1.788   1.930  19.434  0.00  0.00    +0.000 Cl
ENDBRANCH   9  10
ENDBRANCH   1   9
TORSDOF 2
ENDMDL
MODEL 5
REMARK VINA RESULT:      -5.5      0.953      1.202
REMARK  Name = 
REMARK  2 active torsions:
REMARK  status: ('A' for Active; 'I' for Inactive)
REMARK    1  A    between atoms: C_2  and  C_3
REMARK    2  A    between atoms: C_2  and  C_10
REMARK                            x       y       z     vdW  Elec       q    Type
REMARK                         _______ _______ _______ _____ _____    ______ ____
ROOT
ATOM      1  C   UNL     1       3.987   4.903  17.294  0.00  0.00    +0.000 A 
ATOM      2  C   UNL     1       4.027   3.503  17.151  0.00  0.00    +0.000 A 
ATOM      3  C   UNL     1       2.943   2.712  17.535  0.00  0.00    +0.000 A 
ATOM      4  C   UNL     1       1.798   3.306  18.053  0.00  0.00    +0.000 A 
ATOM      5  C   UNL     1       1.742   4.690  18.198  0.00  0.00    +0.000 A 
ATOM      6  C   UNL     1       2.829   5.495  17.829  0.00  0.00    +0.000 A 
ATOM      7  I   UNL     1       2.607   7.551  18.212  0.00  0.00    +0.000 I 
ENDROOT
BRANCH   1   9
ATOM      8  O   UNL     1       5.108   6.245  15.722  0.00  0.00    +0.000 OA
ATOM      9  C   UNL     1       5.164   5.695  16.820  0.00  0.00    +0.000 C 
BRANCH   9  10
ATOM     10  C   UNL     1       6.406   5.706  17.698  0.00  0.00    +0.000 C 
ATOM     11 CL   UNL     1       5.918   5.369  19.376  0.00  0.00    +0.000 Cl
ATOM     12 CL   UNL     1       7.565   4.485  17.137  0.00  0.00    +0.000 Cl
ENDBRANCH   9  10
ENDBRANCH   1   9
TORSDOF 2
ENDMDL
MODEL 6
REMARK VINA RESULT:      -5.5      2.930      3.365
REMARK  Name = 
REMARK  2 active torsions:
REMARK  status: ('A' for Active; 'I' for Inactive)
REMARK    1  A    between atoms: C_2  and  C_3
REMARK    2  A    between atoms: C_2  and  C_10
REMARK                            x       y       z     vdW  Elec       q    Type
REMARK                         _______ _______ _______ _____ _____    ______ ____
ROOT
ATOM      1  C   UNL     1       3.626   3.845  19.562  0.00  0.00    +0.000 A 
ATOM      2  C   UNL     1       3.470   2.687  20.349  0.00  0.00    +0.000 A 
ATOM      3  C   UNL     1       2.392   2.559  21.228  0.00  0.00    +0.000 A 
ATOM      4  C   UNL     1       1.449   3.575  21.324  0.00  0.00    +0.000 A 
ATOM      5  C   UNL     1       1.588   4.724  20.550  0.00  0.00    +0.000 A 
ATOM      6  C   UNL     1       2.673   4.872  19.673  0.00  0.00    +0.000 A 
ATOM      7  I   UNL     1       2.778   6.713  18.661  0.00  0.00    +0.000 I 
ENDROOT
BRANCH   1   9
ATOM      8  O   UNL     1       5.859   4.323  19.005  0.00  0.00    +0.000 OA
ATOM      9  C   UNL     1       4.776   3.898  18.608  0.00  0.00    +0.000 C 
BRANCH   9  10
ATOM     10  C   UNL     1       4.515   3.496  17.164  0.00  0.00    +0.000 C 
ATOM     11 CL   UNL     1       2.776   3.170  16.972  0.00  0.00    +0.000 Cl
ATOM     12 CL   UNL     1       5.024   4.792  16.064  0.00  0.00    +0.000 Cl
ENDBRANCH   9  10
ENDBRANCH   1   9
TORSDOF 2
ENDMDL
MODEL 7
REMARK VINA RESULT:      -5.4      1.751      2.179
REMARK  Name = 
REMARK  2 active torsions:
REMARK  status: ('A' for Active; 'I' for Inactive)
REMARK    1  A    between atoms: C_2  and  C_3
REMARK    2  A    between atoms: C_2  and  C_10
REMARK                            x       y       z     vdW  Elec       q    Type
REMARK                         _______ _______ _______ _____ _____    ______ ____
ROOT
ATOM      1  C   UNL     1       3.950   3.893  18.116  0.00  0.00    +0.000 A 
ATOM      2  C   UNL     1       3.757   2.498  18.114  0.00  0.00    +0.000 A 
ATOM      3  C   UNL     1       2.477   1.952  18.232  0.00  0.00    +0.000 A 
ATOM      4  C   UNL     1       1.372   2.789  18.339  0.00  0.00    +0.000 A 
ATOM      5  C   UNL     1       1.547   4.170  18.340  0.00  0.00    +0.000 A 
ATOM      6  C   UNL     1       2.828   4.731  18.236  0.00  0.00    +0.000 A 
ATOM      7  I   UNL     1       2.912   6.829  18.356  0.00  0.00    +0.000 I 
ENDROOT
BRANCH   1   9
ATOM      8  O   UNL     1       6.107   4.403  18.902  0.00  0.00    +0.000 OA
ATOM      9  C   UNL     1       5.342   4.412  17.940  0.00  0.00    +0.000 C 
BRANCH   9  10
ATOM     10  C   UNL     1       5.708   5.002  16.586  0.00  0.00    +0.000 C 
ATOM     11 CL   UNL     1       7.131   6.050  16.790  0.00  0.00    +0.000 Cl
ATOM     12 CL   UNL     1       6.060   3.705  15.427  0.00  0.00    +0.000 Cl
ENDBRANCH   9  10
ENDBRANCH   1   9
TORSDOF 2
ENDMDL
MODEL 8
REMARK VINA RESULT:      -5.4      3.142      4.132
REMARK  Name = 
REMARK  2 active torsions:
REMARK  status: ('A' for Active; 'I' for Inactive)
REMARK    1  A    between atoms: C_2  and  C_3
REMARK    2  A    between atoms: C_2  and  C_10
REMARK                            x       y       z     vdW  Elec       q    Type
REMARK                         _______ _______ _______ _____ _____    ______ ____
ROOT
ATOM      1  C   UNL     1       2.354   5.182  18.595  0.00  0.00    +0.000 A 
ATOM      2  C   UNL     1       2.538   6.458  18.028  0.00  0.00    +0.000 A 
ATOM      3  C   UNL     1       2.344   7.613  18.787  0.00  0.00    +0.000 A 
ATOM      4  C   UNL     1       1.978   7.513  20.124  0.00  0.00    +0.000 A 
ATOM      5  C   UNL     1       1.795   6.259  20.699  0.00  0.00    +0.000 A 
ATOM      6  C   UNL     1       1.974   5.090  19.944  0.00  0.00    +0.000 A 
ATOM      7  I   UNL     1       1.557   3.289  20.948  0.00  0.00    +0.000 I 
ENDROOT
BRANCH   1   9
ATOM      8  O   UNL     1       1.724   3.550  17.024  0.00  0.00    +0.000 OA
ATOM      9  C   UNL     1       2.624   3.985  17.739  0.00  0.00    +0.000 C 
BRANCH   9  10
ATOM     10  C   UNL     1       3.986   3.320  17.867  0.00  0.00    +0.000 C 
ATOM     11 CL   UNL     1       3.749   1.561  18.000  0.00  0.00    +0.000 Cl
ATOM     12 CL   UNL     1       4.989   3.700  16.453  0.00  0.00    +0.000 Cl
ENDBRANCH   9  10
ENDBRANCH   1   9
TORSDOF 2
ENDMDL
MODEL 9
REMARK VINA RESULT:      -5.4      3.574      4.275
REMARK  Name = 
REMARK  2 active torsions:
REMARK  status: ('A' for Active; 'I' for Inactive)
REMARK    1  A    between atoms: C_2  and  C_3
REMARK    2  A    between atoms: C_2  and  C_10
REMARK                            x       y       z     vdW  Elec       q    Type
REMARK                         _______ _______ _______ _____ _____    ______ ____
ROOT
ATOM      1  C   UNL     1       3.471   4.950  19.165  0.00  0.00    +0.000 A 
ATOM      2  C   UNL     1       3.655   6.145  18.442  0.00  0.00    +0.000 A 
ATOM      3  C   UNL     1       2.912   7.287  18.745  0.00  0.00    +0.000 A 
ATOM      4  C   UNL     1       1.986   7.259  19.781  0.00  0.00    +0.000 A 
ATOM      5  C   UNL     1       1.794   6.087  20.506  0.00  0.00    +0.000 A 
ATOM      6  C   UNL     1       2.525   4.928  20.204  0.00  0.00    +0.000 A 
ATOM      7  I   UNL     1       2.033   3.224  21.335  0.00  0.00    +0.000 I 
ENDROOT
BRANCH   1   9
ATOM      8  O   UNL     1       5.427   3.662  19.366  0.00  0.00    +0.000 OA
ATOM      9  C   UNL     1       4.332   3.777  18.820  0.00  0.00    +0.000 C 
BRANCH   9  10
ATOM     10  C   UNL     1       3.832   2.827  17.743  0.00  0.00    +0.000 C 
ATOM     11 CL   UNL     1       3.737   1.189  18.429  0.00  0.00    +0.000 Cl
ATOM     12 CL   UNL     1       2.236   3.345  17.162  0.00  0.00    +0.000 Cl
ENDBRANCH   9  10
ENDBRANCH   1   9
TORSDOF 2
ENDMDL
