MODEL 1
REMARK VINA RESULT:      -5.3      0.000      0.000
REMARK  Name = 
REMARK  4 active torsions:
REMARK  status: ('A' for Active; 'I' for Inactive)
REMARK    1  A    between atoms: C_1  and  N_2
REMARK    2  A    between atoms: N_2  and  C_3
REMARK    3  A    between atoms: C_8  and  N_9
REMARK    4  A    between atoms: N_9  and  C_10
REMARK                            x       y       z     vdW  Elec       q    Type
REMARK                         _______ _______ _______ _____ _____    ______ ____
ROOT
ATOM      1  C   UNL     1       3.027   6.446  19.210  0.00  0.00    +0.000 C 
ATOM      2  C   UNL     1       4.114   5.863  18.681  0.00  0.00    +0.000 C 
ATOM      3 CL   UNL     1       5.163   6.669  17.565  0.00  0.00    +0.000 Cl
ATOM      4  C   UNL     1       4.560   4.509  19.104  0.00  0.00    +0.000 C 
ATOM      5  O   UNL     1       5.736   4.171  19.027  0.00  0.00    +0.000 OA
ATOM      6  C   UNL     1       3.505   3.577  19.649  0.00  0.00    +0.000 C 
ATOM      7  C   UNL     1       2.445   4.174  20.223  0.00  0.00    +0.000 C 
ATOM      8 CL   UNL     1       1.196   3.236  20.981  0.00  0.00    +0.000 Cl
ATOM      9  C   UNL     1       2.247   5.642  20.218  0.00  0.00    +0.000 C 
ATOM     10  O   UNL     1       1.412   6.206  20.921  0.00  0.00    +0.000 OA
ENDROOT
BRANCH   1  12
ATOM     11  C   UNL     1       2.013   8.201  17.720  0.00  0.00    +0.000 C 
ATOM     12  N   UNL     1       2.540   7.747  18.997  0.00  0.00    +0.000 N 
ATOM     13  H   UNL     1       1.887   7.977  19.756  0.00  0.00    +0.000 HD
ENDBRANCH   1  12
BRANCH   6  14
ATOM     14  N   UNL     1       3.680   2.197  19.563  0.00  0.00    +0.000 N 
ATOM     15  C   UNL     1       3.613   1.339  18.400  0.00  0.00    +0.000 C 
ATOM     16  H   UNL     1       3.988   1.745  20.423  0.00  0.00    +0.000 HD
ENDBRANCH   6  14
TORSDOF 2
ENDMDL
MODEL 2
REMARK VINA RESULT:      -5.3      1.117      5.093
REMARK  Name = 
REMARK  4 active torsions:
REMARK  status: ('A' for Active; 'I' for Inactive)
REMARK    1  A    between atoms: C_1  and  N_2
REMARK    2  A    between atoms: N_2  and  C_3
REMARK    3  A    between atoms: C_8  and  N_9
REMARK    4  A    between atoms: N_9  and  C_10
REMARK                            x       y       z     vdW  Elec       q    Type
REMARK                         _______ _______ _______ _____ _____    ______ ____
ROOT
ATOM      1  C   UNL     1       4.164   3.272  19.535  0.00  0.00    +0.000 C 
ATOM      2  C   UNL     1       2.905   3.584  19.884  0.00  0.00    +0.000 C 
ATOM      3 CL   UNL     1       1.818   2.440  20.596  0.00  0.00    +0.000 Cl
ATOM      4  C   UNL     1       2.386   4.973  19.784  0.00  0.00    +0.000 C 
ATOM      5  O   UNL     1       1.479   5.370  20.508  0.00  0.00    +0.000 OA
ATOM      6  C   UNL     1       3.036   5.878  18.766  0.00  0.00    +0.000 C 
ATOM      7  C   UNL     1       4.314   5.586  18.464  0.00  0.00    +0.000 C 
ATOM      8 CL   UNL     1       5.226   6.593  17.382  0.00  0.00    +0.000 Cl
ATOM      9  C   UNL     1       5.013   4.390  18.987  0.00  0.00    +0.000 C 
ATOM     10  O   UNL     1       6.228   4.234  18.899  0.00  0.00    +0.000 OA
ENDROOT
BRANCH   1  12
ATOM     11  C   UNL     1       5.141   1.439  20.954  0.00  0.00    +0.000 C 
ATOM     12  N   UNL     1       4.830   2.043  19.668  0.00  0.00    +0.000 N 
ATOM     13  H   UNL     1       4.372   1.358  19.053  0.00  0.00    +0.000 HD
ENDBRANCH   1  12
BRANCH   6  14
ATOM     14  N   UNL     1       2.324   6.948  18.226  0.00  0.00    +0.000 N 
ATOM     15  C   UNL     1       2.161   8.290  18.743  0.00  0.00    +0.000 C 
ATOM     16  H   UNL     1       1.942   6.788  17.295  0.00  0.00    +0.000 HD
ENDBRANCH   6  14
TORSDOF 2
ENDMDL
MODEL 3
REMARK VINA RESULT:      -5.3      3.756      5.321
REMARK  Name = 
REMARK  4 active torsions:
REMARK  status: ('A' for Active; 'I' for Inactive)
REMARK    1  A    between atoms: C_1  and  N_2
REMARK    2  A    between atoms: N_2  and  C_3
REMARK    3  A    between atoms: C_8  and  N_9
REMARK    4  A    between atoms: N_9  and  C_10
REMARK                            x       y       z     vdW  Elec       q    Type
REMARK                         _______ _______ _______ _____ _____    ______ ____
ROOT
ATOM      1  C   UNL     1       5.145   3.864  17.240  0.00  0.00    +0.000 C 
ATOM      2  C   UNL     1       5.253   4.622  16.137  0.00  0.00    +0.000 C 
ATOM      3 CL   UNL     1       4.602   4.148  14.605  0.00  0.00    +0.000 Cl
ATOM      4  C   UNL     1       5.848   5.983  16.178  0.00  0.00    +0.000 C 
ATOM      5  O   UNL     1       5.533   6.843  15.362  0.00  0.00    +0.000 OA
ATOM      6  C   UNL     1       6.843   6.267  17.278  0.00  0.00    +0.000 C 
ATOM      7  C   UNL     1       6.691   5.537  18.398  0.00  0.00    +0.000 C 
ATOM      8 CL   UNL     1       7.697   5.815  19.785  0.00  0.00    +0.000 Cl
ATOM      9  C   UNL     1       5.703   4.439  18.516  0.00  0.00    +0.000 C 
ATOM     10  O   UNL     1       5.406   3.921  19.590  0.00  0.00    +0.000 OA
ENDROOT
BRANCH   1  12
ATOM     11  C   UNL     1       3.088   2.458  17.585  0.00  0.00    +0.000 C 
ATOM     12  N   UNL     1       4.520   2.615  17.386  0.00  0.00    +0.000 N 
ATOM     13  H   UNL     1       4.845   1.999  16.630  0.00  0.00    +0.000 HD
ENDBRANCH   1  12
BRANCH   6  14
ATOM     14  N   UNL     1       7.816   7.249  17.104  0.00  0.00    +0.000 N 
ATOM     15  C   UNL     1       7.867   8.590  17.648  0.00  0.00    +0.000 C 
ATOM     16  H   UNL     1       8.648   6.949  16.600  0.00  0.00    +0.000 HD
ENDBRANCH   6  14
TORSDOF 2
ENDMDL
MODEL 4
REMARK VINA RESULT:      -5.3      3.190      4.237
REMARK  Name = 
REMARK  4 active torsions:
REMARK  status: ('A' for Active; 'I' for Inactive)
REMARK    1  A    between atoms: C_1  and  N_2
REMARK    2  A    between atoms: N_2  and  C_3
REMARK    3  A    between atoms: C_8  and  N_9
REMARK    4  A    between atoms: N_9  and  C_10
REMARK                            x       y       z     vdW  Elec       q    Type
REMARK                         _______ _______ _______ _____ _____    ______ ____
ROOT
ATOM      1  C   UNL     1       6.132   5.698  16.514  0.00  0.00    +0.000 C 
ATOM      2  C   UNL     1       6.613   5.144  17.639  0.00  0.00    +0.000 C 
ATOM      3 CL   UNL     1       8.089   4.242  17.684  0.00  0.00    +0.000 Cl
ATOM      4  C   UNL     1       5.962   5.360  18.957  0.00  0.00    +0.000 C 
ATOM      5  O   UNL     1       6.600   5.296  20.003  0.00  0.00    +0.000 OA
ATOM      6  C   UNL     1       4.486   5.679  18.952  0.00  0.00    +0.000 C 
ATOM      7  C   UNL     1       4.028   6.281  17.840  0.00  0.00    +0.000 C 
ATOM      8 CL   UNL     1       2.374   6.797  17.724  0.00  0.00    +0.000 Cl
ATOM      9  C   UNL     1       4.870   6.510  16.642  0.00  0.00    +0.000 C 
ATOM     10  O   UNL     1       4.531   7.247  15.720  0.00  0.00    +0.000 OA
ENDROOT
BRANCH   1  12
ATOM     11  C   UNL     1       6.584   4.532  14.332  0.00  0.00    +0.000 C 
ATOM     12  N   UNL     1       6.685   5.677  15.223  0.00  0.00    +0.000 N 
ATOM     13  H   UNL     1       6.402   6.536  14.734  0.00  0.00    +0.000 HD
ENDBRANCH   1  12
BRANCH   6  14
ATOM     14  N   UNL     1       3.702   5.374  20.063  0.00  0.00    +0.000 N 
ATOM     15  C   UNL     1       2.836   4.236  20.285  0.00  0.00    +0.000 C 
ATOM     16  H   UNL     1       3.826   5.992  20.864  0.00  0.00    +0.000 HD
ENDBRANCH   6  14
TORSDOF 2
ENDMDL
MODEL 5
REMARK VINA RESULT:      -5.2      1.180      5.106
REMARK  Name = 
REMARK  4 active torsions:
REMARK  status: ('A' for Active; 'I' for Inactive)
REMARK    1  A    between atoms: C_1  and  N_2
REMARK    2  A    between atoms: N_2  and  C_3
REMARK    3  A    between atoms: C_8  and  N_9
REMARK    4  A    between atoms: N_9  and  C_10
REMARK                            x       y       z     vdW  Elec       q    Type
REMARK                         _______ _______ _______ _____ _____    ______ ____
ROOT
ATOM      1  C   UNL     1       2.878   3.603  18.234  0.00  0.00    +0.000 C 
ATOM      2  C   UNL     1       2.041   4.154  19.127  0.00  0.00    +0.000 C 
ATOM      3 CL   UNL     1       0.805   3.253  19.936  0.00  0.00    +0.000 Cl
ATOM      4  C   UNL     1       2.188   5.566  19.569  0.00  0.00    +0.000 C 
ATOM      5  O   UNL     1       1.793   5.934  20.671  0.00  0.00    +0.000 OA
ATOM      6  C   UNL     1       2.862   6.520  18.613  0.00  0.00    +0.000 C 
ATOM      7  C   UNL     1       3.737   5.961  17.758  0.00  0.00    +0.000 C 
ATOM      8 CL   UNL     1       4.661   6.942  16.663  0.00  0.00    +0.000 Cl
ATOM      9  C   UNL     1       3.946   4.498  17.660  0.00  0.00    +0.000 C 
ATOM     10  O   UNL     1       4.888   3.998  17.051  0.00  0.00    +0.000 OA
ENDROOT
BRANCH   1  12
ATOM     11  C   UNL     1       3.579   1.209  18.555  0.00  0.00    +0.000 C 
ATOM     12  N   UNL     1       2.936   2.269  17.796  0.00  0.00    +0.000 N 
ATOM     13  H   UNL     1       1.993   1.981  17.508  0.00  0.00    +0.000 HD
ENDBRANCH   1  12
BRANCH   6  14
ATOM     14  N   UNL     1       2.580   7.884  18.673  0.00  0.00    +0.000 N 
ATOM     15  C   UNL     1       1.813   8.699  17.756  0.00  0.00    +0.000 C 
ATOM     16  H   UNL     1       2.879   8.350  19.528  0.00  0.00    +0.000 HD
ENDBRANCH   6  14
TORSDOF 2
ENDMDL
MODEL 6
REMARK VINA RESULT:      -5.2      1.938      3.950
REMARK  Name = 
REMARK  4 active torsions:
REMARK  status: ('A' for Active; 'I' for Inactive)
REMARK    1  A    between atoms: C_1  and  N_2
REMARK    2  A    between atoms: N_2  and  C_3
REMARK    3  A    between atoms: C_8  and  N_9
REMARK    4  A    between atoms: N_9  and  C_10
REMARK                            x       y       z     vdW  Elec       q    Type
REMARK                         _______ _______ _______ _____ _____    ______ ____
ROOT
ATOM      1  C   UNL     1       4.985   4.608  18.492  0.00  0.00    +0.000 C 
ATOM      2  C   UNL     1       4.479   5.798  18.132  0.00  0.00    +0.000 C 
ATOM      3 CL   UNL     1       5.282   6.866  17.031  0.00  0.00    +0.000 Cl
ATOM      4  C   UNL     1       3.130   6.241  18.572  0.00  0.00    +0.000 C 
ATOM      5  O   UNL     1       2.470   7.035  17.910  0.00  0.00    +0.000 OA
ATOM      6  C   UNL     1       2.600   5.656  19.859  0.00  0.00    +0.000 C 
ATOM      7  C   UNL     1       3.076   4.440  20.181  0.00  0.00    +0.000 C 
ATOM      8 CL   UNL     1       2.490   3.596  21.581  0.00  0.00    +0.000 Cl
ATOM      9  C   UNL     1       4.141   3.760  19.407  0.00  0.00    +0.000 C 
ATOM     10  O   UNL     1       4.422   2.574  19.558  0.00  0.00    +0.000 OA
ENDROOT
BRANCH   1  12
ATOM     11  C   UNL     1       7.474   4.678  18.137  0.00  0.00    +0.000 C 
ATOM     12  N   UNL     1       6.186   4.007  18.079  0.00  0.00    +0.000 N 
ATOM     13  H   UNL     1       6.248   3.076  18.511  0.00  0.00    +0.000 HD
ENDBRANCH   1  12
BRANCH   6  14
ATOM     14  N   UNL     1       1.660   6.358  20.611  0.00  0.00    +0.000 N 
ATOM     15  C   UNL     1       1.647   7.758  20.980  0.00  0.00    +0.000 C 
ATOM     16  H   UNL     1       0.822   5.833  20.856  0.00  0.00    +0.000 HD
ENDBRANCH   6  14
TORSDOF 2
ENDMDL
MODEL 7
REMARK VINA RESULT:      -5.1      1.023      1.023
REMARK  Name = 
REMARK  4 active torsions:
REMARK  status: ('A' for Active; 'I' for Inactive)
REMARK    1  A    between atoms: C_1  and  N_2
REMARK    2  A    between atoms: N_2  and  C_3
REMARK    3  A    between atoms: C_8  and  N_9
REMARK    4  A    between atoms: N_9  and  C_10
REMARK                            x       y       z     vdW  Elec       q    Type
REMARK                         _______ _______ _______ _____ _____    ______ ____
ROOT
ATOM      1  C   UNL     1       2.823   6.617  18.685  0.00  0.00    +0.000 C 
ATOM      2  C   UNL     1       3.671   6.059  17.805  0.00  0.00    +0.000 C 
ATOM      3 CL   UNL     1       4.556   6.983  16.639  0.00  0.00    +0.000 Cl
ATOM      4  C   UNL     1       3.995   4.609  17.842  0.00  0.00    +0.000 C 
ATOM      5  O   UNL     1       5.064   4.182  17.417  0.00  0.00    +0.000 OA
ATOM      6  C   UNL     1       2.961   3.688  18.443  0.00  0.00    +0.000 C 
ATOM      7  C   UNL     1       2.152   4.246  19.361  0.00  0.00    +0.000 C 
ATOM      8 CL   UNL     1       0.976   3.292  20.210  0.00  0.00    +0.000 Cl
ATOM      9  C   UNL     1       2.174   5.692  19.682  0.00  0.00    +0.000 C 
ATOM     10  O   UNL     1       1.606   6.168  20.661  0.00  0.00    +0.000 OA
ENDROOT
BRANCH   1  12
ATOM     11  C   UNL     1       1.791   8.749  17.839  0.00  0.00    +0.000 C 
ATOM     12  N   UNL     1       2.497   7.973  18.846  0.00  0.00    +0.000 N 
ATOM     13  H   UNL     1       2.054   8.093  19.766  0.00  0.00    +0.000 HD
ENDBRANCH   1  12
BRANCH   6  14
ATOM     14  N   UNL     1       2.910   2.349  18.058  0.00  0.00    +0.000 N 
ATOM     15  C   UNL     1       3.651   1.220  18.578  0.00  0.00    +0.000 C 
ATOM     16  H   UNL     1       2.184   2.122  17.380  0.00  0.00    +0.000 HD
ENDBRANCH   6  14
TORSDOF 2
ENDMDL
MODEL 8
REMARK VINA RESULT:      -5.1      2.663      3.174
REMARK  Name = 
REMARK  4 active torsions:
REMARK  status: ('A' for Active; 'I' for Inactive)
REMARK    1  A    between atoms: C_1  and  N_2
REMARK    2  A    between atoms: N_2  and  C_3
REMARK    3  A    between atoms: C_8  and  N_9
REMARK    4  A    between atoms: N_9  and  C_10
REMARK                            x       y       z     vdW  Elec       q    Type
REMARK                         _______ _______ _______ _____ _____    ______ ____
ROOT
ATOM      1  C   UNL     1       5.666   6.205  17.459  0.00  0.00    +0.000 C 
ATOM      2  C   UNL     1       6.076   5.027  17.955  0.00  0.00    +0.000 C 
ATOM      3 CL   UNL     1       7.717   4.485  17.854  0.00  0.00    +0.000 Cl
ATOM      4  C   UNL     1       5.165   4.145  18.730  0.00  0.00    +0.000 C 
ATOM      5  O   UNL     1       5.596   3.360  19.568  0.00  0.00    +0.000 OA
ATOM      6  C   UNL     1       3.686   4.271  18.453  0.00  0.00    +0.000 C 
ATOM      7  C   UNL     1       3.281   5.473  18.006  0.00  0.00    +0.000 C 
ATOM      8 CL   UNL     1       1.598   5.801  17.735  0.00  0.00    +0.000 Cl
ATOM      9  C   UNL     1       4.221   6.570  17.680  0.00  0.00    +0.000 C 
ATOM     10  O   UNL     1       3.856   7.726  17.487  0.00  0.00    +0.000 OA
ENDROOT
BRANCH   1  12
ATOM     11  C   UNL     1       7.485   7.943  17.452  0.00  0.00    +0.000 C 
ATOM     12  N   UNL     1       6.424   7.189  16.803  0.00  0.00    +0.000 N 
ATOM     13  H   UNL     1       6.755   6.802  15.910  0.00  0.00    +0.000 HD
ENDBRANCH   1  12
BRANCH   6  14
ATOM     14  N   UNL     1       2.837   3.191  18.690  0.00  0.00    +0.000 N 
ATOM     15  C   UNL     1       2.443   2.125  17.794  0.00  0.00    +0.000 C 
ATOM     16  H   UNL     1       2.524   3.090  19.655  0.00  0.00    +0.000 HD
ENDBRANCH   6  14
TORSDOF 2
ENDMDL
MODEL 9
REMARK VINA RESULT:      -5.1      2.124      3.977
REMARK  Name = 
REMARK  4 active torsions:
REMARK  status: ('A' for Active; 'I' for Inactive)
REMARK    1  A    between atoms: C_1  and  N_2
REMARK    2  A    between atoms: N_2  and  C_3
REMARK    3  A    between atoms: C_8  and  N_9
REMARK    4  A    between atoms: N_9  and  C_10
REMARK                            x       y       z     vdW  Elec       q    Type
REMARK                         _______ _______ _______ _____ _____    ______ ____
ROOT
ATOM      1  C   UNL     1       2.876   4.139  20.301  0.00  0.00    +0.000 C 
ATOM      2  C   UNL     1       3.711   3.548  19.433  0.00  0.00    +0.000 C 
ATOM      3 CL   UNL     1       4.460   2.018  19.743  0.00  0.00    +0.000 Cl
ATOM      4  C   UNL     1       3.971   4.118  18.085  0.00  0.00    +0.000 C 
ATOM      5  O   UNL     1       4.304   3.405  17.144  0.00  0.00    +0.000 OA
ATOM      6  C   UNL     1       3.787   5.607  17.920  0.00  0.00    +0.000 C 
ATOM      7  C   UNL     1       2.907   6.178  18.763  0.00  0.00    +0.000 C 
ATOM      8 CL   UNL     1       2.517   7.865  18.633  0.00  0.00    +0.000 Cl
ATOM      9  C   UNL     1       2.250   5.438  19.865  0.00  0.00    +0.000 C 
ATOM     10  O   UNL     1       1.292   5.885  20.491  0.00  0.00    +0.000 OA
ENDROOT
BRANCH   1  12
ATOM     11  C   UNL     1       1.479   2.608  21.727  0.00  0.00    +0.000 C 
ATOM     12  N   UNL     1       2.449   3.678  21.558  0.00  0.00    +0.000 N 
ATOM     13  H   UNL     1       3.280   3.502  22.138  0.00  0.00    +0.000 HD
ENDBRANCH   1  12
BRANCH   6  14
ATOM     14  N   UNL     1       4.485   6.292  16.927  0.00  0.00    +0.000 N 
ATOM     15  C   UNL     1       5.860   6.743  16.924  0.00  0.00    +0.000 C 
ATOM     16  H   UNL     1       3.983   6.408  16.048  0.00  0.00    +0.000 HD
ENDBRANCH   6  14
TORSDOF 2
ENDMDL
