MODEL 1
REMARK VINA RESULT:      -7.9      0.000      0.000
REMARK  Name = 
REMARK  13 active torsions:
REMARK  status: ('A' for Active; 'I' for Inactive)
REMARK    1  A    between atoms: C_1  and  C_2
REMARK    2  A    between atoms: C_5  and  C_6
REMARK    3  A    between atoms: N_11  and  C_12
REMARK    4  A    between atoms: C_15  and  S_16
REMARK    5  A    between atoms: S_16  and  C_19
REMARK    6  A    between atoms: C_19  and  C_20
REMARK    7  A    between atoms: C_20  and  C_21
REMARK    8  A    between atoms: C_21  and  N_22
REMARK    9  A    between atoms: N_22  and  C_23
REMARK   10  A    between atoms: N_22  and  C_24
REMARK   11  A    between atoms: N_28  and  C_29
REMARK   12  A    between atoms: C_29  and  C_30
REMARK   13  A    between atoms: C_29  and  C_31
REMARK                            x       y       z     vdW  Elec       q    Type
REMARK                         _______ _______ _______ _____ _____    ______ ____
ROOT
ATOM      1  C   UNL     1       2.841   6.710  19.228  0.00  0.00    +0.000 A 
ATOM      2  C   UNL     1       2.789   7.379  18.022  0.00  0.00    +0.000 A 
ATOM      3  C   UNL     1       2.084   8.546  18.025  0.00  0.00    +0.000 A 
ATOM      4  N   UNL     1       1.486   9.026  19.116  0.00  0.00    +0.000 NA
ATOM      5  C   UNL     1       1.591   8.331  20.260  0.00  0.00    +0.000 A 
ATOM      6  N   UNL     1       1.002   8.823  21.426  0.00  0.00    +0.000 N 
ATOM      7  N   UNL     1       2.267   7.177  20.355  0.00  0.00    +0.000 NA
ATOM      8  H   UNL     1       1.277   8.287  22.234  0.00  0.00    +0.000 HD
ENDROOT
BRANCH   1  13
ATOM      9  C   UNL     1       4.122   1.815  19.520  0.00  0.00    +0.000 C 
ATOM     10  C   UNL     1       4.155   3.296  19.425  0.00  0.00    +0.000 A 
ATOM     11  N   UNL     1       5.280   3.955  19.232  0.00  0.00    +0.000 NA
ATOM     12  C   UNL     1       4.939   5.265  19.177  0.00  0.00    +0.000 A 
ATOM     13  C   UNL     1       3.576   5.450  19.329  0.00  0.00    +0.000 A 
ATOM     14  N   UNL     1       3.072   4.161  19.507  0.00  0.00    +0.000 N 
BRANCH  14  15
ATOM     15  C   UNL     1       1.652   3.820  19.634  0.00  0.00    +0.000 C 
ATOM     16  C   UNL     1       1.158   2.989  18.449  0.00  0.00    +0.000 C 
ATOM     17  C   UNL     1       1.217   3.180  20.955  0.00  0.00    +0.000 C 
ENDBRANCH  14  15
ENDBRANCH   1  13
BRANCH   6  18
ATOM     18  C   UNL     1       0.127   9.902  21.607  0.00  0.00    +0.000 A 
ATOM     19  C   UNL     1      -0.432  10.215  22.857  0.00  0.00    +0.000 A 
ATOM     20  C   UNL     1      -1.372  11.234  23.007  0.00  0.00    +0.000 A 
ATOM     21  C   UNL     1      -1.759  11.973  21.896  0.00  0.00    +0.000 A 
ATOM     22  C   UNL     1      -1.241  11.679  20.635  0.00  0.00    +0.000 A 
ATOM     23  C   UNL     1      -0.304  10.643  20.496  0.00  0.00    +0.000 A 
BRANCH  21  24
ATOM     24  S   UNL     1      -2.941  13.283  22.114  0.00  0.00    +0.000 S 
ATOM     25  O   UNL     1      -3.331  13.286  23.509  0.00  0.00    +0.000 OA
ATOM     26  O   UNL     1      -2.372  14.461  21.489  0.00  0.00    +0.000 OA
BRANCH  24  27
ATOM     27  C   UNL     1      -4.344  12.747  21.146  0.00  0.00    +0.000 C 
BRANCH  27  28
ATOM     28  C   UNL     1      -5.614  12.768  21.990  0.00  0.00    +0.000 C 
BRANCH  28  29
ATOM     29  C   UNL     1      -6.884  12.586  21.153  0.00  0.00    +0.000 C 
BRANCH  29  30
ATOM     30  N   UNL     1      -6.771  11.564  20.098  0.00  0.00    +0.000 NA
ATOM     31  C   UNL     1      -7.466  10.322  20.454  0.00  0.00    +0.000 C 
ATOM     32  C   UNL     1      -7.323  12.084  18.842  0.00  0.00    +0.000 C 
ENDBRANCH  29  30
ENDBRANCH  28  29
ENDBRANCH  27  28
ENDBRANCH  24  27
ENDBRANCH  21  24
ENDBRANCH   6  18
TORSDOF 8
ENDMDL
MODEL 2
REMARK VINA RESULT:      -7.9      0.812      1.279
REMARK  Name = 
REMARK  13 active torsions:
REMARK  status: ('A' for Active; 'I' for Inactive)
REMARK    1  A    between atoms: C_1  and  C_2
REMARK    2  A    between atoms: C_5  and  C_6
REMARK    3  A    between atoms: N_11  and  C_12
REMARK    4  A    between atoms: C_15  and  S_16
REMARK    5  A    between atoms: S_16  and  C_19
REMARK    6  A    between atoms: C_19  and  C_20
REMARK    7  A    between atoms: C_20  and  C_21
REMARK    8  A    between atoms: C_21  and  N_22
REMARK    9  A    between atoms: N_22  and  C_23
REMARK   10  A    between atoms: N_22  and  C_24
REMARK   11  A    between atoms: N_28  and  C_29
REMARK   12  A    between atoms: C_29  and  C_30
REMARK   13  A    between atoms: C_29  and  C_31
REMARK                            x       y       z     vdW  Elec       q    Type
REMARK                         _______ _______ _______ _____ _____    ______ ____
ROOT
ATOM      1  C   UNL     1       2.764   6.692  19.300  0.00  0.00    +0.000 A 
ATOM      2  C   UNL     1       2.550   7.308  18.085  0.00  0.00    +0.000 A 
ATOM      3  C   UNL     1       1.846   8.474  18.130  0.00  0.00    +0.000 A 
ATOM      4  N   UNL     1       1.392   9.001  19.268  0.00  0.00    +0.000 NA
ATOM      5  C   UNL     1       1.649   8.355  20.417  0.00  0.00    +0.000 A 
ATOM      6  N   UNL     1       1.215   8.897  21.628  0.00  0.00    +0.000 N 
ATOM      7  N   UNL     1       2.339   7.206  20.472  0.00  0.00    +0.000 NA
ATOM      8  H   UNL     1       1.596   8.396  22.415  0.00  0.00    +0.000 HD
ENDROOT
BRANCH   1  13
ATOM      9  C   UNL     1       4.098   1.806  19.467  0.00  0.00    +0.000 C 
ATOM     10  C   UNL     1       4.115   3.288  19.398  0.00  0.00    +0.000 A 
ATOM     11  N   UNL     1       5.227   3.961  19.187  0.00  0.00    +0.000 NA
ATOM     12  C   UNL     1       4.873   5.269  19.166  0.00  0.00    +0.000 A 
ATOM     13  C   UNL     1       3.513   5.437  19.358  0.00  0.00    +0.000 A 
ATOM     14  N   UNL     1       3.026   4.140  19.526  0.00  0.00    +0.000 N 
BRANCH  14  15
ATOM     15  C   UNL     1       1.614   3.783  19.686  0.00  0.00    +0.000 C 
ATOM     16  C   UNL     1       1.092   2.980  18.493  0.00  0.00    +0.000 C 
ATOM     17  C   UNL     1       1.224   3.103  21.000  0.00  0.00    +0.000 C 
ENDBRANCH  14  15
ENDBRANCH   1  13
BRANCH   6  18
ATOM     18  C   UNL     1       0.365   9.982  21.876  0.00  0.00    +0.000 A 
ATOM     19  C   UNL     1       0.508  11.216  21.220  0.00  0.00    +0.000 A 
ATOM     20  C   UNL     1      -0.286  12.316  21.542  0.00  0.00    +0.000 A 
ATOM     21  C   UNL     1      -1.256  12.190  22.529  0.00  0.00    +0.000 A 
ATOM     22  C   UNL     1      -1.416  10.986  23.216  0.00  0.00    +0.000 A 
ATOM     23  C   UNL     1      -0.602   9.890  22.889  0.00  0.00    +0.000 A 
BRANCH  21  24
ATOM     24  S   UNL     1      -2.274  13.598  22.907  0.00  0.00    +0.000 S 
ATOM     25  O   UNL     1      -3.187  13.203  23.958  0.00  0.00    +0.000 OA
ATOM     26  O   UNL     1      -1.376  14.724  23.073  0.00  0.00    +0.000 OA
BRANCH  24  27
ATOM     27  C   UNL     1      -3.222  13.843  21.411  0.00  0.00    +0.000 C 
BRANCH  27  28
ATOM     28  C   UNL     1      -4.097  12.627  21.129  0.00  0.00    +0.000 C 
BRANCH  28  29
ATOM     29  C   UNL     1      -5.571  12.993  20.926  0.00  0.00    +0.000 C 
BRANCH  29  30
ATOM     30  N   UNL     1      -6.199  12.346  19.761  0.00  0.00    +0.000 NA
ATOM     31  C   UNL     1      -5.211  11.933  18.758  0.00  0.00    +0.000 C 
ATOM     32  C   UNL     1      -6.965  11.173  20.196  0.00  0.00    +0.000 C 
ENDBRANCH  29  30
ENDBRANCH  28  29
ENDBRANCH  27  28
ENDBRANCH  24  27
ENDBRANCH  21  24
ENDBRANCH   6  18
TORSDOF 8
ENDMDL
MODEL 3
REMARK VINA RESULT:      -7.9      1.719      2.154
REMARK  Name = 
REMARK  13 active torsions:
REMARK  status: ('A' for Active; 'I' for Inactive)
REMARK    1  A    between atoms: C_1  and  C_2
REMARK    2  A    between atoms: C_5  and  C_6
REMARK    3  A    between atoms: N_11  and  C_12
REMARK    4  A    between atoms: C_15  and  S_16
REMARK    5  A    between atoms: S_16  and  C_19
REMARK    6  A    between atoms: C_19  and  C_20
REMARK    7  A    between atoms: C_20  and  C_21
REMARK    8  A    between atoms: C_21  and  N_22
REMARK    9  A    between atoms: N_22  and  C_23
REMARK   10  A    between atoms: N_22  and  C_24
REMARK   11  A    between atoms: N_28  and  C_29
REMARK   12  A    between atoms: C_29  and  C_30
REMARK   13  A    between atoms: C_29  and  C_31
REMARK                            x       y       z     vdW  Elec       q    Type
REMARK                         _______ _______ _______ _____ _____    ______ ____
ROOT
ATOM      1  C   UNL     1       2.829   6.706  19.263  0.00  0.00    +0.000 A 
ATOM      2  C   UNL     1       2.819   7.411  18.078  0.00  0.00    +0.000 A 
ATOM      3  C   UNL     1       2.091   8.563  18.083  0.00  0.00    +0.000 A 
ATOM      4  N   UNL     1       1.432   8.997  19.158  0.00  0.00    +0.000 NA
ATOM      5  C   UNL     1       1.498   8.269  20.284  0.00  0.00    +0.000 A 
ATOM      6  N   UNL     1       0.845   8.712  21.435  0.00  0.00    +0.000 N 
ATOM      7  N   UNL     1       2.193   7.125  20.375  0.00  0.00    +0.000 NA
ATOM      8  H   UNL     1       1.093   8.157  22.238  0.00  0.00    +0.000 HD
ENDROOT
BRANCH   1  13
ATOM      9  C   UNL     1       4.191   1.834  19.565  0.00  0.00    +0.000 C 
ATOM     10  C   UNL     1       4.200   3.313  19.460  0.00  0.00    +0.000 A 
ATOM     11  N   UNL     1       5.310   3.989  19.246  0.00  0.00    +0.000 NA
ATOM     12  C   UNL     1       4.948   5.293  19.189  0.00  0.00    +0.000 A 
ATOM     13  C   UNL     1       3.585   5.458  19.361  0.00  0.00    +0.000 A 
ATOM     14  N   UNL     1       3.104   4.162  19.555  0.00  0.00    +0.000 N 
BRANCH  14  15
ATOM     15  C   UNL     1       1.692   3.800  19.706  0.00  0.00    +0.000 C 
ATOM     16  C   UNL     1       1.177   3.004  18.506  0.00  0.00    +0.000 C 
ATOM     17  C   UNL     1       1.299   3.111  21.014  0.00  0.00    +0.000 C 
ENDBRANCH  14  15
ENDBRANCH   1  13
BRANCH   6  18
ATOM     18  C   UNL     1      -0.060   9.767  21.608  0.00  0.00    +0.000 A 
ATOM     19  C   UNL     1      -0.442  10.612  20.553  0.00  0.00    +0.000 A 
ATOM     20  C   UNL     1      -1.271  11.713  20.757  0.00  0.00    +0.000 A 
ATOM     21  C   UNL     1      -1.749  11.979  22.035  0.00  0.00    +0.000 A 
ATOM     22  C   UNL     1      -1.376  11.174  23.111  0.00  0.00    +0.000 A 
ATOM     23  C   UNL     1      -0.531  10.075  22.894  0.00  0.00    +0.000 A 
BRANCH  21  24
ATOM     24  S   UNL     1      -2.825  13.375  22.268  0.00  0.00    +0.000 S 
ATOM     25  O   UNL     1      -2.016  14.467  22.769  0.00  0.00    +0.000 OA
ATOM     26  O   UNL     1      -3.599  13.509  21.050  0.00  0.00    +0.000 OA
BRANCH  24  27
ATOM     27  C   UNL     1      -3.918  12.846  23.580  0.00  0.00    +0.000 C 
BRANCH  27  28
ATOM     28  C   UNL     1      -5.364  13.188  23.241  0.00  0.00    +0.000 C 
BRANCH  28  29
ATOM     29  C   UNL     1      -5.701  14.660  23.495  0.00  0.00    +0.000 C 
BRANCH  29  30
ATOM     30  N   UNL     1      -7.053  14.886  24.035  0.00  0.00    +0.000 NA
ATOM     31  C   UNL     1      -7.858  15.750  23.165  0.00  0.00    +0.000 C 
ATOM     32  C   UNL     1      -7.739  13.602  24.211  0.00  0.00    +0.000 C 
ENDBRANCH  29  30
ENDBRANCH  28  29
ENDBRANCH  27  28
ENDBRANCH  24  27
ENDBRANCH  21  24
ENDBRANCH   6  18
TORSDOF 8
ENDMDL
MODEL 4
REMARK VINA RESULT:      -7.8      0.915      1.303
REMARK  Name = 
REMARK  13 active torsions:
REMARK  status: ('A' for Active; 'I' for Inactive)
REMARK    1  A    between atoms: C_1  and  C_2
REMARK    2  A    between atoms: C_5  and  C_6
REMARK    3  A    between atoms: N_11  and  C_12
REMARK    4  A    between atoms: C_15  and  S_16
REMARK    5  A    between atoms: S_16  and  C_19
REMARK    6  A    between atoms: C_19  and  C_20
REMARK    7  A    between atoms: C_20  and  C_21
REMARK    8  A    between atoms: C_21  and  N_22
REMARK    9  A    between atoms: N_22  and  C_23
REMARK   10  A    between atoms: N_22  and  C_24
REMARK   11  A    between atoms: N_28  and  C_29
REMARK   12  A    between atoms: C_29  and  C_30
REMARK   13  A    between atoms: C_29  and  C_31
REMARK                            x       y       z     vdW  Elec       q    Type
REMARK                         _______ _______ _______ _____ _____    ______ ____
ROOT
ATOM      1  C   UNL     1       2.933   6.379  19.208  0.00  0.00    +0.000 A 
ATOM      2  C   UNL     1       2.762   7.084  18.035  0.00  0.00    +0.000 A 
ATOM      3  C   UNL     1       2.097   8.268  18.150  0.00  0.00    +0.000 A 
ATOM      4  N   UNL     1       1.641   8.731  19.315  0.00  0.00    +0.000 NA
ATOM      5  C   UNL     1       1.856   7.999  20.421  0.00  0.00    +0.000 A 
ATOM      6  N   UNL     1       1.419   8.471  21.659  0.00  0.00    +0.000 N 
ATOM      7  N   UNL     1       2.505   6.826  20.406  0.00  0.00    +0.000 NA
ATOM      8  H   UNL     1       1.769   7.904  22.415  0.00  0.00    +0.000 HD
ENDROOT
BRANCH   1  13
ATOM      9  C   UNL     1       4.142   1.477  18.769  0.00  0.00    +0.000 C 
ATOM     10  C   UNL     1       4.192   2.946  18.968  0.00  0.00    +0.000 A 
ATOM     11  N   UNL     1       5.333   3.591  19.103  0.00  0.00    +0.000 NA
ATOM     12  C   UNL     1       5.007   4.899  19.243  0.00  0.00    +0.000 A 
ATOM     13  C   UNL     1       3.639   5.098  19.190  0.00  0.00    +0.000 A 
ATOM     14  N   UNL     1       3.111   3.816  19.027  0.00  0.00    +0.000 N 
BRANCH  14  15
ATOM     15  C   UNL     1       1.691   3.506  18.838  0.00  0.00    +0.000 C 
ATOM     16  C   UNL     1       0.871   3.808  20.093  0.00  0.00    +0.000 C 
ATOM     17  C   UNL     1       1.018   4.107  17.602  0.00  0.00    +0.000 C 
ENDBRANCH  14  15
ENDBRANCH   1  13
BRANCH   6  18
ATOM     18  C   UNL     1       0.602   9.565  21.969  0.00  0.00    +0.000 A 
ATOM     19  C   UNL     1      -0.379   9.512  22.974  0.00  0.00    +0.000 A 
ATOM     20  C   UNL     1      -1.247  10.577  23.211  0.00  0.00    +0.000 A 
ATOM     21  C   UNL     1      -1.134  11.731  22.445  0.00  0.00    +0.000 A 
ATOM     22  C   UNL     1      -0.185  11.815  21.426  0.00  0.00    +0.000 A 
ATOM     23  C   UNL     1       0.675  10.731  21.191  0.00  0.00    +0.000 A 
BRANCH  21  24
ATOM     24  S   UNL     1      -2.235  13.086  22.781  0.00  0.00    +0.000 S 
ATOM     25  O   UNL     1      -3.290  12.585  23.637  0.00  0.00    +0.000 OA
ATOM     26  O   UNL     1      -1.405  14.204  23.184  0.00  0.00    +0.000 OA
BRANCH  24  27
ATOM     27  C   UNL     1      -2.945  13.454  21.182  0.00  0.00    +0.000 C 
BRANCH  27  28
ATOM     28  C   UNL     1      -4.465  13.525  21.277  0.00  0.00    +0.000 C 
BRANCH  28  29
ATOM     29  C   UNL     1      -5.158  12.348  20.582  0.00  0.00    +0.000 C 
BRANCH  29  30
ATOM     30  N   UNL     1      -6.322  11.816  21.310  0.00  0.00    +0.000 NA
ATOM     31  C   UNL     1      -6.799  12.743  22.343  0.00  0.00    +0.000 C 
ATOM     32  C   UNL     1      -7.412  11.538  20.370  0.00  0.00    +0.000 C 
ENDBRANCH  29  30
ENDBRANCH  28  29
ENDBRANCH  27  28
ENDBRANCH  24  27
ENDBRANCH  21  24
ENDBRANCH   6  18
TORSDOF 8
ENDMDL
MODEL 5
REMARK VINA RESULT:      -7.7      1.278      1.911
REMARK  Name = 
REMARK  13 active torsions:
REMARK  status: ('A' for Active; 'I' for Inactive)
REMARK    1  A    between atoms: C_1  and  C_2
REMARK    2  A    between atoms: C_5  and  C_6
REMARK    3  A    between atoms: N_11  and  C_12
REMARK    4  A    between atoms: C_15  and  S_16
REMARK    5  A    between atoms: S_16  and  C_19
REMARK    6  A    between atoms: C_19  and  C_20
REMARK    7  A    between atoms: C_20  and  C_21
REMARK    8  A    between atoms: C_21  and  N_22
REMARK    9  A    between atoms: N_22  and  C_23
REMARK   10  A    between atoms: N_22  and  C_24
REMARK   11  A    between atoms: N_28  and  C_29
REMARK   12  A    between atoms: C_29  and  C_30
REMARK   13  A    between atoms: C_29  and  C_31
REMARK                            x       y       z     vdW  Elec       q    Type
REMARK                         _______ _______ _______ _____ _____    ______ ____
ROOT
ATOM      1  C   UNL     1       2.986   6.352  19.183  0.00  0.00    +0.000 A 
ATOM      2  C   UNL     1       2.876   7.018  17.981  0.00  0.00    +0.000 A 
ATOM      3  C   UNL     1       2.220   8.213  18.026  0.00  0.00    +0.000 A 
ATOM      4  N   UNL     1       1.718   8.719  19.154  0.00  0.00    +0.000 NA
ATOM      5  C   UNL     1       1.876   8.024  20.291  0.00  0.00    +0.000 A 
ATOM      6  N   UNL     1       1.390   8.542  21.492  0.00  0.00    +0.000 N 
ATOM      7  N   UNL     1       2.511   6.844  20.345  0.00  0.00    +0.000 NA
ATOM      8  H   UNL     1       1.699   7.998  22.282  0.00  0.00    +0.000 HD
ENDROOT
BRANCH   1  13
ATOM      9  C   UNL     1       4.152   1.424  18.975  0.00  0.00    +0.000 C 
ATOM     10  C   UNL     1       4.212   2.899  19.120  0.00  0.00    +0.000 A 
ATOM     11  N   UNL     1       5.355   3.537  19.274  0.00  0.00    +0.000 NA
ATOM     12  C   UNL     1       5.039   4.852  19.352  0.00  0.00    +0.000 A 
ATOM     13  C   UNL     1       3.677   5.064  19.240  0.00  0.00    +0.000 A 
ATOM     14  N   UNL     1       3.140   3.782  19.105  0.00  0.00    +0.000 N 
BRANCH  14  15
ATOM     15  C   UNL     1       1.724   3.480  18.875  0.00  0.00    +0.000 C 
ATOM     16  C   UNL     1       0.866   3.811  20.097  0.00  0.00    +0.000 C 
ATOM     17  C   UNL     1       1.098   4.064  17.607  0.00  0.00    +0.000 C 
ENDBRANCH  14  15
ENDBRANCH   1  13
BRANCH   6  18
ATOM     18  C   UNL     1       0.572   9.655  21.729  0.00  0.00    +0.000 A 
ATOM     19  C   UNL     1       0.725  10.863  21.028  0.00  0.00    +0.000 A 
ATOM     20  C   UNL     1      -0.034  11.991  21.336  0.00  0.00    +0.000 A 
ATOM     21  C   UNL     1      -0.978  11.921  22.353  0.00  0.00    +0.000 A 
ATOM     22  C   UNL     1      -1.145  10.745  23.084  0.00  0.00    +0.000 A 
ATOM     23  C   UNL     1      -0.366   9.619  22.771  0.00  0.00    +0.000 A 
BRANCH  21  24
ATOM     24  S   UNL     1      -1.951  13.365  22.713  0.00  0.00    +0.000 S 
ATOM     25  O   UNL     1      -1.521  13.867  24.001  0.00  0.00    +0.000 OA
ATOM     26  O   UNL     1      -1.908  14.198  21.528  0.00  0.00    +0.000 OA
BRANCH  24  27
ATOM     27  C   UNL     1      -3.608  12.719  22.893  0.00  0.00    +0.000 C 
BRANCH  27  28
ATOM     28  C   UNL     1      -4.444  13.042  21.659  0.00  0.00    +0.000 C 
BRANCH  28  29
ATOM     29  C   UNL     1      -5.921  12.677  21.833  0.00  0.00    +0.000 C 
BRANCH  29  30
ATOM     30  N   UNL     1      -6.495  13.081  23.128  0.00  0.00    +0.000 NA
ATOM     31  C   UNL     1      -6.861  14.502  23.151  0.00  0.00    +0.000 C 
ATOM     32  C   UNL     1      -7.683  12.271  23.420  0.00  0.00    +0.000 C 
ENDBRANCH  29  30
ENDBRANCH  28  29
ENDBRANCH  27  28
ENDBRANCH  24  27
ENDBRANCH  21  24
ENDBRANCH   6  18
TORSDOF 8
ENDMDL
MODEL 6
REMARK VINA RESULT:      -7.7      0.889      1.520
REMARK  Name = 
REMARK  13 active torsions:
REMARK  status: ('A' for Active; 'I' for Inactive)
REMARK    1  A    between atoms: C_1  and  C_2
REMARK    2  A    between atoms: C_5  and  C_6
REMARK    3  A    between atoms: N_11  and  C_12
REMARK    4  A    between atoms: C_15  and  S_16
REMARK    5  A    between atoms: S_16  and  C_19
REMARK    6  A    between atoms: C_19  and  C_20
REMARK    7  A    between atoms: C_20  and  C_21
REMARK    8  A    between atoms: C_21  and  N_22
REMARK    9  A    between atoms: N_22  and  C_23
REMARK   10  A    between atoms: N_22  and  C_24
REMARK   11  A    between atoms: N_28  and  C_29
REMARK   12  A    between atoms: C_29  and  C_30
REMARK   13  A    between atoms: C_29  and  C_31
REMARK                            x       y       z     vdW  Elec       q    Type
REMARK                         _______ _______ _______ _____ _____    ______ ____
ROOT
ATOM      1  C   UNL     1       2.983   6.366  19.178  0.00  0.00    +0.000 A 
ATOM      2  C   UNL     1       2.900   7.080  18.001  0.00  0.00    +0.000 A 
ATOM      3  C   UNL     1       2.237   8.269  18.078  0.00  0.00    +0.000 A 
ATOM      4  N   UNL     1       1.704   8.727  19.212  0.00  0.00    +0.000 NA
ATOM      5  C   UNL     1       1.836   7.987  20.324  0.00  0.00    +0.000 A 
ATOM      6  N   UNL     1       1.317   8.453  21.532  0.00  0.00    +0.000 N 
ATOM      7  N   UNL     1       2.476   6.808  20.346  0.00  0.00    +0.000 NA
ATOM      8  H   UNL     1       1.609   7.879  22.307  0.00  0.00    +0.000 HD
ENDROOT
BRANCH   1  13
ATOM      9  C   UNL     1       4.164   1.448  18.852  0.00  0.00    +0.000 C 
ATOM     10  C   UNL     1       4.220   2.920  19.028  0.00  0.00    +0.000 A 
ATOM     11  N   UNL     1       5.362   3.558  19.182  0.00  0.00    +0.000 NA
ATOM     12  C   UNL     1       5.043   4.871  19.292  0.00  0.00    +0.000 A 
ATOM     13  C   UNL     1       3.679   5.079  19.200  0.00  0.00    +0.000 A 
ATOM     14  N   UNL     1       3.145   3.799  19.044  0.00  0.00    +0.000 N 
BRANCH  14  15
ATOM     15  C   UNL     1       1.728   3.497  18.822  0.00  0.00    +0.000 C 
ATOM     16  C   UNL     1       0.884   3.785  20.065  0.00  0.00    +0.000 C 
ATOM     17  C   UNL     1       1.082   4.116  17.581  0.00  0.00    +0.000 C 
ENDBRANCH  14  15
ENDBRANCH   1  13
BRANCH   6  18
ATOM     18  C   UNL     1       0.488   9.552  21.792  0.00  0.00    +0.000 A 
ATOM     19  C   UNL     1       0.573  10.749  21.062  0.00  0.00    +0.000 A 
ATOM     20  C   UNL     1      -0.193  11.866  21.390  0.00  0.00    +0.000 A 
ATOM     21  C   UNL     1      -1.078  11.795  22.459  0.00  0.00    +0.000 A 
ATOM     22  C   UNL     1      -1.177  10.630  23.220  0.00  0.00    +0.000 A 
ATOM     23  C   UNL     1      -0.391   9.516  22.886  0.00  0.00    +0.000 A 
BRANCH  21  24
ATOM     24  S   UNL     1      -2.063  13.224  22.845  0.00  0.00    +0.000 S 
ATOM     25  O   UNL     1      -3.057  12.815  23.816  0.00  0.00    +0.000 OA
ATOM     26  O   UNL     1      -1.136  14.302  23.125  0.00  0.00    +0.000 OA
BRANCH  24  27
ATOM     27  C   UNL     1      -2.903  13.581  21.308  0.00  0.00    +0.000 C 
BRANCH  27  28
ATOM     28  C   UNL     1      -4.414  13.496  21.493  0.00  0.00    +0.000 C 
BRANCH  28  29
ATOM     29  C   UNL     1      -5.071  12.488  20.545  0.00  0.00    +0.000 C 
BRANCH  29  30
ATOM     30  N   UNL     1      -6.533  12.385  20.692  0.00  0.00    +0.000 NA
ATOM     31  C   UNL     1      -7.049  11.104  20.196  0.00  0.00    +0.000 C 
ATOM     32  C   UNL     1      -6.903  12.541  22.103  0.00  0.00    +0.000 C 
ENDBRANCH  29  30
ENDBRANCH  28  29
ENDBRANCH  27  28
ENDBRANCH  24  27
ENDBRANCH  21  24
ENDBRANCH   6  18
TORSDOF 8
ENDMDL
MODEL 7
REMARK VINA RESULT:      -7.7      2.218      2.713
REMARK  Name = 
REMARK  13 active torsions:
REMARK  status: ('A' for Active; 'I' for Inactive)
REMARK    1  A    between atoms: C_1  and  C_2
REMARK    2  A    between atoms: C_5  and  C_6
REMARK    3  A    between atoms: N_11  and  C_12
REMARK    4  A    between atoms: C_15  and  S_16
REMARK    5  A    between atoms: S_16  and  C_19
REMARK    6  A    between atoms: C_19  and  C_20
REMARK    7  A    between atoms: C_20  and  C_21
REMARK    8  A    between atoms: C_21  and  N_22
REMARK    9  A    between atoms: N_22  and  C_23
REMARK   10  A    between atoms: N_22  and  C_24
REMARK   11  A    between atoms: N_28  and  C_29
REMARK   12  A    between atoms: C_29  and  C_30
REMARK   13  A    between atoms: C_29  and  C_31
REMARK                            x       y       z     vdW  Elec       q    Type
REMARK                         _______ _______ _______ _____ _____    ______ ____
ROOT
ATOM      1  C   UNL     1       2.816   6.561  19.272  0.00  0.00    +0.000 A 
ATOM      2  C   UNL     1       2.712   7.243  18.078  0.00  0.00    +0.000 A 
ATOM      3  C   UNL     1       2.007   8.409  18.123  0.00  0.00    +0.000 A 
ATOM      4  N   UNL     1       1.454   8.876  19.244  0.00  0.00    +0.000 NA
ATOM      5  C   UNL     1       1.607   8.168  20.374  0.00  0.00    +0.000 A 
ATOM      6  N   UNL     1       1.067   8.645  21.569  0.00  0.00    +0.000 N 
ATOM      7  N   UNL     1       2.288   7.014  20.427  0.00  0.00    +0.000 NA
ATOM      8  H   UNL     1       1.376   8.101  22.359  0.00  0.00    +0.000 HD
ENDROOT
BRANCH   1  13
ATOM      9  C   UNL     1       4.113   1.665  19.461  0.00  0.00    +0.000 C 
ATOM     10  C   UNL     1       4.141   3.147  19.377  0.00  0.00    +0.000 A 
ATOM     11  N   UNL     1       5.255   3.809  19.140  0.00  0.00    +0.000 NA
ATOM     12  C   UNL     1       4.910   5.119  19.113  0.00  0.00    +0.000 A 
ATOM     13  C   UNL     1       3.556   5.301  19.328  0.00  0.00    +0.000 A 
ATOM     14  N   UNL     1       3.061   4.009  19.517  0.00  0.00    +0.000 N 
BRANCH  14  15
ATOM     15  C   UNL     1       1.649   3.665  19.705  0.00  0.00    +0.000 C 
ATOM     16  C   UNL     1       1.107   2.830  18.545  0.00  0.00    +0.000 C 
ATOM     17  C   UNL     1       1.273   3.028  21.045  0.00  0.00    +0.000 C 
ENDBRANCH  14  15
ENDBRANCH   1  13
BRANCH   6  18
ATOM     18  C   UNL     1       0.199   9.720  21.800  0.00  0.00    +0.000 A 
ATOM     19  C   UNL     1      -0.451   9.913  23.030  0.00  0.00    +0.000 A 
ATOM     20  C   UNL     1      -1.381  10.933  23.218  0.00  0.00    +0.000 A 
ATOM     21  C   UNL     1      -1.668  11.796  22.166  0.00  0.00    +0.000 A 
ATOM     22  C   UNL     1      -1.057  11.625  20.924  0.00  0.00    +0.000 A 
ATOM     23  C   UNL     1      -0.130  10.586  20.746  0.00  0.00    +0.000 A 
BRANCH  21  24
ATOM     24  S   UNL     1      -2.840  13.106  22.435  0.00  0.00    +0.000 S 
ATOM     25  O   UNL     1      -2.918  13.875  21.211  0.00  0.00    +0.000 OA
ATOM     26  O   UNL     1      -4.018  12.493  23.015  0.00  0.00    +0.000 OA
BRANCH  24  27
ATOM     27  C   UNL     1      -2.056  14.121  23.680  0.00  0.00    +0.000 C 
BRANCH  27  28
ATOM     28  C   UNL     1      -3.093  14.665  24.656  0.00  0.00    +0.000 C 
BRANCH  28  29
ATOM     29  C   UNL     1      -3.711  15.986  24.189  0.00  0.00    +0.000 C 
BRANCH  29  30
ATOM     30  N   UNL     1      -5.146  16.122  24.491  0.00  0.00    +0.000 NA
ATOM     31  C   UNL     1      -5.543  17.522  24.673  0.00  0.00    +0.000 C 
ATOM     32  C   UNL     1      -5.940  15.531  23.408  0.00  0.00    +0.000 C 
ENDBRANCH  29  30
ENDBRANCH  28  29
ENDBRANCH  27  28
ENDBRANCH  24  27
ENDBRANCH  21  24
ENDBRANCH   6  18
TORSDOF 8
ENDMDL
MODEL 8
REMARK VINA RESULT:      -7.7      0.978      1.503
REMARK  Name = 
REMARK  13 active torsions:
REMARK  status: ('A' for Active; 'I' for Inactive)
REMARK    1  A    between atoms: C_1  and  C_2
REMARK    2  A    between atoms: C_5  and  C_6
REMARK    3  A    between atoms: N_11  and  C_12
REMARK    4  A    between atoms: C_15  and  S_16
REMARK    5  A    between atoms: S_16  and  C_19
REMARK    6  A    between atoms: C_19  and  C_20
REMARK    7  A    between atoms: C_20  and  C_21
REMARK    8  A    between atoms: C_21  and  N_22
REMARK    9  A    between atoms: N_22  and  C_23
REMARK   10  A    between atoms: N_22  and  C_24
REMARK   11  A    between atoms: N_28  and  C_29
REMARK   12  A    between atoms: C_29  and  C_30
REMARK   13  A    between atoms: C_29  and  C_31
REMARK                            x       y       z     vdW  Elec       q    Type
REMARK                         _______ _______ _______ _____ _____    ______ ____
ROOT
ATOM      1  C   UNL     1       3.014   6.582  19.082  0.00  0.00    +0.000 A 
ATOM      2  C   UNL     1       3.094   7.286  17.899  0.00  0.00    +0.000 A 
ATOM      3  C   UNL     1       2.388   8.452  17.857  0.00  0.00    +0.000 A 
ATOM      4  N   UNL     1       1.669   8.899  18.888  0.00  0.00    +0.000 NA
ATOM      5  C   UNL     1       1.649   8.170  20.016  0.00  0.00    +0.000 A 
ATOM      6  N   UNL     1       0.931   8.626  21.122  0.00  0.00    +0.000 N 
ATOM      7  N   UNL     1       2.315   7.014  20.151  0.00  0.00    +0.000 NA
ATOM      8  H   UNL     1       1.116   8.067  21.940  0.00  0.00    +0.000 HD
ENDROOT
BRANCH   1  13
ATOM      9  C   UNL     1       4.316   1.685  19.202  0.00  0.00    +0.000 C 
ATOM     10  C   UNL     1       4.334   3.168  19.252  0.00  0.00    +0.000 A 
ATOM     11  N   UNL     1       5.457   3.846  19.374  0.00  0.00    +0.000 NA
ATOM     12  C   UNL     1       5.105   5.154  19.365  0.00  0.00    +0.000 A 
ATOM     13  C   UNL     1       3.739   5.320  19.228  0.00  0.00    +0.000 A 
ATOM     14  N   UNL     1       3.239   4.018  19.171  0.00  0.00    +0.000 N 
BRANCH  14  15
ATOM     15  C   UNL     1       1.834   3.663  18.949  0.00  0.00    +0.000 C 
ATOM     16  C   UNL     1       0.974   3.945  20.182  0.00  0.00    +0.000 C 
ATOM     17  C   UNL     1       1.174   4.236  17.693  0.00  0.00    +0.000 C 
ENDBRANCH  14  15
ENDBRANCH   1  13
BRANCH   6  18
ATOM     18  C   UNL     1       0.037   9.698  21.237  0.00  0.00    +0.000 A 
ATOM     19  C   UNL     1      -0.510  10.345  20.117  0.00  0.00    +0.000 A 
ATOM     20  C   UNL     1      -1.326  11.468  20.243  0.00  0.00    +0.000 A 
ATOM     21  C   UNL     1      -1.623  11.956  21.509  0.00  0.00    +0.000 A 
ATOM     22  C   UNL     1      -1.083  11.352  22.645  0.00  0.00    +0.000 A 
ATOM     23  C   UNL     1      -0.254  10.229  22.503  0.00  0.00    +0.000 A 
BRANCH  21  24
ATOM     24  S   UNL     1      -2.686  13.375  21.648  0.00  0.00    +0.000 S 
ATOM     25  O   UNL     1      -2.670  13.794  23.034  0.00  0.00    +0.000 OA
ATOM     26  O   UNL     1      -2.307  14.281  20.582  0.00  0.00    +0.000 OA
BRANCH  24  27
ATOM     27  C   UNL     1      -4.309  12.719  21.286  0.00  0.00    +0.000 C 
BRANCH  27  28
ATOM     28  C   UNL     1      -5.086  13.679  20.392  0.00  0.00    +0.000 C 
BRANCH  28  29
ATOM     29  C   UNL     1      -5.790  12.970  19.231  0.00  0.00    +0.000 C 
BRANCH  29  30
ATOM     30  N   UNL     1      -5.285  11.613  18.957  0.00  0.00    +0.000 NA
ATOM     31  C   UNL     1      -6.372  10.658  18.714  0.00  0.00    +0.000 C 
ATOM     32  C   UNL     1      -4.396  11.640  17.791  0.00  0.00    +0.000 C 
ENDBRANCH  29  30
ENDBRANCH  28  29
ENDBRANCH  27  28
ENDBRANCH  24  27
ENDBRANCH  21  24
ENDBRANCH   6  18
TORSDOF 8
ENDMDL
MODEL 9
REMARK VINA RESULT:      -7.7      2.426      3.409
REMARK  Name = 
REMARK  13 active torsions:
REMARK  status: ('A' for Active; 'I' for Inactive)
REMARK    1  A    between atoms: C_1  and  C_2
REMARK    2  A    between atoms: C_5  and  C_6
REMARK    3  A    between atoms: N_11  and  C_12
REMARK    4  A    between atoms: C_15  and  S_16
REMARK    5  A    between atoms: S_16  and  C_19
REMARK    6  A    between atoms: C_19  and  C_20
REMARK    7  A    between atoms: C_20  and  C_21
REMARK    8  A    between atoms: C_21  and  N_22
REMARK    9  A    between atoms: N_22  and  C_23
REMARK   10  A    between atoms: N_22  and  C_24
REMARK   11  A    between atoms: N_28  and  C_29
REMARK   12  A    between atoms: C_29  and  C_30
REMARK   13  A    between atoms: C_29  and  C_31
REMARK                            x       y       z     vdW  Elec       q    Type
REMARK                         _______ _______ _______ _____ _____    ______ ____
ROOT
ATOM      1  C   UNL     1       2.883   6.654  19.210  0.00  0.00    +0.000 A 
ATOM      2  C   UNL     1       2.896   7.371  18.032  0.00  0.00    +0.000 A 
ATOM      3  C   UNL     1       2.178   8.530  18.040  0.00  0.00    +0.000 A 
ATOM      4  N   UNL     1       1.509   8.960  19.111  0.00  0.00    +0.000 NA
ATOM      5  C   UNL     1       1.554   8.219  20.230  0.00  0.00    +0.000 A 
ATOM      6  N   UNL     1       0.890   8.656  21.377  0.00  0.00    +0.000 N 
ATOM      7  N   UNL     1       2.237   7.068  20.318  0.00  0.00    +0.000 NA
ATOM      8  H   UNL     1       1.123   8.091  22.178  0.00  0.00    +0.000 HD
ENDROOT
BRANCH   1  13
ATOM      9  C   UNL     1       4.193   1.766  19.493  0.00  0.00    +0.000 C 
ATOM     10  C   UNL     1       4.218   3.247  19.396  0.00  0.00    +0.000 A 
ATOM     11  N   UNL     1       5.337   3.911  19.190  0.00  0.00    +0.000 NA
ATOM     12  C   UNL     1       4.988   5.220  19.138  0.00  0.00    +0.000 A 
ATOM     13  C   UNL     1       3.626   5.398  19.305  0.00  0.00    +0.000 A 
ATOM     14  N   UNL     1       3.131   4.106  19.489  0.00  0.00    +0.000 N 
BRANCH  14  15
ATOM     15  C   UNL     1       1.714   3.758  19.632  0.00  0.00    +0.000 C 
ATOM     16  C   UNL     1       1.213   2.919  18.456  0.00  0.00    +0.000 C 
ATOM     17  C   UNL     1       1.297   3.121  20.960  0.00  0.00    +0.000 C 
ENDBRANCH  14  15
ENDBRANCH   1  13
BRANCH   6  18
ATOM     18  C   UNL     1      -0.007   9.718  21.549  0.00  0.00    +0.000 A 
ATOM     19  C   UNL     1      -0.408  10.545  20.486  0.00  0.00    +0.000 A 
ATOM     20  C   UNL     1      -1.229  11.653  20.687  0.00  0.00    +0.000 A 
ATOM     21  C   UNL     1      -1.678  11.946  21.970  0.00  0.00    +0.000 A 
ATOM     22  C   UNL     1      -1.285  11.160  23.053  0.00  0.00    +0.000 A 
ATOM     23  C   UNL     1      -0.449  10.053  22.838  0.00  0.00    +0.000 A 
BRANCH  21  24
ATOM     24  S   UNL     1      -2.744  13.350  22.199  0.00  0.00    +0.000 S 
ATOM     25  O   UNL     1      -4.109  12.868  22.164  0.00  0.00    +0.000 OA
ATOM     26  O   UNL     1      -2.230  14.076  23.343  0.00  0.00    +0.000 OA
BRANCH  24  27
ATOM     27  C   UNL     1      -2.464  14.332  20.732  0.00  0.00    +0.000 C 
BRANCH  27  28
ATOM     28  C   UNL     1      -1.263  15.250  20.924  0.00  0.00    +0.000 C 
BRANCH  28  29
ATOM     29  C   UNL     1      -1.292  16.467  19.995  0.00  0.00    +0.000 C 
BRANCH  29  30
ATOM     30  N   UNL     1      -0.532  16.292  18.746  0.00  0.00    +0.000 NA
ATOM     31  C   UNL     1      -0.651  17.454  17.858  0.00  0.00    +0.000 C 
ATOM     32  C   UNL     1       0.884  16.062  19.054  0.00  0.00    +0.000 C 
ENDBRANCH  29  30
ENDBRANCH  28  29
ENDBRANCH  27  28
ENDBRANCH  24  27
ENDBRANCH  21  24
ENDBRANCH   6  18
TORSDOF 8
ENDMDL
