MODEL 1
REMARK VINA RESULT:      -7.6      0.000      0.000
REMARK  Name = 
REMARK  9 active torsions:
REMARK  status: ('A' for Active; 'I' for Inactive)
REMARK    1  A    between atoms: C_1  and  C_2
REMARK    2  A    between atoms: C_2  and  C_3
REMARK    3  A    between atoms: C_2  and  C_4
REMARK    4  A    between atoms: C_4  and  O_5
REMARK    5  A    between atoms: O_5  and  C_6
REMARK    6  A    between atoms: C_6  and  C_8
REMARK    7  A    between atoms: C_13  and  O_14
REMARK    8  A    between atoms: O_14  and  C_15
REMARK    9  A    between atoms: C_15  and  C_17
REMARK                            x       y       z     vdW  Elec       q    Type
REMARK                         _______ _______ _______ _____ _____    ______ ____
ROOT
ATOM      1  C   UNL     1       6.134   5.767  16.707  0.00  0.00    +0.000 A 
ATOM      2  C   UNL     1       7.417   6.088  17.201  0.00  0.00    +0.000 A 
ATOM      3  C   UNL     1       7.728   5.970  18.557  0.00  0.00    +0.000 A 
ATOM      4  C   UNL     1       6.764   5.524  19.450  0.00  0.00    +0.000 A 
ATOM      5  C   UNL     1       5.491   5.199  18.986  0.00  0.00    +0.000 A 
ATOM      6  C   UNL     1       5.176   5.299  17.618  0.00  0.00    +0.000 A 
ENDROOT
BRANCH   1   7
ATOM      7  C   UNL     1       5.929   6.060  15.257  0.00  0.00    +0.000 C 
ATOM      8  O   UNL     1       5.141   6.919  14.885  0.00  0.00    +0.000 OA
BRANCH   7   9
ATOM      9  O   UNL     1       6.616   5.239  14.426  0.00  0.00    +0.000 OA
BRANCH   9  10
ATOM     10  C   UNL     1       5.926   4.019  14.087  0.00  0.00    +0.000 C 
BRANCH  10  12
ATOM     11  C   UNL     1       4.905   3.372  11.856  0.00  0.00    +0.000 C 
ATOM     12  C   UNL     1       6.193   3.496  12.665  0.00  0.00    +0.000 C 
ATOM     13  C   UNL     1       7.186   4.418  11.950  0.00  0.00    +0.000 C 
ENDBRANCH  10  12
ENDBRANCH   9  10
ENDBRANCH   7   9
ENDBRANCH   1   7
BRANCH   6  14
ATOM     14  O   UNL     1       3.840   5.068  17.238  0.00  0.00    +0.000 OA
BRANCH  14  15
ATOM     15  C   UNL     1       2.858   5.649  18.031  0.00  0.00    +0.000 C 
ATOM     16  O   UNL     1       2.568   6.832  18.102  0.00  0.00    +0.000 OA
BRANCH  15  17
ATOM     17  C   UNL     1       2.152   4.601  18.804  0.00  0.00    +0.000 A 
ATOM     18  C   UNL     1       1.594   3.476  18.194  0.00  0.00    +0.000 A 
ATOM     19  C   UNL     1       0.922   2.572  18.995  0.00  0.00    +0.000 A 
ATOM     20  N   UNL     1       0.773   2.719  20.329  0.00  0.00    +0.000 NA
ATOM     21  C   UNL     1       1.303   3.827  20.892  0.00  0.00    +0.000 A 
ATOM     22  C   UNL     1       1.985   4.794  20.179  0.00  0.00    +0.000 A 
ENDBRANCH  15  17
ENDBRANCH  14  15
ENDBRANCH   6  14
TORSDOF 7
ENDMDL
MODEL 2
REMARK VINA RESULT:      -7.5      1.184      1.499
REMARK  Name = 
REMARK  9 active torsions:
REMARK  status: ('A' for Active; 'I' for Inactive)
REMARK    1  A    between atoms: C_1  and  C_2
REMARK    2  A    between atoms: C_2  and  C_3
REMARK    3  A    between atoms: C_2  and  C_4
REMARK    4  A    between atoms: C_4  and  O_5
REMARK    5  A    between atoms: O_5  and  C_6
REMARK    6  A    between atoms: C_6  and  C_8
REMARK    7  A    between atoms: C_13  and  O_14
REMARK    8  A    between atoms: O_14  and  C_15
REMARK    9  A    between atoms: C_15  and  C_17
REMARK                            x       y       z     vdW  Elec       q    Type
REMARK                         _______ _______ _______ _____ _____    ______ ____
ROOT
ATOM      1  C   UNL     1       5.914   5.717  16.826  0.00  0.00    +0.000 A 
ATOM      2  C   UNL     1       7.214   6.223  17.042  0.00  0.00    +0.000 A 
ATOM      3  C   UNL     1       7.796   6.227  18.312  0.00  0.00    +0.000 A 
ATOM      4  C   UNL     1       7.091   5.720  19.395  0.00  0.00    +0.000 A 
ATOM      5  C   UNL     1       5.808   5.212  19.207  0.00  0.00    +0.000 A 
ATOM      6  C   UNL     1       5.223   5.189  17.927  0.00  0.00    +0.000 A 
ENDROOT
BRANCH   1   7
ATOM      7  C   UNL     1       5.395   5.893  15.438  0.00  0.00    +0.000 C 
ATOM      8  O   UNL     1       5.154   7.004  14.983  0.00  0.00    +0.000 OA
BRANCH   7   9
ATOM      9  O   UNL     1       5.142   4.729  14.791  0.00  0.00    +0.000 OA
BRANCH   9  10
ATOM     10  C   UNL     1       6.318   3.984  14.419  0.00  0.00    +0.000 C 
BRANCH  10  12
ATOM     11  C   UNL     1       5.045   3.514  12.276  0.00  0.00    +0.000 C 
ATOM     12  C   UNL     1       6.421   3.637  12.925  0.00  0.00    +0.000 C 
ATOM     13  C   UNL     1       7.260   4.695  12.201  0.00  0.00    +0.000 C 
ENDBRANCH  10  12
ENDBRANCH   9  10
ENDBRANCH   7   9
ENDBRANCH   1   7
BRANCH   6  14
ATOM     14  O   UNL     1       3.882   4.772  17.830  0.00  0.00    +0.000 OA
BRANCH  14  15
ATOM     15  C   UNL     1       3.636   3.417  18.017  0.00  0.00    +0.000 C 
ATOM     16  O   UNL     1       4.058   2.489  17.346  0.00  0.00    +0.000 OA
BRANCH  15  17
ATOM     17  C   UNL     1       2.772   3.223  19.204  0.00  0.00    +0.000 A 
ATOM     18  C   UNL     1       1.421   3.577  19.207  0.00  0.00    +0.000 A 
ATOM     19  C   UNL     1       0.706   3.391  20.375  0.00  0.00    +0.000 A 
ATOM     20  N   UNL     1       1.241   2.894  21.510  0.00  0.00    +0.000 NA
ATOM     21  C   UNL     1       2.555   2.581  21.489  0.00  0.00    +0.000 A 
ATOM     22  C   UNL     1       3.359   2.736  20.376  0.00  0.00    +0.000 A 
ENDBRANCH  15  17
ENDBRANCH  14  15
ENDBRANCH   6  14
TORSDOF 7
ENDMDL
MODEL 3
REMARK VINA RESULT:      -7.5      1.197      1.630
REMARK  Name = 
REMARK  9 active torsions:
REMARK  status: ('A' for Active; 'I' for Inactive)
REMARK    1  A    between atoms: C_1  and  C_2
REMARK    2  A    between atoms: C_2  and  C_3
REMARK    3  A    between atoms: C_2  and  C_4
REMARK    4  A    between atoms: C_4  and  O_5
REMARK    5  A    between atoms: O_5  and  C_6
REMARK    6  A    between atoms: C_6  and  C_8
REMARK    7  A    between atoms: C_13  and  O_14
REMARK    8  A    between atoms: O_14  and  C_15
REMARK    9  A    between atoms: C_15  and  C_17
REMARK                            x       y       z     vdW  Elec       q    Type
REMARK                         _______ _______ _______ _____ _____    ______ ____
ROOT
ATOM      1  C   UNL     1       5.908   5.692  16.802  0.00  0.00    +0.000 A 
ATOM      2  C   UNL     1       7.185   6.234  17.060  0.00  0.00    +0.000 A 
ATOM      3  C   UNL     1       7.740   6.220  18.342  0.00  0.00    +0.000 A 
ATOM      4  C   UNL     1       7.031   5.658  19.394  0.00  0.00    +0.000 A 
ATOM      5  C   UNL     1       5.770   5.113  19.164  0.00  0.00    +0.000 A 
ATOM      6  C   UNL     1       5.212   5.108  17.871  0.00  0.00    +0.000 A 
ENDROOT
BRANCH   1   7
ATOM      7  C   UNL     1       5.412   5.892  15.408  0.00  0.00    +0.000 C 
ATOM      8  O   UNL     1       5.138   7.006  14.982  0.00  0.00    +0.000 OA
BRANCH   7   9
ATOM      9  O   UNL     1       5.217   4.740  14.721  0.00  0.00    +0.000 OA
BRANCH   9  10
ATOM     10  C   UNL     1       6.423   4.136  14.212  0.00  0.00    +0.000 C 
BRANCH  10  12
ATOM     11  C   UNL     1       4.866   3.582  12.288  0.00  0.00    +0.000 C 
ATOM     12  C   UNL     1       6.300   3.523  12.808  0.00  0.00    +0.000 C 
ATOM     13  C   UNL     1       7.248   4.240  11.841  0.00  0.00    +0.000 C 
ENDBRANCH  10  12
ENDBRANCH   9  10
ENDBRANCH   7   9
ENDBRANCH   1   7
BRANCH   6  14
ATOM     14  O   UNL     1       3.889   4.650  17.734  0.00  0.00    +0.000 OA
BRANCH  14  15
ATOM     15  C   UNL     1       3.656   3.316  18.044  0.00  0.00    +0.000 C 
ATOM     16  O   UNL     1       4.047   2.335  17.433  0.00  0.00    +0.000 OA
BRANCH  15  17
ATOM     17  C   UNL     1       2.852   3.222  19.285  0.00  0.00    +0.000 A 
ATOM     18  C   UNL     1       3.352   2.641  20.452  0.00  0.00    +0.000 A 
ATOM     19  C   UNL     1       2.513   2.566  21.548  0.00  0.00    +0.000 A 
ATOM     20  N   UNL     1       1.240   3.017  21.549  0.00  0.00    +0.000 NA
ATOM     21  C   UNL     1       0.773   3.554  20.401  0.00  0.00    +0.000 A 
ATOM     22  C   UNL     1       1.528   3.668  19.250  0.00  0.00    +0.000 A 
ENDBRANCH  15  17
ENDBRANCH  14  15
ENDBRANCH   6  14
TORSDOF 7
ENDMDL
MODEL 4
REMARK VINA RESULT:      -7.2      0.348      1.285
REMARK  Name = 
REMARK  9 active torsions:
REMARK  status: ('A' for Active; 'I' for Inactive)
REMARK    1  A    between atoms: C_1  and  C_2
REMARK    2  A    between atoms: C_2  and  C_3
REMARK    3  A    between atoms: C_2  and  C_4
REMARK    4  A    between atoms: C_4  and  O_5
REMARK    5  A    between atoms: O_5  and  C_6
REMARK    6  A    between atoms: C_6  and  C_8
REMARK    7  A    between atoms: C_13  and  O_14
REMARK    8  A    between atoms: O_14  and  C_15
REMARK    9  A    between atoms: C_15  and  C_17
REMARK                            x       y       z     vdW  Elec       q    Type
REMARK                         _______ _______ _______ _____ _____    ______ ____
ROOT
ATOM      1  C   UNL     1       6.185   5.623  16.777  0.00  0.00    +0.000 A 
ATOM      2  C   UNL     1       7.447   6.049  17.243  0.00  0.00    +0.000 A 
ATOM      3  C   UNL     1       7.777   6.011  18.599  0.00  0.00    +0.000 A 
ATOM      4  C   UNL     1       6.852   5.543  19.521  0.00  0.00    +0.000 A 
ATOM      5  C   UNL     1       5.600   5.114  19.086  0.00  0.00    +0.000 A 
ATOM      6  C   UNL     1       5.268   5.132  17.719  0.00  0.00    +0.000 A 
ENDROOT
BRANCH   1   7
ATOM      7  C   UNL     1       5.949   5.837  15.319  0.00  0.00    +0.000 C 
ATOM      8  O   UNL     1       5.161   6.684  14.918  0.00  0.00    +0.000 OA
BRANCH   7   9
ATOM      9  O   UNL     1       6.606   4.963  14.519  0.00  0.00    +0.000 OA
BRANCH   9  10
ATOM     10  C   UNL     1       5.766   3.964  13.907  0.00  0.00    +0.000 C 
BRANCH  10  12
ATOM     11  C   UNL     1       7.078   3.233  11.863  0.00  0.00    +0.000 C 
ATOM     12  C   UNL     1       5.817   3.926  12.371  0.00  0.00    +0.000 C 
ATOM     13  C   UNL     1       4.567   3.227  11.826  0.00  0.00    +0.000 C 
ENDBRANCH  10  12
ENDBRANCH   9  10
ENDBRANCH   7   9
ENDBRANCH   1   7
BRANCH   6  14
ATOM     14  O   UNL     1       3.947   4.797  17.365  0.00  0.00    +0.000 OA
BRANCH  14  15
ATOM     15  C   UNL     1       2.933   5.487  18.017  0.00  0.00    +0.000 C 
ATOM     16  O   UNL     1       2.660   6.672  17.914  0.00  0.00    +0.000 OA
BRANCH  15  17
ATOM     17  C   UNL     1       2.169   4.558  18.881  0.00  0.00    +0.000 A 
ATOM     18  C   UNL     1       2.123   4.702  20.269  0.00  0.00    +0.000 A 
ATOM     19  C   UNL     1       1.414   3.763  20.994  0.00  0.00    +0.000 A 
ATOM     20  N   UNL     1       0.771   2.715  20.435  0.00  0.00    +0.000 NA
ATOM     21  C   UNL     1       0.850   2.585  19.093  0.00  0.00    +0.000 A 
ATOM     22  C   UNL     1       1.539   3.464  18.281  0.00  0.00    +0.000 A 
ENDBRANCH  15  17
ENDBRANCH  14  15
ENDBRANCH   6  14
TORSDOF 7
ENDMDL
MODEL 5
REMARK VINA RESULT:      -7.2      2.903      5.506
REMARK  Name = 
REMARK  9 active torsions:
REMARK  status: ('A' for Active; 'I' for Inactive)
REMARK    1  A    between atoms: C_1  and  C_2
REMARK    2  A    between atoms: C_2  and  C_3
REMARK    3  A    between atoms: C_2  and  C_4
REMARK    4  A    between atoms: C_4  and  O_5
REMARK    5  A    between atoms: O_5  and  C_6
REMARK    6  A    between atoms: C_6  and  C_8
REMARK    7  A    between atoms: C_13  and  O_14
REMARK    8  A    between atoms: O_14  and  C_15
REMARK    9  A    between atoms: C_15  and  C_17
REMARK                            x       y       z     vdW  Elec       q    Type
REMARK                         _______ _______ _______ _____ _____    ______ ____
ROOT
ATOM      1  C   UNL     1       4.239   4.110  16.971  0.00  0.00    +0.000 A 
ATOM      2  C   UNL     1       5.357   3.510  16.351  0.00  0.00    +0.000 A 
ATOM      3  C   UNL     1       6.397   4.276  15.822  0.00  0.00    +0.000 A 
ATOM      4  C   UNL     1       6.346   5.660  15.903  0.00  0.00    +0.000 A 
ATOM      5  C   UNL     1       5.254   6.276  16.512  0.00  0.00    +0.000 A 
ATOM      6  C   UNL     1       4.211   5.510  17.064  0.00  0.00    +0.000 A 
ENDROOT
BRANCH   1   7
ATOM      7  C   UNL     1       3.162   3.159  17.378  0.00  0.00    +0.000 C 
ATOM      8  O   UNL     1       2.068   3.163  16.829  0.00  0.00    +0.000 OA
BRANCH   7   9
ATOM      9  O   UNL     1       3.483   2.384  18.442  0.00  0.00    +0.000 OA
BRANCH   9  10
ATOM     10  C   UNL     1       2.381   2.096  19.325  0.00  0.00    +0.000 C 
BRANCH  10  12
ATOM     11  C   UNL     1       0.813   3.935  20.098  0.00  0.00    +0.000 C 
ATOM     12  C   UNL     1       2.103   3.172  20.388  0.00  0.00    +0.000 C 
ATOM     13  C   UNL     1       2.041   2.527  21.777  0.00  0.00    +0.000 C 
ENDBRANCH  10  12
ENDBRANCH   9  10
ENDBRANCH   7   9
ENDBRANCH   1   7
BRANCH   6  14
ATOM     14  O   UNL     1       3.087   6.198  17.557  0.00  0.00    +0.000 OA
BRANCH  14  15
ATOM     15  C   UNL     1       3.100   6.528  18.906  0.00  0.00    +0.000 C 
ATOM     16  O   UNL     1       3.710   5.964  19.800  0.00  0.00    +0.000 OA
BRANCH  15  17
ATOM     17  C   UNL     1       2.259   7.726  19.139  0.00  0.00    +0.000 A 
ATOM     18  C   UNL     1       1.688   8.002  20.382  0.00  0.00    +0.000 A 
ATOM     19  C   UNL     1       0.887   9.124  20.491  0.00  0.00    +0.000 A 
ATOM     20  N   UNL     1       0.625   9.960  19.464  0.00  0.00    +0.000 NA
ATOM     21  C   UNL     1       1.171   9.658  18.266  0.00  0.00    +0.000 A 
ATOM     22  C   UNL     1       1.978   8.557  18.051  0.00  0.00    +0.000 A 
ENDBRANCH  15  17
ENDBRANCH  14  15
ENDBRANCH   6  14
TORSDOF 7
ENDMDL
MODEL 6
REMARK VINA RESULT:      -7.2      2.781      5.413
REMARK  Name = 
REMARK  9 active torsions:
REMARK  status: ('A' for Active; 'I' for Inactive)
REMARK    1  A    between atoms: C_1  and  C_2
REMARK    2  A    between atoms: C_2  and  C_3
REMARK    3  A    between atoms: C_2  and  C_4
REMARK    4  A    between atoms: C_4  and  O_5
REMARK    5  A    between atoms: O_5  and  C_6
REMARK    6  A    between atoms: C_6  and  C_8
REMARK    7  A    between atoms: C_13  and  O_14
REMARK    8  A    between atoms: O_14  and  C_15
REMARK    9  A    between atoms: C_15  and  C_17
REMARK                            x       y       z     vdW  Elec       q    Type
REMARK                         _______ _______ _______ _____ _____    ______ ____
ROOT
ATOM      1  C   UNL     1       5.060   4.447  17.461  0.00  0.00    +0.000 A 
ATOM      2  C   UNL     1       5.652   3.730  16.399  0.00  0.00    +0.000 A 
ATOM      3  C   UNL     1       5.913   4.331  15.166  0.00  0.00    +0.000 A 
ATOM      4  C   UNL     1       5.590   5.666  14.967  0.00  0.00    +0.000 A 
ATOM      5  C   UNL     1       5.007   6.396  16.000  0.00  0.00    +0.000 A 
ATOM      6  C   UNL     1       4.758   5.802  17.252  0.00  0.00    +0.000 A 
ENDROOT
BRANCH   1   7
ATOM      7  C   UNL     1       4.741   3.631  18.669  0.00  0.00    +0.000 C 
ATOM      8  O   UNL     1       5.494   3.598  19.634  0.00  0.00    +0.000 OA
BRANCH   7   9
ATOM      9  O   UNL     1       3.616   2.885  18.550  0.00  0.00    +0.000 OA
BRANCH   9  10
ATOM     10  C   UNL     1       3.130   2.336  19.791  0.00  0.00    +0.000 C 
BRANCH  10  12
ATOM     11  C   UNL     1       1.342   3.874  20.727  0.00  0.00    +0.000 C 
ATOM     12  C   UNL     1       1.626   2.539  20.045  0.00  0.00    +0.000 C 
ATOM     13  C   UNL     1       0.857   2.440  18.724  0.00  0.00    +0.000 C 
ENDBRANCH  10  12
ENDBRANCH   9  10
ENDBRANCH   7   9
ENDBRANCH   1   7
BRANCH   6  14
ATOM     14  O   UNL     1       4.060   6.563  18.208  0.00  0.00    +0.000 OA
BRANCH  14  15
ATOM     15  C   UNL     1       2.673   6.513  18.153  0.00  0.00    +0.000 C 
ATOM     16  O   UNL     1       1.981   5.578  17.784  0.00  0.00    +0.000 OA
BRANCH  15  17
ATOM     17  C   UNL     1       2.105   7.790  18.642  0.00  0.00    +0.000 A 
ATOM     18  C   UNL     1       1.976   8.910  17.819  0.00  0.00    +0.000 A 
ATOM     19  C   UNL     1       1.469  10.069  18.377  0.00  0.00    +0.000 A 
ATOM     20  N   UNL     1       1.098  10.177  19.670  0.00  0.00    +0.000 NA
ATOM     21  C   UNL     1       1.253   9.086  20.451  0.00  0.00    +0.000 A 
ATOM     22  C   UNL     1       1.758   7.884  19.993  0.00  0.00    +0.000 A 
ENDBRANCH  15  17
ENDBRANCH  14  15
ENDBRANCH   6  14
TORSDOF 7
ENDMDL
MODEL 7
REMARK VINA RESULT:      -7.1      2.909      5.561
REMARK  Name = 
REMARK  9 active torsions:
REMARK  status: ('A' for Active; 'I' for Inactive)
REMARK    1  A    between atoms: C_1  and  C_2
REMARK    2  A    between atoms: C_2  and  C_3
REMARK    3  A    between atoms: C_2  and  C_4
REMARK    4  A    between atoms: C_4  and  O_5
REMARK    5  A    between atoms: O_5  and  C_6
REMARK    6  A    between atoms: C_6  and  C_8
REMARK    7  A    between atoms: C_13  and  O_14
REMARK    8  A    between atoms: O_14  and  C_15
REMARK    9  A    between atoms: C_15  and  C_17
REMARK                            x       y       z     vdW  Elec       q    Type
REMARK                         _______ _______ _______ _____ _____    ______ ____
ROOT
ATOM      1  C   UNL     1       4.336   3.871  17.014  0.00  0.00    +0.000 A 
ATOM      2  C   UNL     1       5.437   3.320  16.322  0.00  0.00    +0.000 A 
ATOM      3  C   UNL     1       6.316   4.122  15.591  0.00  0.00    +0.000 A 
ATOM      4  C   UNL     1       6.116   5.494  15.537  0.00  0.00    +0.000 A 
ATOM      5  C   UNL     1       5.038   6.061  16.213  0.00  0.00    +0.000 A 
ATOM      6  C   UNL     1       4.159   5.262  16.967  0.00  0.00    +0.000 A 
ENDROOT
BRANCH   1   7
ATOM      7  C   UNL     1       3.428   2.869  17.647  0.00  0.00    +0.000 C 
ATOM      8  O   UNL     1       2.493   2.376  17.030  0.00  0.00    +0.000 OA
BRANCH   7   9
ATOM      9  O   UNL     1       3.685   2.643  18.958  0.00  0.00    +0.000 OA
BRANCH   9  10
ATOM     10  C   UNL     1       2.553   2.171  19.716  0.00  0.00    +0.000 C 
BRANCH  10  12
ATOM     11  C   UNL     1       0.818   3.981  20.106  0.00  0.00    +0.000 C 
ATOM     12  C   UNL     1       1.972   3.187  20.713  0.00  0.00    +0.000 C 
ATOM     13  C   UNL     1       1.512   2.465  21.984  0.00  0.00    +0.000 C 
ENDBRANCH  10  12
ENDBRANCH   9  10
ENDBRANCH   7   9
ENDBRANCH   1   7
BRANCH   6  14
ATOM     14  O   UNL     1       3.027   5.885  17.525  0.00  0.00    +0.000 OA
BRANCH  14  15
ATOM     15  C   UNL     1       3.158   6.370  18.821  0.00  0.00    +0.000 C 
ATOM     16  O   UNL     1       3.862   5.921  19.711  0.00  0.00    +0.000 OA
BRANCH  15  17
ATOM     17  C   UNL     1       2.313   7.574  18.994  0.00  0.00    +0.000 A 
ATOM     18  C   UNL     1       2.070   8.468  17.950  0.00  0.00    +0.000 A 
ATOM     19  C   UNL     1       1.298   9.583  18.219  0.00  0.00    +0.000 A 
ATOM     20  N   UNL     1       0.774   9.856  19.433  0.00  0.00    +0.000 NA
ATOM     21  C   UNL     1       1.043   8.987  20.432  0.00  0.00    +0.000 A 
ATOM     22  C   UNL     1       1.809   7.849  20.268  0.00  0.00    +0.000 A 
ENDBRANCH  15  17
ENDBRANCH  14  15
ENDBRANCH   6  14
TORSDOF 7
ENDMDL
MODEL 8
REMARK VINA RESULT:      -7.1      3.003      6.459
REMARK  Name = 
REMARK  9 active torsions:
REMARK  status: ('A' for Active; 'I' for Inactive)
REMARK    1  A    between atoms: C_1  and  C_2
REMARK    2  A    between atoms: C_2  and  C_3
REMARK    3  A    between atoms: C_2  and  C_4
REMARK    4  A    between atoms: C_4  and  O_5
REMARK    5  A    between atoms: O_5  and  C_6
REMARK    6  A    between atoms: C_6  and  C_8
REMARK    7  A    between atoms: C_13  and  O_14
REMARK    8  A    between atoms: O_14  and  C_15
REMARK    9  A    between atoms: C_15  and  C_17
REMARK                            x       y       z     vdW  Elec       q    Type
REMARK                         _______ _______ _______ _____ _____    ______ ____
ROOT
ATOM      1  C   UNL     1       2.123   4.016  19.340  0.00  0.00    +0.000 A 
ATOM      2  C   UNL     1       1.129   3.892  20.335  0.00  0.00    +0.000 A 
ATOM      3  C   UNL     1       1.328   3.108  21.473  0.00  0.00    +0.000 A 
ATOM      4  C   UNL     1       2.528   2.432  21.644  0.00  0.00    +0.000 A 
ATOM      5  C   UNL     1       3.525   2.540  20.677  0.00  0.00    +0.000 A 
ATOM      6  C   UNL     1       3.339   3.344  19.537  0.00  0.00    +0.000 A 
ENDROOT
BRANCH   1   7
ATOM      7  C   UNL     1       1.710   4.794  18.135  0.00  0.00    +0.000 C 
ATOM      8  O   UNL     1       1.086   4.271  17.221  0.00  0.00    +0.000 OA
BRANCH   7   9
ATOM      9  O   UNL     1       2.164   6.071  18.119  0.00  0.00    +0.000 OA
BRANCH   9  10
ATOM     10  C   UNL     1       2.632   6.554  19.394  0.00  0.00    +0.000 C 
BRANCH  10  12
ATOM     11  C   UNL     1       1.604   8.720  18.565  0.00  0.00    +0.000 C 
ATOM     12  C   UNL     1       2.141   7.960  19.775  0.00  0.00    +0.000 C 
ATOM     13  C   UNL     1       1.067   7.861  20.862  0.00  0.00    +0.000 C 
ENDBRANCH  10  12
ENDBRANCH   9  10
ENDBRANCH   7   9
ENDBRANCH   1   7
BRANCH   6  14
ATOM     14  O   UNL     1       4.339   3.313  18.547  0.00  0.00    +0.000 OA
BRANCH  14  15
ATOM     15  C   UNL     1       5.353   4.256  18.657  0.00  0.00    +0.000 C 
ATOM     16  O   UNL     1       5.843   4.699  19.682  0.00  0.00    +0.000 OA
BRANCH  15  17
ATOM     17  C   UNL     1       5.806   4.664  17.307  0.00  0.00    +0.000 A 
ATOM     18  C   UNL     1       7.106   4.425  16.855  0.00  0.00    +0.000 A 
ATOM     19  C   UNL     1       7.446   4.876  15.594  0.00  0.00    +0.000 A 
ATOM     20  N   UNL     1       6.596   5.539  14.781  0.00  0.00    +0.000 NA
ATOM     21  C   UNL     1       5.352   5.778  15.250  0.00  0.00    +0.000 A 
ATOM     22  C   UNL     1       4.916   5.376  16.498  0.00  0.00    +0.000 A 
ENDBRANCH  15  17
ENDBRANCH  14  15
ENDBRANCH   6  14
TORSDOF 7
ENDMDL
MODEL 9
REMARK VINA RESULT:      -7.1      3.121      5.305
REMARK  Name = 
REMARK  9 active torsions:
REMARK  status: ('A' for Active; 'I' for Inactive)
REMARK    1  A    between atoms: C_1  and  C_2
REMARK    2  A    between atoms: C_2  and  C_3
REMARK    3  A    between atoms: C_2  and  C_4
REMARK    4  A    between atoms: C_4  and  O_5
REMARK    5  A    between atoms: O_5  and  C_6
REMARK    6  A    between atoms: C_6  and  C_8
REMARK    7  A    between atoms: C_13  and  O_14
REMARK    8  A    between atoms: O_14  and  C_15
REMARK    9  A    between atoms: C_15  and  C_17
REMARK                            x       y       z     vdW  Elec       q    Type
REMARK                         _______ _______ _______ _____ _____    ______ ____
ROOT
ATOM      1  C   UNL     1       2.954   4.341  18.795  0.00  0.00    +0.000 A 
ATOM      2  C   UNL     1       2.528   3.007  18.618  0.00  0.00    +0.000 A 
ATOM      3  C   UNL     1       1.427   2.493  19.307  0.00  0.00    +0.000 A 
ATOM      4  C   UNL     1       0.725   3.304  20.187  0.00  0.00    +0.000 A 
ATOM      5  C   UNL     1       1.125   4.625  20.378  0.00  0.00    +0.000 A 
ATOM      6  C   UNL     1       2.222   5.155  19.673  0.00  0.00    +0.000 A 
ENDROOT
BRANCH   1   7
ATOM      7  C   UNL     1       4.213   4.698  18.076  0.00  0.00    +0.000 C 
ATOM      8  O   UNL     1       4.189   5.225  16.971  0.00  0.00    +0.000 OA
BRANCH   7   9
ATOM      9  O   UNL     1       5.343   4.308  18.714  0.00  0.00    +0.000 OA
BRANCH   9  10
ATOM     10  C   UNL     1       6.165   5.392  19.190  0.00  0.00    +0.000 C 
BRANCH  10  12
ATOM     11  C   UNL     1       7.685   4.528  17.351  0.00  0.00    +0.000 C 
ATOM     12  C   UNL     1       7.462   5.619  18.395  0.00  0.00    +0.000 C 
ATOM     13  C   UNL     1       7.430   6.998  17.728  0.00  0.00    +0.000 C 
ENDBRANCH  10  12
ENDBRANCH   9  10
ENDBRANCH   7   9
ENDBRANCH   1   7
BRANCH   6  14
ATOM     14  O   UNL     1       2.641   6.457  20.002  0.00  0.00    +0.000 OA
BRANCH  14  15
ATOM     15  C   UNL     1       2.109   7.493  19.244  0.00  0.00    +0.000 C 
ATOM     16  O   UNL     1       2.097   7.589  18.028  0.00  0.00    +0.000 OA
BRANCH  15  17
ATOM     17  C   UNL     1       1.506   8.510  20.137  0.00  0.00    +0.000 A 
ATOM     18  C   UNL     1       1.017   9.726  19.655  0.00  0.00    +0.000 A 
ATOM     19  C   UNL     1       0.506  10.626  20.572  0.00  0.00    +0.000 A 
ATOM     20  N   UNL     1       0.460  10.397  21.901  0.00  0.00    +0.000 NA
ATOM     21  C   UNL     1       0.960   9.223  22.344  0.00  0.00    +0.000 A 
ATOM     22  C   UNL     1       1.499   8.260  21.512  0.00  0.00    +0.000 A 
ENDBRANCH  15  17
ENDBRANCH  14  15
ENDBRANCH   6  14
TORSDOF 7
ENDMDL
