MODEL 1
REMARK VINA RESULT:      -8.4      0.000      0.000
REMARK  Name = 
REMARK  5 active torsions:
REMARK  status: ('A' for Active; 'I' for Inactive)
REMARK    1  A    between atoms: N_6  and  C_7
REMARK    2  A    between atoms: N_6  and  C_15
REMARK    3  A    between atoms: C_7  and  C_8
REMARK    4  A    between atoms: C_8  and  C_9
REMARK    5  A    between atoms: C_9  and  N_10
REMARK                            x       y       z     vdW  Elec       q    Type
REMARK                         _______ _______ _______ _____ _____    ______ ____
ROOT
ATOM      1  O   UNL     1      -0.046   9.842  17.442  0.00  0.00    +0.000 OA
ATOM      2  S   UNL     1       1.243   9.845  18.095  0.00  0.00    +0.000 S 
ATOM      3  O   UNL     1       2.179  10.942  17.986  0.00  0.00    +0.000 OA
ATOM      4  N   UNL     1       2.021   8.437  17.821  0.00  0.00    +0.000 NA
ATOM      5  C   UNL     1       2.117   7.699  18.892  0.00  0.00    +0.000 C 
ATOM      6  N   UNL     1       2.819   6.494  18.928  0.00  0.00    +0.000 N 
ATOM      7  C   UNL     1       1.465   8.315  20.108  0.00  0.00    +0.000 A 
ATOM      8  C   UNL     1       1.320   7.868  21.412  0.00  0.00    +0.000 A 
ATOM      9  C   UNL     1       0.683   8.703  22.347  0.00  0.00    +0.000 A 
ATOM     10  C   UNL     1       0.231   9.985  21.988  0.00  0.00    +0.000 A 
ATOM     11  C   UNL     1       0.374  10.436  20.679  0.00  0.00    +0.000 A 
ATOM     12  C   UNL     1       0.970   9.568  19.782  0.00  0.00    +0.000 A 
ENDROOT
BRANCH   6  13
ATOM     13  C   UNL     1       2.278   5.312  19.531  0.00  0.00    +0.000 A 
ATOM     14  C   UNL     1       2.606   4.944  20.848  0.00  0.00    +0.000 A 
ATOM     15  C   UNL     1       2.094   3.779  21.430  0.00  0.00    +0.000 A 
ATOM     16  C   UNL     1       1.218   2.966  20.717  0.00  0.00    +0.000 A 
ATOM     17  C   UNL     1       0.853   3.319  19.424  0.00  0.00    +0.000 A 
ATOM     18  C   UNL     1       1.383   4.472  18.836  0.00  0.00    +0.000 A 
ENDBRANCH   6  13
BRANCH   6  19
ATOM     19  C   UNL     1       3.938   6.157  18.003  0.00  0.00    +0.000 C 
BRANCH  19  20
ATOM     20  C   UNL     1       4.739   4.866  18.179  0.00  0.00    +0.000 C 
BRANCH  20  21
ATOM     21  C   UNL     1       4.754   3.906  16.988  0.00  0.00    +0.000 C 
BRANCH  21  22
ATOM     22  N   UNL     1       5.805   4.284  16.053  0.00  0.00    +0.000 N 
ATOM     23  C   UNL     1       5.796   4.085  14.699  0.00  0.00    +0.000 A 
ATOM     24  C   UNL     1       6.899   4.766  14.236  0.00  0.00    +0.000 A 
ATOM     25  N   UNL     1       7.599   5.322  15.274  0.00  0.00    +0.000 NA
ATOM     26  C   UNL     1       6.930   4.998  16.358  0.00  0.00    +0.000 A 
ENDBRANCH  21  22
ENDBRANCH  20  21
ENDBRANCH  19  20
ENDBRANCH   6  19
TORSDOF 5
ENDMDL
MODEL 2
REMARK VINA RESULT:      -8.2      3.570      5.486
REMARK  Name = 
REMARK  5 active torsions:
REMARK  status: ('A' for Active; 'I' for Inactive)
REMARK    1  A    between atoms: N_6  and  C_7
REMARK    2  A    between atoms: N_6  and  C_15
REMARK    3  A    between atoms: C_7  and  C_8
REMARK    4  A    between atoms: C_8  and  C_9
REMARK    5  A    between atoms: C_9  and  N_10
REMARK                            x       y       z     vdW  Elec       q    Type
REMARK                         _______ _______ _______ _____ _____    ______ ____
ROOT
ATOM      1  O   UNL     1       2.710   1.968  20.198  0.00  0.00    +0.000 OA
ATOM      2  S   UNL     1       2.303   2.714  19.030  0.00  0.00    +0.000 S 
ATOM      3  O   UNL     1       1.132   2.380  18.250  0.00  0.00    +0.000 OA
ATOM      4  N   UNL     1       3.574   2.944  18.032  0.00  0.00    +0.000 NA
ATOM      5  C   UNL     1       3.961   4.189  17.989  0.00  0.00    +0.000 C 
ATOM      6  N   UNL     1       4.967   4.645  17.138  0.00  0.00    +0.000 N 
ATOM      7  C   UNL     1       3.158   5.099  18.889  0.00  0.00    +0.000 A 
ATOM      8  C   UNL     1       3.249   6.457  19.156  0.00  0.00    +0.000 A 
ATOM      9  C   UNL     1       2.315   7.037  20.031  0.00  0.00    +0.000 A 
ATOM     10  C   UNL     1       1.280   6.276  20.602  0.00  0.00    +0.000 A 
ATOM     11  C   UNL     1       1.188   4.913  20.336  0.00  0.00    +0.000 A 
ATOM     12  C   UNL     1       2.150   4.373  19.501  0.00  0.00    +0.000 A 
ENDROOT
BRANCH   6  13
ATOM     13  C   UNL     1       6.015   5.513  17.590  0.00  0.00    +0.000 A 
ATOM     14  C   UNL     1       6.193   6.795  17.040  0.00  0.00    +0.000 A 
ATOM     15  C   UNL     1       7.229   7.635  17.466  0.00  0.00    +0.000 A 
ATOM     16  C   UNL     1       8.094   7.223  18.474  0.00  0.00    +0.000 A 
ATOM     17  C   UNL     1       7.924   5.974  19.057  0.00  0.00    +0.000 A 
ATOM     18  C   UNL     1       6.903   5.127  18.614  0.00  0.00    +0.000 A 
ENDBRANCH   6  13
BRANCH   6  19
ATOM     19  C   UNL     1       5.343   3.975  15.861  0.00  0.00    +0.000 C 
BRANCH  19  20
ATOM     20  C   UNL     1       5.591   4.790  14.591  0.00  0.00    +0.000 C 
BRANCH  20  21
ATOM     21  C   UNL     1       6.667   4.261  13.640  0.00  0.00    +0.000 C 
BRANCH  21  22
ATOM     22  N   UNL     1       6.054   3.470  12.582  0.00  0.00    +0.000 N 
ATOM     23  C   UNL     1       6.620   2.406  11.934  0.00  0.00    +0.000 A 
ATOM     24  C   UNL     1       5.606   1.882  11.164  0.00  0.00    +0.000 A 
ATOM     25  N   UNL     1       4.466   2.630  11.289  0.00  0.00    +0.000 NA
ATOM     26  C   UNL     1       4.770   3.591  12.131  0.00  0.00    +0.000 A 
ENDBRANCH  21  22
ENDBRANCH  20  21
ENDBRANCH  19  20
ENDBRANCH   6  19
TORSDOF 5
ENDMDL
MODEL 3
REMARK VINA RESULT:      -8.2      3.526      5.448
REMARK  Name = 
REMARK  5 active torsions:
REMARK  status: ('A' for Active; 'I' for Inactive)
REMARK    1  A    between atoms: N_6  and  C_7
REMARK    2  A    between atoms: N_6  and  C_15
REMARK    3  A    between atoms: C_7  and  C_8
REMARK    4  A    between atoms: C_8  and  C_9
REMARK    5  A    between atoms: C_9  and  N_10
REMARK                            x       y       z     vdW  Elec       q    Type
REMARK                         _______ _______ _______ _____ _____    ______ ____
ROOT
ATOM      1  O   UNL     1       2.665   1.688  19.566  0.00  0.00    +0.000 OA
ATOM      2  S   UNL     1       2.185   2.624  18.575  0.00  0.00    +0.000 S 
ATOM      3  O   UNL     1       0.950   2.435  17.846  0.00  0.00    +0.000 OA
ATOM      4  N   UNL     1       3.380   3.009  17.533  0.00  0.00    +0.000 NA
ATOM      5  C   UNL     1       3.788   4.240  17.668  0.00  0.00    +0.000 C 
ATOM      6  N   UNL     1       4.735   4.827  16.829  0.00  0.00    +0.000 N 
ATOM      7  C   UNL     1       3.076   4.992  18.769  0.00  0.00    +0.000 A 
ATOM      8  C   UNL     1       3.215   6.284  19.252  0.00  0.00    +0.000 A 
ATOM      9  C   UNL     1       2.363   6.716  20.283  0.00  0.00    +0.000 A 
ATOM     10  C   UNL     1       1.359   5.876  20.798  0.00  0.00    +0.000 A 
ATOM     11  C   UNL     1       1.219   4.578  20.316  0.00  0.00    +0.000 A 
ATOM     12  C   UNL     1       2.103   4.180  19.328  0.00  0.00    +0.000 A 
ENDROOT
BRANCH   6  13
ATOM     13  C   UNL     1       5.832   5.598  17.335  0.00  0.00    +0.000 A 
ATOM     14  C   UNL     1       6.703   5.082  18.311  0.00  0.00    +0.000 A 
ATOM     15  C   UNL     1       7.762   5.842  18.820  0.00  0.00    +0.000 A 
ATOM     16  C   UNL     1       7.993   7.129  18.345  0.00  0.00    +0.000 A 
ATOM     17  C   UNL     1       7.166   7.655  17.360  0.00  0.00    +0.000 A 
ATOM     18  C   UNL     1       6.095   6.902  16.868  0.00  0.00    +0.000 A 
ENDBRANCH   6  13
BRANCH   6  19
ATOM     19  C   UNL     1       4.998   4.379  15.432  0.00  0.00    +0.000 C 
BRANCH  19  20
ATOM     20  C   UNL     1       6.399   3.942  14.999  0.00  0.00    +0.000 C 
BRANCH  20  21
ATOM     21  C   UNL     1       6.850   4.383  13.605  0.00  0.00    +0.000 C 
BRANCH  21  22
ATOM     22  N   UNL     1       6.205   3.563  12.588  0.00  0.00    +0.000 N 
ATOM     23  C   UNL     1       6.752   2.483  11.951  0.00  0.00    +0.000 A 
ATOM     24  C   UNL     1       5.715   1.937  11.228  0.00  0.00    +0.000 A 
ATOM     25  N   UNL     1       4.577   2.687  11.370  0.00  0.00    +0.000 NA
ATOM     26  C   UNL     1       4.907   3.671  12.176  0.00  0.00    +0.000 A 
ENDBRANCH  21  22
ENDBRANCH  20  21
ENDBRANCH  19  20
ENDBRANCH   6  19
TORSDOF 5
ENDMDL
MODEL 4
REMARK VINA RESULT:      -8.0      0.642      1.271
REMARK  Name = 
REMARK  5 active torsions:
REMARK  status: ('A' for Active; 'I' for Inactive)
REMARK    1  A    between atoms: N_6  and  C_7
REMARK    2  A    between atoms: N_6  and  C_15
REMARK    3  A    between atoms: C_7  and  C_8
REMARK    4  A    between atoms: C_8  and  C_9
REMARK    5  A    between atoms: C_9  and  N_10
REMARK                            x       y       z     vdW  Elec       q    Type
REMARK                         _______ _______ _______ _____ _____    ______ ____
ROOT
ATOM      1  O   UNL     1      -0.001   9.859  17.426  0.00  0.00    +0.000 OA
ATOM      2  S   UNL     1       1.244   9.883  18.161  0.00  0.00    +0.000 S 
ATOM      3  O   UNL     1       2.157  11.004  18.125  0.00  0.00    +0.000 OA
ATOM      4  N   UNL     1       2.071   8.498  17.922  0.00  0.00    +0.000 NA
ATOM      5  C   UNL     1       2.116   7.748  18.989  0.00  0.00    +0.000 C 
ATOM      6  N   UNL     1       2.844   6.560  19.056  0.00  0.00    +0.000 N 
ATOM      7  C   UNL     1       1.373   8.334  20.166  0.00  0.00    +0.000 A 
ATOM      8  C   UNL     1       1.156   7.866  21.453  0.00  0.00    +0.000 A 
ATOM      9  C   UNL     1       0.440   8.674  22.354  0.00  0.00    +0.000 A 
ATOM     10  C   UNL     1      -0.020   9.950  21.982  0.00  0.00    +0.000 A 
ATOM     11  C   UNL     1       0.196  10.420  20.690  0.00  0.00    +0.000 A 
ATOM     12  C   UNL     1       0.870   9.578  19.823  0.00  0.00    +0.000 A 
ENDROOT
BRANCH   6  13
ATOM     13  C   UNL     1       2.295   5.358  19.609  0.00  0.00    +0.000 A 
ATOM     14  C   UNL     1       1.494   4.496  18.839  0.00  0.00    +0.000 A 
ATOM     15  C   UNL     1       0.940   3.331  19.385  0.00  0.00    +0.000 A 
ATOM     16  C   UNL     1       1.198   2.986  20.708  0.00  0.00    +0.000 A 
ATOM     17  C   UNL     1       2.010   3.804  21.484  0.00  0.00    +0.000 A 
ATOM     18  C   UNL     1       2.544   4.978  20.944  0.00  0.00    +0.000 A 
ENDBRANCH   6  13
BRANCH   6  19
ATOM     19  C   UNL     1       4.028   6.262  18.202  0.00  0.00    +0.000 C 
BRANCH  19  20
ATOM     20  C   UNL     1       5.262   5.570  18.785  0.00  0.00    +0.000 C 
BRANCH  20  21
ATOM     21  C   UNL     1       5.655   4.232  18.155  0.00  0.00    +0.000 C 
BRANCH  21  22
ATOM     22  N   UNL     1       5.968   4.417  16.744  0.00  0.00    +0.000 N 
ATOM     23  C   UNL     1       7.086   5.018  16.234  0.00  0.00    +0.000 A 
ATOM     24  C   UNL     1       7.022   4.790  14.878  0.00  0.00    +0.000 A 
ATOM     25  N   UNL     1       5.873   4.118  14.552  0.00  0.00    +0.000 NA
ATOM     26  C   UNL     1       5.248   3.925  15.692  0.00  0.00    +0.000 A 
ENDBRANCH  21  22
ENDBRANCH  20  21
ENDBRANCH  19  20
ENDBRANCH   6  19
TORSDOF 5
ENDMDL
MODEL 5
REMARK VINA RESULT:      -7.9      3.331      6.275
REMARK  Name = 
REMARK  5 active torsions:
REMARK  status: ('A' for Active; 'I' for Inactive)
REMARK    1  A    between atoms: N_6  and  C_7
REMARK    2  A    between atoms: N_6  and  C_15
REMARK    3  A    between atoms: C_7  and  C_8
REMARK    4  A    between atoms: C_8  and  C_9
REMARK    5  A    between atoms: C_9  and  N_10
REMARK                            x       y       z     vdW  Elec       q    Type
REMARK                         _______ _______ _______ _____ _____    ______ ____
ROOT
ATOM      1  O   UNL     1       6.218   5.638  14.698  0.00  0.00    +0.000 OA
ATOM      2  S   UNL     1       5.879   4.554  15.591  0.00  0.00    +0.000 S 
ATOM      3  O   UNL     1       6.242   3.178  15.333  0.00  0.00    +0.000 OA
ATOM      4  N   UNL     1       4.304   4.633  16.008  0.00  0.00    +0.000 NA
ATOM      5  C   UNL     1       4.131   4.961  17.259  0.00  0.00    +0.000 C 
ATOM      6  N   UNL     1       2.878   5.002  17.870  0.00  0.00    +0.000 N 
ATOM      7  C   UNL     1       5.424   5.210  18.000  0.00  0.00    +0.000 A 
ATOM      8  C   UNL     1       5.687   5.591  19.307  0.00  0.00    +0.000 A 
ATOM      9  C   UNL     1       7.026   5.707  19.720  0.00  0.00    +0.000 A 
ATOM     10  C   UNL     1       8.087   5.407  18.847  0.00  0.00    +0.000 A 
ATOM     11  C   UNL     1       7.824   5.025  17.535  0.00  0.00    +0.000 A 
ATOM     12  C   UNL     1       6.495   4.962  17.157  0.00  0.00    +0.000 A 
ENDROOT
BRANCH   6  13
ATOM     13  C   UNL     1       2.467   6.096  18.699  0.00  0.00    +0.000 A 
ATOM     14  C   UNL     1       2.390   7.407  18.198  0.00  0.00    +0.000 A 
ATOM     15  C   UNL     1       2.009   8.480  19.013  0.00  0.00    +0.000 A 
ATOM     16  C   UNL     1       1.668   8.261  20.344  0.00  0.00    +0.000 A 
ATOM     17  C   UNL     1       1.706   6.972  20.859  0.00  0.00    +0.000 A 
ATOM     18  C   UNL     1       2.109   5.905  20.050  0.00  0.00    +0.000 A 
ENDBRANCH   6  13
BRANCH   6  19
ATOM     19  C   UNL     1       1.701   4.213  17.406  0.00  0.00    +0.000 C 
BRANCH  19  20
ATOM     20  C   UNL     1       1.672   2.690  17.549  0.00  0.00    +0.000 C 
BRANCH  20  21
ATOM     21  C   UNL     1       2.716   2.074  18.483  0.00  0.00    +0.000 C 
BRANCH  21  22
ATOM     22  N   UNL     1       2.402   2.397  19.868  0.00  0.00    +0.000 N 
ATOM     23  C   UNL     1       1.152   2.491  20.415  0.00  0.00    +0.000 A 
ATOM     24  C   UNL     1       1.369   2.631  21.768  0.00  0.00    +0.000 A 
ATOM     25  N   UNL     1       2.710   2.678  22.042  0.00  0.00    +0.000 NA
ATOM     26  C   UNL     1       3.308   2.556  20.878  0.00  0.00    +0.000 A 
ENDBRANCH  21  22
ENDBRANCH  20  21
ENDBRANCH  19  20
ENDBRANCH   6  19
TORSDOF 5
ENDMDL
MODEL 6
REMARK VINA RESULT:      -7.8      2.995      6.950
REMARK  Name = 
REMARK  5 active torsions:
REMARK  status: ('A' for Active; 'I' for Inactive)
REMARK    1  A    between atoms: N_6  and  C_7
REMARK    2  A    between atoms: N_6  and  C_15
REMARK    3  A    between atoms: C_7  and  C_8
REMARK    4  A    between atoms: C_8  and  C_9
REMARK    5  A    between atoms: C_9  and  N_10
REMARK                            x       y       z     vdW  Elec       q    Type
REMARK                         _______ _______ _______ _____ _____    ______ ____
ROOT
ATOM      1  O   UNL     1       8.331   4.980  18.847  0.00  0.00    +0.000 OA
ATOM      2  S   UNL     1       7.366   5.907  18.300  0.00  0.00    +0.000 S 
ATOM      3  O   UNL     1       7.682   7.285  17.998  0.00  0.00    +0.000 OA
ATOM      4  N   UNL     1       5.972   5.839  19.144  0.00  0.00    +0.000 NA
ATOM      5  C   UNL     1       4.996   5.307  18.462  0.00  0.00    +0.000 C 
ATOM      6  N   UNL     1       3.688   5.226  18.938  0.00  0.00    +0.000 N 
ATOM      7  C   UNL     1       5.404   4.862  17.076  0.00  0.00    +0.000 A 
ATOM      8  C   UNL     1       4.700   4.243  16.055  0.00  0.00    +0.000 A 
ATOM      9  C   UNL     1       5.359   3.984  14.840  0.00  0.00    +0.000 A 
ATOM     10  C   UNL     1       6.694   4.376  14.638  0.00  0.00    +0.000 A 
ATOM     11  C   UNL     1       7.402   4.997  15.662  0.00  0.00    +0.000 A 
ATOM     12  C   UNL     1       6.730   5.197  16.855  0.00  0.00    +0.000 A 
ENDROOT
BRANCH   6  13
ATOM     13  C   UNL     1       2.911   4.026  18.837  0.00  0.00    +0.000 A 
ATOM     14  C   UNL     1       3.502   2.756  18.962  0.00  0.00    +0.000 A 
ATOM     15  C   UNL     1       2.746   1.584  18.844  0.00  0.00    +0.000 A 
ATOM     16  C   UNL     1       1.374   1.654  18.625  0.00  0.00    +0.000 A 
ATOM     17  C   UNL     1       0.758   2.895  18.526  0.00  0.00    +0.000 A 
ATOM     18  C   UNL     1       1.518   4.065  18.622  0.00  0.00    +0.000 A 
ENDBRANCH   6  13
BRANCH   6  19
ATOM     19  C   UNL     1       3.119   6.145  19.964  0.00  0.00    +0.000 C 
BRANCH  19  20
ATOM     20  C   UNL     1       2.343   7.397  19.550  0.00  0.00    +0.000 C 
BRANCH  20  21
ATOM     21  C   UNL     1       1.496   8.064  20.636  0.00  0.00    +0.000 C 
BRANCH  21  22
ATOM     22  N   UNL     1       1.054   9.378  20.190  0.00  0.00    +0.000 N 
ATOM     23  C   UNL     1       0.776  10.454  20.988  0.00  0.00    +0.000 A 
ATOM     24  C   UNL     1       0.581  11.500  20.115  0.00  0.00    +0.000 A 
ATOM     25  N   UNL     1       0.680  11.074  18.817  0.00  0.00    +0.000 NA
ATOM     26  C   UNL     1       0.944   9.789  18.892  0.00  0.00    +0.000 A 
ENDBRANCH  21  22
ENDBRANCH  20  21
ENDBRANCH  19  20
ENDBRANCH   6  19
TORSDOF 5
ENDMDL
MODEL 7
REMARK VINA RESULT:      -7.8      1.354      1.890
REMARK  Name = 
REMARK  5 active torsions:
REMARK  status: ('A' for Active; 'I' for Inactive)
REMARK    1  A    between atoms: N_6  and  C_7
REMARK    2  A    between atoms: N_6  and  C_15
REMARK    3  A    between atoms: C_7  and  C_8
REMARK    4  A    between atoms: C_8  and  C_9
REMARK    5  A    between atoms: C_9  and  N_10
REMARK                            x       y       z     vdW  Elec       q    Type
REMARK                         _______ _______ _______ _____ _____    ______ ____
ROOT
ATOM      1  O   UNL     1      -0.058   9.735  17.519  0.00  0.00    +0.000 OA
ATOM      2  S   UNL     1       1.238   9.744  18.160  0.00  0.00    +0.000 S 
ATOM      3  O   UNL     1       2.176  10.836  18.023  0.00  0.00    +0.000 OA
ATOM      4  N   UNL     1       2.007   8.329  17.903  0.00  0.00    +0.000 NA
ATOM      5  C   UNL     1       2.111   7.609  18.986  0.00  0.00    +0.000 C 
ATOM      6  N   UNL     1       2.809   6.403  19.035  0.00  0.00    +0.000 N 
ATOM      7  C   UNL     1       1.473   8.249  20.197  0.00  0.00    +0.000 A 
ATOM      8  C   UNL     1       1.339   7.825  21.509  0.00  0.00    +0.000 A 
ATOM      9  C   UNL     1       0.714   8.678  22.435  0.00  0.00    +0.000 A 
ATOM     10  C   UNL     1       0.263   9.956  22.059  0.00  0.00    +0.000 A 
ATOM     11  C   UNL     1       0.395  10.383  20.741  0.00  0.00    +0.000 A 
ATOM     12  C   UNL     1       0.980   9.498  19.853  0.00  0.00    +0.000 A 
ENDROOT
BRANCH   6  13
ATOM     13  C   UNL     1       2.270   5.233  19.664  0.00  0.00    +0.000 A 
ATOM     14  C   UNL     1       1.400   4.367  18.978  0.00  0.00    +0.000 A 
ATOM     15  C   UNL     1       0.857   3.236  19.598  0.00  0.00    +0.000 A 
ATOM     16  C   UNL     1       1.194   2.927  20.911  0.00  0.00    +0.000 A 
ATOM     17  C   UNL     1       2.075   3.748  21.605  0.00  0.00    +0.000 A 
ATOM     18  C   UNL     1       2.599   4.890  20.991  0.00  0.00    +0.000 A 
ENDBRANCH   6  13
BRANCH   6  19
ATOM     19  C   UNL     1       3.919   6.046  18.107  0.00  0.00    +0.000 C 
BRANCH  19  20
ATOM     20  C   UNL     1       4.805   4.828  18.375  0.00  0.00    +0.000 C 
BRANCH  20  21
ATOM     21  C   UNL     1       6.063   4.698  17.514  0.00  0.00    +0.000 C 
BRANCH  21  22
ATOM     22  N   UNL     1       6.925   5.856  17.709  0.00  0.00    +0.000 N 
ATOM     23  C   UNL     1       6.978   6.970  16.918  0.00  0.00    +0.000 A 
ATOM     24  C   UNL     1       7.791   7.849  17.598  0.00  0.00    +0.000 A 
ATOM     25  N   UNL     1       8.270   7.276  18.747  0.00  0.00    +0.000 NA
ATOM     26  C   UNL     1       7.750   6.070  18.778  0.00  0.00    +0.000 A 
ENDBRANCH  21  22
ENDBRANCH  20  21
ENDBRANCH  19  20
ENDBRANCH   6  19
TORSDOF 5
ENDMDL
MODEL 8
REMARK VINA RESULT:      -7.8      3.395      6.017
REMARK  Name = 
REMARK  5 active torsions:
REMARK  status: ('A' for Active; 'I' for Inactive)
REMARK    1  A    between atoms: N_6  and  C_7
REMARK    2  A    between atoms: N_6  and  C_15
REMARK    3  A    between atoms: C_7  and  C_8
REMARK    4  A    between atoms: C_8  and  C_9
REMARK    5  A    between atoms: C_9  and  N_10
REMARK                            x       y       z     vdW  Elec       q    Type
REMARK                         _______ _______ _______ _____ _____    ______ ____
ROOT
ATOM      1  O   UNL     1       6.104   5.466  14.666  0.00  0.00    +0.000 OA
ATOM      2  S   UNL     1       5.727   4.419  15.588  0.00  0.00    +0.000 S 
ATOM      3  O   UNL     1       6.031   3.023  15.362  0.00  0.00    +0.000 OA
ATOM      4  N   UNL     1       4.159   4.574  16.012  0.00  0.00    +0.000 NA
ATOM      5  C   UNL     1       4.007   4.939  17.255  0.00  0.00    +0.000 C 
ATOM      6  N   UNL     1       2.761   5.047  17.871  0.00  0.00    +0.000 N 
ATOM      7  C   UNL     1       5.315   5.153  17.982  0.00  0.00    +0.000 A 
ATOM      8  C   UNL     1       5.601   5.556  19.277  0.00  0.00    +0.000 A 
ATOM      9  C   UNL     1       6.947   5.627  19.680  0.00  0.00    +0.000 A 
ATOM     10  C   UNL     1       7.989   5.262  18.809  0.00  0.00    +0.000 A 
ATOM     11  C   UNL     1       7.702   4.858  17.509  0.00  0.00    +0.000 A 
ATOM     12  C   UNL     1       6.369   4.840  17.139  0.00  0.00    +0.000 A 
ENDROOT
BRANCH   6  13
ATOM     13  C   UNL     1       2.401   6.178  18.675  0.00  0.00    +0.000 A 
ATOM     14  C   UNL     1       2.111   6.042  20.044  0.00  0.00    +0.000 A 
ATOM     15  C   UNL     1       1.741   7.142  20.825  0.00  0.00    +0.000 A 
ATOM     16  C   UNL     1       1.678   8.412  20.261  0.00  0.00    +0.000 A 
ATOM     17  C   UNL     1       1.987   8.582  18.917  0.00  0.00    +0.000 A 
ATOM     18  C   UNL     1       2.336   7.477  18.133  0.00  0.00    +0.000 A 
ENDBRANCH   6  13
BRANCH   6  19
ATOM     19  C   UNL     1       1.550   4.296  17.434  0.00  0.00    +0.000 C 
BRANCH  19  20
ATOM     20  C   UNL     1       0.762   3.435  18.423  0.00  0.00    +0.000 C 
BRANCH  20  21
ATOM     21  C   UNL     1       1.281   2.014  18.653  0.00  0.00    +0.000 C 
BRANCH  21  22
ATOM     22  N   UNL     1       2.480   2.047  19.480  0.00  0.00    +0.000 N 
ATOM     23  C   UNL     1       3.751   1.743  19.077  0.00  0.00    +0.000 A 
ATOM     24  C   UNL     1       4.552   2.095  20.140  0.00  0.00    +0.000 A 
ATOM     25  N   UNL     1       3.797   2.550  21.188  0.00  0.00    +0.000 NA
ATOM     26  C   UNL     1       2.552   2.491  20.771  0.00  0.00    +0.000 A 
ENDBRANCH  21  22
ENDBRANCH  20  21
ENDBRANCH  19  20
ENDBRANCH   6  19
TORSDOF 5
ENDMDL
MODEL 9
REMARK VINA RESULT:      -7.7      2.876      6.905
REMARK  Name = 
REMARK  5 active torsions:
REMARK  status: ('A' for Active; 'I' for Inactive)
REMARK    1  A    between atoms: N_6  and  C_7
REMARK    2  A    between atoms: N_6  and  C_15
REMARK    3  A    between atoms: C_7  and  C_8
REMARK    4  A    between atoms: C_8  and  C_9
REMARK    5  A    between atoms: C_9  and  N_10
REMARK                            x       y       z     vdW  Elec       q    Type
REMARK                         _______ _______ _______ _____ _____    ______ ____
ROOT
ATOM      1  O   UNL     1       8.045   6.245  18.500  0.00  0.00    +0.000 OA
ATOM      2  S   UNL     1       7.043   6.789  17.613  0.00  0.00    +0.000 S 
ATOM      3  O   UNL     1       7.245   7.995  16.841  0.00  0.00    +0.000 OA
ATOM      4  N   UNL     1       5.597   6.859  18.365  0.00  0.00    +0.000 NA
ATOM      5  C   UNL     1       4.738   6.003  17.885  0.00  0.00    +0.000 C 
ATOM      6  N   UNL     1       3.409   5.939  18.304  0.00  0.00    +0.000 N 
ATOM      7  C   UNL     1       5.300   5.145  16.776  0.00  0.00    +0.000 A 
ATOM      8  C   UNL     1       4.748   4.120  16.023  0.00  0.00    +0.000 A 
ATOM      9  C   UNL     1       5.527   3.526  15.015  0.00  0.00    +0.000 A 
ATOM     10  C   UNL     1       6.829   3.979  14.739  0.00  0.00    +0.000 A 
ATOM     11  C   UNL     1       7.386   5.007  15.494  0.00  0.00    +0.000 A 
ATOM     12  C   UNL     1       6.601   5.537  16.502  0.00  0.00    +0.000 A 
ENDROOT
BRANCH   6  13
ATOM     13  C   UNL     1       2.765   4.698  18.616  0.00  0.00    +0.000 A 
ATOM     14  C   UNL     1       3.276   3.834  19.601  0.00  0.00    +0.000 A 
ATOM     15  C   UNL     1       2.658   2.612  19.892  0.00  0.00    +0.000 A 
ATOM     16  C   UNL     1       1.497   2.237  19.224  0.00  0.00    +0.000 A 
ATOM     17  C   UNL     1       0.952   3.084  18.267  0.00  0.00    +0.000 A 
ATOM     18  C   UNL     1       1.583   4.294  17.961  0.00  0.00    +0.000 A 
ENDBRANCH   6  13
BRANCH   6  19
ATOM     19  C   UNL     1       2.669   7.088  18.898  0.00  0.00    +0.000 C 
BRANCH  19  20
ATOM     20  C   UNL     1       1.778   7.979  18.032  0.00  0.00    +0.000 C 
BRANCH  20  21
ATOM     21  C   UNL     1       1.987   9.489  18.166  0.00  0.00    +0.000 C 
BRANCH  21  22
ATOM     22  N   UNL     1       0.846  10.096  18.837  0.00  0.00    +0.000 N 
ATOM     23  C   UNL     1      -0.383  10.338  18.287  0.00  0.00    +0.000 A 
ATOM     24  C   UNL     1      -1.169  10.741  19.343  0.00  0.00    +0.000 A 
ATOM     25  N   UNL     1      -0.437  10.800  20.499  0.00  0.00    +0.000 NA
ATOM     26  C   UNL     1       0.778  10.426  20.161  0.00  0.00    +0.000 A 
ENDBRANCH  21  22
ENDBRANCH  20  21
ENDBRANCH  19  20
ENDBRANCH   6  19
TORSDOF 5
ENDMDL
