MODEL 1
REMARK VINA RESULT:      -7.7      0.000      0.000
REMARK  Name = 
REMARK  6 active torsions:
REMARK  status: ('A' for Active; 'I' for Inactive)
REMARK    1  A    between atoms: C_1  and  N_2
REMARK    2  A    between atoms: N_2  and  C_3
REMARK    3  A    between atoms: N_6  and  C_7
REMARK    4  A    between atoms: N_6  and  C_8
REMARK    5  A    between atoms: C_8  and  C_9
REMARK    6  A    between atoms: C_18  and  C_19
REMARK                            x       y       z     vdW  Elec       q    Type
REMARK                         _______ _______ _______ _____ _____    ______ ____
ROOT
ATOM      1  C   UNL     1       6.900   6.286  16.391  0.00  0.00    +0.000 A 
ATOM      2  C   UNL     1       5.805   6.085  17.135  0.00  0.00    +0.000 A 
ATOM      3  C   UNL     1       4.701   5.170  16.678  0.00  0.00    +0.000 A 
ATOM      4  N   UNL     1       3.535   5.080  17.436  0.00  0.00    +0.000 N 
ATOM      5  C   UNL     1       3.107   6.143  18.336  0.00  0.00    +0.000 C 
ATOM      6  N   UNL     1       4.821   4.447  15.593  0.00  0.00    +0.000 NA
ATOM      7  N   UNL     1       5.949   4.697  14.867  0.00  0.00    +0.000 N 
ATOM      8  C   UNL     1       6.302   4.137  13.658  0.00  0.00    +0.000 A 
ATOM      9  C   UNL     1       5.502   3.121  12.944  0.00  0.00    +0.000 C 
ATOM     10  N   UNL     1       7.447   4.653  13.252  0.00  0.00    +0.000 NA
ATOM     11  N   UNL     1       7.868   5.557  14.198  0.00  0.00    +0.000 NA
ATOM     12  C   UNL     1       6.964   5.578  15.157  0.00  0.00    +0.000 A 
ENDROOT
BRANCH   1  14
ATOM     13  C   UNL     1       7.835   8.210  17.716  0.00  0.00    +0.000 C 
ATOM     14  N   UNL     1       7.949   7.125  16.767  0.00  0.00    +0.000 N 
ATOM     15  H   UNL     1       8.826   6.602  16.836  0.00  0.00    +0.000 HD
ENDBRANCH   1  14
BRANCH   4  16
ATOM     16  C   UNL     1       2.679   3.891  17.395  0.00  0.00    +0.000 C 
BRANCH  16  17
ATOM     17  C   UNL     1       2.292   3.413  18.779  0.00  0.00    +0.000 A 
ATOM     18  C   UNL     1       0.940   3.397  19.161  0.00  0.00    +0.000 A 
ATOM     19  C   UNL     1       0.565   3.011  20.447  0.00  0.00    +0.000 A 
ATOM     20  C   UNL     1       1.543   2.629  21.355  0.00  0.00    +0.000 A 
ATOM     21  F   UNL     1       1.188   2.272  22.597  0.00  0.00    +0.000 F 
ATOM     22  C   UNL     1       2.884   2.609  20.993  0.00  0.00    +0.000 A 
ATOM     23  C   UNL     1       3.259   2.997  19.706  0.00  0.00    +0.000 A 
ENDBRANCH  16  17
ENDBRANCH   4  16
TORSDOF 3
ENDMDL
MODEL 2
REMARK VINA RESULT:      -7.6      1.144      1.206
REMARK  Name = 
REMARK  6 active torsions:
REMARK  status: ('A' for Active; 'I' for Inactive)
REMARK    1  A    between atoms: C_1  and  N_2
REMARK    2  A    between atoms: N_2  and  C_3
REMARK    3  A    between atoms: N_6  and  C_7
REMARK    4  A    between atoms: N_6  and  C_8
REMARK    5  A    between atoms: C_8  and  C_9
REMARK    6  A    between atoms: C_18  and  C_19
REMARK                            x       y       z     vdW  Elec       q    Type
REMARK                         _______ _______ _______ _____ _____    ______ ____
ROOT
ATOM      1  C   UNL     1       6.702   6.813  17.432  0.00  0.00    +0.000 A 
ATOM      2  C   UNL     1       5.485   6.836  17.992  0.00  0.00    +0.000 A 
ATOM      3  C   UNL     1       4.323   6.107  17.375  0.00  0.00    +0.000 A 
ATOM      4  N   UNL     1       3.055   6.252  17.934  0.00  0.00    +0.000 N 
ATOM      5  C   UNL     1       2.686   7.411  18.738  0.00  0.00    +0.000 C 
ATOM      6  N   UNL     1       4.482   5.329  16.334  0.00  0.00    +0.000 NA
ATOM      7  N   UNL     1       5.736   5.349  15.797  0.00  0.00    +0.000 N 
ATOM      8  C   UNL     1       6.169   4.685  14.669  0.00  0.00    +0.000 A 
ATOM      9  C   UNL     1       5.325   3.794  13.849  0.00  0.00    +0.000 C 
ATOM     10  N   UNL     1       7.437   4.978  14.447  0.00  0.00    +0.000 NA
ATOM     11  N   UNL     1       7.858   5.835  15.436  0.00  0.00    +0.000 NA
ATOM     12  C   UNL     1       6.833   6.053  16.235  0.00  0.00    +0.000 A 
ENDROOT
BRANCH   1  14
ATOM     13  C   UNL     1       8.051   8.895  17.855  0.00  0.00    +0.000 C 
ATOM     14  N   UNL     1       7.811   7.473  17.962  0.00  0.00    +0.000 N 
ATOM     15  H   UNL     1       8.073   7.074  18.867  0.00  0.00    +0.000 HD
ENDBRANCH   1  14
BRANCH   4  16
ATOM     16  C   UNL     1       2.019   5.229  17.772  0.00  0.00    +0.000 C 
BRANCH  16  17
ATOM     17  C   UNL     1       1.871   4.360  19.003  0.00  0.00    +0.000 A 
ATOM     18  C   UNL     1       1.249   3.104  18.904  0.00  0.00    +0.000 A 
ATOM     19  C   UNL     1       1.056   2.310  20.034  0.00  0.00    +0.000 A 
ATOM     20  C   UNL     1       1.494   2.767  21.269  0.00  0.00    +0.000 A 
ATOM     21  F   UNL     1       1.296   2.015  22.360  0.00  0.00    +0.000 F 
ATOM     22  C   UNL     1       2.137   3.993  21.390  0.00  0.00    +0.000 A 
ATOM     23  C   UNL     1       2.328   4.787  20.259  0.00  0.00    +0.000 A 
ENDBRANCH  16  17
ENDBRANCH   4  16
TORSDOF 3
ENDMDL
MODEL 3
REMARK VINA RESULT:      -7.6      4.999      7.843
REMARK  Name = 
REMARK  6 active torsions:
REMARK  status: ('A' for Active; 'I' for Inactive)
REMARK    1  A    between atoms: C_1  and  N_2
REMARK    2  A    between atoms: N_2  and  C_3
REMARK    3  A    between atoms: N_6  and  C_7
REMARK    4  A    between atoms: N_6  and  C_8
REMARK    5  A    between atoms: C_8  and  C_9
REMARK    6  A    between atoms: C_18  and  C_19
REMARK                            x       y       z     vdW  Elec       q    Type
REMARK                         _______ _______ _______ _____ _____    ______ ____
ROOT
ATOM      1  C   UNL     1      -0.307  10.316  18.496  0.00  0.00    +0.000 A 
ATOM      2  C   UNL     1       0.631   9.415  18.175  0.00  0.00    +0.000 A 
ATOM      3  C   UNL     1       1.414   8.684  19.232  0.00  0.00    +0.000 A 
ATOM      4  N   UNL     1       2.453   7.840  18.847  0.00  0.00    +0.000 N 
ATOM      5  C   UNL     1       3.147   7.988  17.574  0.00  0.00    +0.000 C 
ATOM      6  N   UNL     1       1.128   8.815  20.503  0.00  0.00    +0.000 NA
ATOM      7  N   UNL     1       0.174   9.751  20.777  0.00  0.00    +0.000 N 
ATOM      8  C   UNL     1      -0.275  10.144  22.020  0.00  0.00    +0.000 A 
ATOM      9  C   UNL     1       0.201   9.575  23.297  0.00  0.00    +0.000 C 
ATOM     10  N   UNL     1      -1.179  11.096  21.880  0.00  0.00    +0.000 NA
ATOM     11  N   UNL     1      -1.342  11.336  20.537  0.00  0.00    +0.000 NA
ATOM     12  C   UNL     1      -0.527  10.530  19.887  0.00  0.00    +0.000 A 
ENDROOT
BRANCH   1  14
ATOM     13  C   UNL     1      -2.097  10.445  16.733  0.00  0.00    +0.000 C 
ATOM     14  N   UNL     1      -1.057  11.021  17.556  0.00  0.00    +0.000 N 
ATOM     15  H   UNL     1      -1.267  11.965  17.892  0.00  0.00    +0.000 HD
ENDBRANCH   1  14
BRANCH   4  16
ATOM     16  C   UNL     1       2.894   6.726  19.691  0.00  0.00    +0.000 C 
BRANCH  16  17
ATOM     17  C   UNL     1       2.165   5.438  19.370  0.00  0.00    +0.000 A 
ATOM     18  C   UNL     1       1.524   4.722  20.394  0.00  0.00    +0.000 A 
ATOM     19  C   UNL     1       0.891   3.508  20.130  0.00  0.00    +0.000 A 
ATOM     20  C   UNL     1       0.889   3.009  18.836  0.00  0.00    +0.000 A 
ATOM     21  F   UNL     1       0.296   1.835  18.581  0.00  0.00    +0.000 F 
ATOM     22  C   UNL     1       1.491   3.711  17.799  0.00  0.00    +0.000 A 
ATOM     23  C   UNL     1       2.126   4.926  18.064  0.00  0.00    +0.000 A 
ENDBRANCH  16  17
ENDBRANCH   4  16
TORSDOF 3
ENDMDL
MODEL 4
REMARK VINA RESULT:      -7.4      0.149      1.041
REMARK  Name = 
REMARK  6 active torsions:
REMARK  status: ('A' for Active; 'I' for Inactive)
REMARK    1  A    between atoms: C_1  and  N_2
REMARK    2  A    between atoms: N_2  and  C_3
REMARK    3  A    between atoms: N_6  and  C_7
REMARK    4  A    between atoms: N_6  and  C_8
REMARK    5  A    between atoms: C_8  and  C_9
REMARK    6  A    between atoms: C_18  and  C_19
REMARK                            x       y       z     vdW  Elec       q    Type
REMARK                         _______ _______ _______ _____ _____    ______ ____
ROOT
ATOM      1  C   UNL     1       6.880   6.358  16.403  0.00  0.00    +0.000 A 
ATOM      2  C   UNL     1       5.774   6.177  17.138  0.00  0.00    +0.000 A 
ATOM      3  C   UNL     1       4.679   5.247  16.693  0.00  0.00    +0.000 A 
ATOM      4  N   UNL     1       3.501   5.177  17.436  0.00  0.00    +0.000 N 
ATOM      5  C   UNL     1       3.059   6.265  18.299  0.00  0.00    +0.000 C 
ATOM      6  N   UNL     1       4.815   4.492  15.631  0.00  0.00    +0.000 NA
ATOM      7  N   UNL     1       5.953   4.723  14.914  0.00  0.00    +0.000 N 
ATOM      8  C   UNL     1       6.323   4.128  13.727  0.00  0.00    +0.000 A 
ATOM      9  C   UNL     1       5.535   3.090  13.032  0.00  0.00    +0.000 C 
ATOM     10  N   UNL     1       7.474   4.634  13.323  0.00  0.00    +0.000 NA
ATOM     11  N   UNL     1       7.879   5.566  14.247  0.00  0.00    +0.000 NA
ATOM     12  C   UNL     1       6.962   5.614  15.192  0.00  0.00    +0.000 A 
ENDROOT
BRANCH   1  14
ATOM     13  C   UNL     1       8.055   7.838  18.065  0.00  0.00    +0.000 C 
ATOM     14  N   UNL     1       7.922   7.210  16.770  0.00  0.00    +0.000 N 
ATOM     15  H   UNL     1       8.808   6.893  16.368  0.00  0.00    +0.000 HD
ENDBRANCH   1  14
BRANCH   4  16
ATOM     16  C   UNL     1       2.648   3.986  17.418  0.00  0.00    +0.000 C 
BRANCH  16  17
ATOM     17  C   UNL     1       2.261   3.535  18.811  0.00  0.00    +0.000 A 
ATOM     18  C   UNL     1       3.252   3.109  19.710  0.00  0.00    +0.000 A 
ATOM     19  C   UNL     1       2.913   2.641  20.979  0.00  0.00    +0.000 A 
ATOM     20  C   UNL     1       1.578   2.606  21.357  0.00  0.00    +0.000 A 
ATOM     21  F   UNL     1       1.246   2.142  22.569  0.00  0.00    +0.000 F 
ATOM     22  C   UNL     1       0.580   3.048  20.497  0.00  0.00    +0.000 A 
ATOM     23  C   UNL     1       0.921   3.516  19.226  0.00  0.00    +0.000 A 
ENDBRANCH  16  17
ENDBRANCH   4  16
TORSDOF 3
ENDMDL
MODEL 5
REMARK VINA RESULT:      -7.3      3.326      6.835
REMARK  Name = 
REMARK  6 active torsions:
REMARK  status: ('A' for Active; 'I' for Inactive)
REMARK    1  A    between atoms: C_1  and  N_2
REMARK    2  A    between atoms: N_2  and  C_3
REMARK    3  A    between atoms: N_6  and  C_7
REMARK    4  A    between atoms: N_6  and  C_8
REMARK    5  A    between atoms: C_8  and  C_9
REMARK    6  A    between atoms: C_18  and  C_19
REMARK                            x       y       z     vdW  Elec       q    Type
REMARK                         _______ _______ _______ _____ _____    ______ ____
ROOT
ATOM      1  C   UNL     1       2.409   4.449  20.510  0.00  0.00    +0.000 A 
ATOM      2  C   UNL     1       3.103   3.797  19.568  0.00  0.00    +0.000 A 
ATOM      3  C   UNL     1       3.526   4.474  18.293  0.00  0.00    +0.000 A 
ATOM      4  N   UNL     1       4.149   3.722  17.298  0.00  0.00    +0.000 N 
ATOM      5  C   UNL     1       3.979   2.279  17.191  0.00  0.00    +0.000 C 
ATOM      6  N   UNL     1       3.334   5.756  18.106  0.00  0.00    +0.000 NA
ATOM      7  N   UNL     1       2.615   6.371  19.090  0.00  0.00    +0.000 N 
ATOM      8  C   UNL     1       2.208   7.688  19.124  0.00  0.00    +0.000 A 
ATOM      9  C   UNL     1       2.521   8.684  18.081  0.00  0.00    +0.000 C 
ATOM     10  N   UNL     1       1.505   7.901  20.220  0.00  0.00    +0.000 NA
ATOM     11  N   UNL     1       1.446   6.724  20.927  0.00  0.00    +0.000 NA
ATOM     12  C   UNL     1       2.109   5.815  20.241  0.00  0.00    +0.000 A 
ENDROOT
BRANCH   1  14
ATOM     13  C   UNL     1       1.559   2.495  21.849  0.00  0.00    +0.000 C 
ATOM     14  N   UNL     1       1.992   3.867  21.707  0.00  0.00    +0.000 N 
ATOM     15  H   UNL     1       2.552   4.210  22.493  0.00  0.00    +0.000 HD
ENDBRANCH   1  14
BRANCH   4  16
ATOM     16  C   UNL     1       5.042   4.338  16.313  0.00  0.00    +0.000 C 
BRANCH  16  17
ATOM     17  C   UNL     1       6.061   5.256  16.955  0.00  0.00    +0.000 A 
ATOM     18  C   UNL     1       6.936   4.758  17.934  0.00  0.00    +0.000 A 
ATOM     19  C   UNL     1       7.847   5.597  18.574  0.00  0.00    +0.000 A 
ATOM     20  C   UNL     1       7.891   6.941  18.231  0.00  0.00    +0.000 A 
ATOM     21  F   UNL     1       8.753   7.755  18.855  0.00  0.00    +0.000 F 
ATOM     22  C   UNL     1       7.055   7.454  17.246  0.00  0.00    +0.000 A 
ATOM     23  C   UNL     1       6.143   6.613  16.606  0.00  0.00    +0.000 A 
ENDBRANCH  16  17
ENDBRANCH   4  16
TORSDOF 3
ENDMDL
MODEL 6
REMARK VINA RESULT:      -7.2      3.188      4.990
REMARK  Name = 
REMARK  6 active torsions:
REMARK  status: ('A' for Active; 'I' for Inactive)
REMARK    1  A    between atoms: C_1  and  N_2
REMARK    2  A    between atoms: N_2  and  C_3
REMARK    3  A    between atoms: N_6  and  C_7
REMARK    4  A    between atoms: N_6  and  C_8
REMARK    5  A    between atoms: C_8  and  C_9
REMARK    6  A    between atoms: C_18  and  C_19
REMARK                            x       y       z     vdW  Elec       q    Type
REMARK                         _______ _______ _______ _____ _____    ______ ____
ROOT
ATOM      1  C   UNL     1       5.378   4.223  16.140  0.00  0.00    +0.000 A 
ATOM      2  C   UNL     1       4.200   4.485  16.722  0.00  0.00    +0.000 A 
ATOM      3  C   UNL     1       4.113   4.917  18.161  0.00  0.00    +0.000 A 
ATOM      4  N   UNL     1       2.859   5.071  18.750  0.00  0.00    +0.000 N 
ATOM      5  C   UNL     1       1.674   4.386  18.250  0.00  0.00    +0.000 C 
ATOM      6  N   UNL     1       5.189   5.165  18.864  0.00  0.00    +0.000 NA
ATOM      7  N   UNL     1       6.361   4.872  18.229  0.00  0.00    +0.000 N 
ATOM      8  C   UNL     1       7.635   4.970  18.747  0.00  0.00    +0.000 A 
ATOM      9  C   UNL     1       7.948   5.449  20.107  0.00  0.00    +0.000 C 
ATOM     10  N   UNL     1       8.508   4.566  17.843  0.00  0.00    +0.000 NA
ATOM     11  N   UNL     1       7.817   4.205  16.711  0.00  0.00    +0.000 NA
ATOM     12  C   UNL     1       6.535   4.388  16.954  0.00  0.00    +0.000 A 
ENDROOT
BRANCH   1  14
ATOM     13  C   UNL     1       6.447   4.387  13.869  0.00  0.00    +0.000 C 
ATOM     14  N   UNL     1       5.512   3.817  14.812  0.00  0.00    +0.000 N 
ATOM     15  H   UNL     1       5.402   2.803  14.730  0.00  0.00    +0.000 HD
ENDBRANCH   1  14
BRANCH   4  16
ATOM     16  C   UNL     1       2.650   5.960  19.896  0.00  0.00    +0.000 C 
BRANCH  16  17
ATOM     17  C   UNL     1       2.166   7.333  19.478  0.00  0.00    +0.000 A 
ATOM     18  C   UNL     1       1.461   8.134  20.391  0.00  0.00    +0.000 A 
ATOM     19  C   UNL     1       0.961   9.380  20.011  0.00  0.00    +0.000 A 
ATOM     20  C   UNL     1       1.175   9.833  18.717  0.00  0.00    +0.000 A 
ATOM     21  F   UNL     1       0.683  11.022  18.344  0.00  0.00    +0.000 F 
ATOM     22  C   UNL     1       1.894   9.072  17.804  0.00  0.00    +0.000 A 
ATOM     23  C   UNL     1       2.392   7.825  18.184  0.00  0.00    +0.000 A 
ENDBRANCH  16  17
ENDBRANCH   4  16
TORSDOF 3
ENDMDL
MODEL 7
REMARK VINA RESULT:      -7.1      3.405      6.865
REMARK  Name = 
REMARK  6 active torsions:
REMARK  status: ('A' for Active; 'I' for Inactive)
REMARK    1  A    between atoms: C_1  and  N_2
REMARK    2  A    between atoms: N_2  and  C_3
REMARK    3  A    between atoms: N_6  and  C_7
REMARK    4  A    between atoms: N_6  and  C_8
REMARK    5  A    between atoms: C_8  and  C_9
REMARK    6  A    between atoms: C_18  and  C_19
REMARK                            x       y       z     vdW  Elec       q    Type
REMARK                         _______ _______ _______ _____ _____    ______ ____
ROOT
ATOM      1  C   UNL     1       2.439   4.303  20.684  0.00  0.00    +0.000 A 
ATOM      2  C   UNL     1       3.156   3.670  19.746  0.00  0.00    +0.000 A 
ATOM      3  C   UNL     1       3.567   4.359  18.474  0.00  0.00    +0.000 A 
ATOM      4  N   UNL     1       4.217   3.625  17.482  0.00  0.00    +0.000 N 
ATOM      5  C   UNL     1       4.088   2.177  17.374  0.00  0.00    +0.000 C 
ATOM      6  N   UNL     1       3.341   5.635  18.285  0.00  0.00    +0.000 NA
ATOM      7  N   UNL     1       2.598   6.230  19.264  0.00  0.00    +0.000 N 
ATOM      8  C   UNL     1       2.155   7.534  19.295  0.00  0.00    +0.000 A 
ATOM      9  C   UNL     1       2.446   8.539  18.254  0.00  0.00    +0.000 C 
ATOM     10  N   UNL     1       1.439   7.728  20.387  0.00  0.00    +0.000 NA
ATOM     11  N   UNL     1       1.409   6.550  21.094  0.00  0.00    +0.000 NA
ATOM     12  C   UNL     1       2.102   5.660  20.412  0.00  0.00    +0.000 A 
ENDROOT
BRANCH   1  14
ATOM     13  C   UNL     1       1.344   2.442  21.975  0.00  0.00    +0.000 C 
ATOM     14  N   UNL     1       2.031   3.710  21.879  0.00  0.00    +0.000 N 
ATOM     15  H   UNL     1       2.722   3.866  22.617  0.00  0.00    +0.000 HD
ENDBRANCH   1  14
BRANCH   4  16
ATOM     16  C   UNL     1       5.099   4.265  16.503  0.00  0.00    +0.000 C 
BRANCH  16  17
ATOM     17  C   UNL     1       6.062   5.241  17.146  0.00  0.00    +0.000 A 
ATOM     18  C   UNL     1       6.091   6.579  16.721  0.00  0.00    +0.000 A 
ATOM     19  C   UNL     1       7.005   7.482  17.263  0.00  0.00    +0.000 A 
ATOM     20  C   UNL     1       7.889   7.050  18.242  0.00  0.00    +0.000 A 
ATOM     21  F   UNL     1       8.779   7.910  18.754  0.00  0.00    +0.000 F 
ATOM     22  C   UNL     1       7.862   5.739  18.700  0.00  0.00    +0.000 A 
ATOM     23  C   UNL     1       6.947   4.835  18.156  0.00  0.00    +0.000 A 
ENDBRANCH  16  17
ENDBRANCH   4  16
TORSDOF 3
ENDMDL
MODEL 8
REMARK VINA RESULT:      -7.1      3.199      5.027
REMARK  Name = 
REMARK  6 active torsions:
REMARK  status: ('A' for Active; 'I' for Inactive)
REMARK    1  A    between atoms: C_1  and  N_2
REMARK    2  A    between atoms: N_2  and  C_3
REMARK    3  A    between atoms: N_6  and  C_7
REMARK    4  A    between atoms: N_6  and  C_8
REMARK    5  A    between atoms: C_8  and  C_9
REMARK    6  A    between atoms: C_18  and  C_19
REMARK                            x       y       z     vdW  Elec       q    Type
REMARK                         _______ _______ _______ _____ _____    ______ ____
ROOT
ATOM      1  C   UNL     1       5.377   4.219  16.165  0.00  0.00    +0.000 A 
ATOM      2  C   UNL     1       4.201   4.485  16.749  0.00  0.00    +0.000 A 
ATOM      3  C   UNL     1       4.119   4.928  18.184  0.00  0.00    +0.000 A 
ATOM      4  N   UNL     1       2.867   5.087  18.777  0.00  0.00    +0.000 N 
ATOM      5  C   UNL     1       1.680   4.397  18.287  0.00  0.00    +0.000 C 
ATOM      6  N   UNL     1       5.198   5.182  18.882  0.00  0.00    +0.000 NA
ATOM      7  N   UNL     1       6.368   4.884  18.245  0.00  0.00    +0.000 N 
ATOM      8  C   UNL     1       7.643   4.986  18.758  0.00  0.00    +0.000 A 
ATOM      9  C   UNL     1       7.961   5.477  20.113  0.00  0.00    +0.000 C 
ATOM     10  N   UNL     1       8.513   4.576  17.854  0.00  0.00    +0.000 NA
ATOM     11  N   UNL     1       7.818   4.206  16.728  0.00  0.00    +0.000 NA
ATOM     12  C   UNL     1       6.537   4.390  16.973  0.00  0.00    +0.000 A 
ENDROOT
BRANCH   1  14
ATOM     13  C   UNL     1       6.362   4.433  13.860  0.00  0.00    +0.000 C 
ATOM     14  N   UNL     1       5.506   3.803  14.840  0.00  0.00    +0.000 N 
ATOM     15  H   UNL     1       5.481   2.782  14.776  0.00  0.00    +0.000 HD
ENDBRANCH   1  14
BRANCH   4  16
ATOM     16  C   UNL     1       2.662   5.985  19.917  0.00  0.00    +0.000 C 
BRANCH  16  17
ATOM     17  C   UNL     1       2.132   7.339  19.494  0.00  0.00    +0.000 A 
ATOM     18  C   UNL     1       2.375   7.812  18.194  0.00  0.00    +0.000 A 
ATOM     19  C   UNL     1       1.940   9.077  17.801  0.00  0.00    +0.000 A 
ATOM     20  C   UNL     1       1.251   9.872  18.706  0.00  0.00    +0.000 A 
ATOM     21  F   UNL     1       0.846  11.094  18.337  0.00  0.00    +0.000 F 
ATOM     22  C   UNL     1       0.973   9.416  19.989  0.00  0.00    +0.000 A 
ATOM     23  C   UNL     1       1.409   8.150  20.382  0.00  0.00    +0.000 A 
ENDBRANCH  16  17
ENDBRANCH   4  16
TORSDOF 3
ENDMDL
MODEL 9
REMARK VINA RESULT:      -7.1      3.368      6.778
REMARK  Name = 
REMARK  6 active torsions:
REMARK  status: ('A' for Active; 'I' for Inactive)
REMARK    1  A    between atoms: C_1  and  N_2
REMARK    2  A    between atoms: N_2  and  C_3
REMARK    3  A    between atoms: N_6  and  C_7
REMARK    4  A    between atoms: N_6  and  C_8
REMARK    5  A    between atoms: C_8  and  C_9
REMARK    6  A    between atoms: C_18  and  C_19
REMARK                            x       y       z     vdW  Elec       q    Type
REMARK                         _______ _______ _______ _____ _____    ______ ____
ROOT
ATOM      1  C   UNL     1       2.990   6.876  18.772  0.00  0.00    +0.000 A 
ATOM      2  C   UNL     1       4.150   6.982  18.111  0.00  0.00    +0.000 A 
ATOM      3  C   UNL     1       5.160   5.868  18.113  0.00  0.00    +0.000 A 
ATOM      4  N   UNL     1       6.397   6.069  17.503  0.00  0.00    +0.000 N 
ATOM      5  C   UNL     1       6.961   7.399  17.306  0.00  0.00    +0.000 C 
ATOM      6  N   UNL     1       4.896   4.709  18.664  0.00  0.00    +0.000 NA
ATOM      7  N   UNL     1       3.707   4.657  19.333  0.00  0.00    +0.000 N 
ATOM      8  C   UNL     1       3.205   3.597  20.056  0.00  0.00    +0.000 A 
ATOM      9  C   UNL     1       3.882   2.294  20.205  0.00  0.00    +0.000 C 
ATOM     10  N   UNL     1       2.044   3.937  20.585  0.00  0.00    +0.000 NA
ATOM     11  N   UNL     1       1.764   5.228  20.206  0.00  0.00    +0.000 NA
ATOM     12  C   UNL     1       2.765   5.651  19.462  0.00  0.00    +0.000 A 
ENDROOT
BRANCH   1  14
ATOM     13  C   UNL     1       1.963   8.995  17.885  0.00  0.00    +0.000 C 
ATOM     14  N   UNL     1       2.022   7.880  18.803  0.00  0.00    +0.000 N 
ATOM     15  H   UNL     1       1.106   7.494  19.049  0.00  0.00    +0.000 HD
ENDBRANCH   1  14
BRANCH   4  16
ATOM     16  C   UNL     1       7.195   4.952  16.992  0.00  0.00    +0.000 C 
BRANCH  16  17
ATOM     17  C   UNL     1       6.899   4.651  15.537  0.00  0.00    +0.000 A 
ATOM     18  C   UNL     1       5.812   3.828  15.199  0.00  0.00    +0.000 A 
ATOM     19  C   UNL     1       5.553   3.496  13.870  0.00  0.00    +0.000 A 
ATOM     20  C   UNL     1       6.375   3.996  12.871  0.00  0.00    +0.000 A 
ATOM     21  F   UNL     1       6.139   3.667  11.594  0.00  0.00    +0.000 F 
ATOM     22  C   UNL     1       7.440   4.836  13.176  0.00  0.00    +0.000 A 
ATOM     23  C   UNL     1       7.699   5.166  14.507  0.00  0.00    +0.000 A 
ENDBRANCH  16  17
ENDBRANCH   4  16
TORSDOF 3
ENDMDL
