MODEL 1
REMARK VINA RESULT:      -8.9      0.000      0.000
REMARK  Name = 
REMARK  5 active torsions:
REMARK  status: ('A' for Active; 'I' for Inactive)
REMARK    1  A    between atoms: C_1  and  C_2
REMARK    2  A    between atoms: C_9  and  C_11
REMARK    3  A    between atoms: C_11  and  S_12
REMARK    4  A    between atoms: S_12  and  C_13
REMARK    5  A    between atoms: C_16  and  C_17
REMARK                            x       y       z     vdW  Elec       q    Type
REMARK                         _______ _______ _______ _____ _____    ______ ____
ROOT
ATOM      1  S   UNL     1      -4.052  12.906  24.323  0.00  0.00    +0.000 S 
ENDROOT
BRANCH   1   2
ATOM      2  C   UNL     1      -2.508  12.671  23.566  0.00  0.00    +0.000 A 
ATOM      3  N   UNL     1      -1.502  13.514  23.512  0.00  0.00    +0.000 NA
ATOM      4  N   UNL     1      -0.479  12.859  22.834  0.00  0.00    +0.000 NA
ATOM      5  C   UNL     1      -0.909  11.641  22.510  0.00  0.00    +0.000 A 
ATOM      6  O   UNL     1      -2.210  11.491  22.954  0.00  0.00    +0.000 OA
BRANCH   5   7
ATOM      7  C   UNL     1      -0.188  10.597  21.842  0.00  0.00    +0.000 A 
ATOM      8  C   UNL     1       0.015  10.642  20.510  0.00  0.00    +0.000 A 
ATOM      9  C   UNL     1       0.794   9.607  19.841  0.00  0.00    +0.000 A 
ATOM     10  C   UNL     1       1.016   9.602  18.461  0.00  0.00    +0.000 A 
ATOM     11  C   UNL     1       1.797   8.595  17.876  0.00  0.00    +0.000 A 
ATOM     12  C   UNL     1       2.363   7.592  18.665  0.00  0.00    +0.000 A 
ATOM     13  C   UNL     1       2.143   7.587  20.039  0.00  0.00    +0.000 A 
ATOM     14  C   UNL     1       1.358   8.592  20.604  0.00  0.00    +0.000 A 
ATOM     15  O   UNL     1       1.147   8.536  21.988  0.00  0.00    +0.000 OA
ATOM     16  C   UNL     1       0.353   9.465  22.651  0.00  0.00    +0.000 A 
ATOM     17  O   UNL     1       0.144   9.342  23.851  0.00  0.00    +0.000 OA
ENDBRANCH   5   7
ENDBRANCH   1   2
BRANCH   1  18
ATOM     18  C   UNL     1      -4.923  14.022  23.198  0.00  0.00    +0.000 C 
BRANCH  18  27
ATOM     19  C   UNL     1      -4.021  10.087  14.207  0.00  0.00    +0.000 C 
ATOM     20  C   UNL     1      -3.629  10.586  15.568  0.00  0.00    +0.000 A 
ATOM     21  C   UNL     1      -2.323  10.453  16.042  0.00  0.00    +0.000 A 
ATOM     22  C   UNL     1      -1.967  10.929  17.315  0.00  0.00    +0.000 A 
ATOM     23  C   UNL     1      -2.936  11.541  18.138  0.00  0.00    +0.000 A 
ATOM     24  N   UNL     1      -2.738  12.062  19.414  0.00  0.00    +0.000 NA
ATOM     25  C   UNL     1      -3.882  12.492  19.900  0.00  0.00    +0.000 A 
ATOM     26  N   UNL     1      -3.973  13.046  21.158  0.00  0.00    +0.000 N 
ATOM     27  C   UNL     1      -5.137  13.323  21.853  0.00  0.00    +0.000 C 
ATOM     28  O   UNL     1      -6.274  13.006  21.507  0.00  0.00    +0.000 OA
ATOM     29  S   UNL     1      -5.218  12.396  18.851  0.00  0.00    +0.000 S 
ATOM     30  C   UNL     1      -4.239  11.651  17.652  0.00  0.00    +0.000 A 
ATOM     31  C   UNL     1      -4.602  11.194  16.375  0.00  0.00    +0.000 A 
ATOM     32  H   UNL     1      -3.074  13.182  21.599  0.00  0.00    +0.000 HD
ENDBRANCH  18  27
ENDBRANCH   1  18
TORSDOF 4
ENDMDL
MODEL 2
REMARK VINA RESULT:      -8.6      6.314      9.003
REMARK  Name = 
REMARK  5 active torsions:
REMARK  status: ('A' for Active; 'I' for Inactive)
REMARK    1  A    between atoms: C_1  and  C_2
REMARK    2  A    between atoms: C_9  and  C_11
REMARK    3  A    between atoms: C_11  and  S_12
REMARK    4  A    between atoms: S_12  and  C_13
REMARK    5  A    between atoms: C_16  and  C_17
REMARK                            x       y       z     vdW  Elec       q    Type
REMARK                         _______ _______ _______ _____ _____    ______ ____
ROOT
ATOM      1  S   UNL     1       1.759   4.334  19.617  0.00  0.00    +0.000 S 
ENDROOT
BRANCH   1   2
ATOM      2  C   UNL     1       3.397   4.190  19.061  0.00  0.00    +0.000 A 
ATOM      3  N   UNL     1       4.431   3.715  19.717  0.00  0.00    +0.000 NA
ATOM      4  N   UNL     1       5.511   3.774  18.843  0.00  0.00    +0.000 NA
ATOM      5  C   UNL     1       5.082   4.279  17.687  0.00  0.00    +0.000 A 
ATOM      6  O   UNL     1       3.734   4.567  17.796  0.00  0.00    +0.000 OA
BRANCH   5   7
ATOM      7  C   UNL     1       5.828   4.486  16.481  0.00  0.00    +0.000 A 
ATOM      8  C   UNL     1       5.502   3.833  15.348  0.00  0.00    +0.000 A 
ATOM      9  C   UNL     1       6.228   4.086  14.109  0.00  0.00    +0.000 A 
ATOM     10  C   UNL     1       5.938   3.420  12.914  0.00  0.00    +0.000 A 
ATOM     11  C   UNL     1       6.652   3.724  11.746  0.00  0.00    +0.000 A 
ATOM     12  C   UNL     1       7.655   4.696  11.764  0.00  0.00    +0.000 A 
ATOM     13  C   UNL     1       7.953   5.359  12.950  0.00  0.00    +0.000 A 
ATOM     14  C   UNL     1       7.238   5.040  14.104  0.00  0.00    +0.000 A 
ATOM     15  O   UNL     1       7.585   5.719  15.280  0.00  0.00    +0.000 OA
ATOM     16  C   UNL     1       6.963   5.456  16.495  0.00  0.00    +0.000 A 
ATOM     17  O   UNL     1       7.342   6.027  17.510  0.00  0.00    +0.000 OA
ENDBRANCH   5   7
ENDBRANCH   1   2
BRANCH   1  18
ATOM     18  C   UNL     1       1.854   5.568  20.936  0.00  0.00    +0.000 C 
BRANCH  18  27
ATOM     19  C   UNL     1      -0.156  14.968  18.754  0.00  0.00    +0.000 C 
ATOM     20  C   UNL     1      -0.003  13.716  19.570  0.00  0.00    +0.000 A 
ATOM     21  C   UNL     1      -0.214  13.719  20.950  0.00  0.00    +0.000 A 
ATOM     22  C   UNL     1      -0.074  12.541  21.702  0.00  0.00    +0.000 A 
ATOM     23  C   UNL     1       0.297  11.336  21.068  0.00  0.00    +0.000 A 
ATOM     24  N   UNL     1       0.472  10.094  21.673  0.00  0.00    +0.000 NA
ATOM     25  C   UNL     1       0.881   9.220  20.780  0.00  0.00    +0.000 A 
ATOM     26  N   UNL     1       1.145   7.910  21.115  0.00  0.00    +0.000 N 
ATOM     27  C   UNL     1       1.785   6.970  20.325  0.00  0.00    +0.000 C 
ATOM     28  O   UNL     1       2.327   7.190  19.243  0.00  0.00    +0.000 OA
ATOM     29  S   UNL     1       0.985   9.786  19.178  0.00  0.00    +0.000 S 
ATOM     30  C   UNL     1       0.518  11.357  19.691  0.00  0.00    +0.000 A 
ATOM     31  C   UNL     1       0.364  12.525  18.926  0.00  0.00    +0.000 A 
ATOM     32  H   UNL     1       0.887   7.683  22.065  0.00  0.00    +0.000 HD
ENDBRANCH  18  27
ENDBRANCH   1  18
TORSDOF 4
ENDMDL
MODEL 3
REMARK VINA RESULT:      -8.5      7.452     11.035
REMARK  Name = 
REMARK  5 active torsions:
REMARK  status: ('A' for Active; 'I' for Inactive)
REMARK    1  A    between atoms: C_1  and  C_2
REMARK    2  A    between atoms: C_9  and  C_11
REMARK    3  A    between atoms: C_11  and  S_12
REMARK    4  A    between atoms: S_12  and  C_13
REMARK    5  A    between atoms: C_16  and  C_17
REMARK                            x       y       z     vdW  Elec       q    Type
REMARK                         _______ _______ _______ _____ _____    ______ ____
ROOT
ATOM      1  S   UNL     1       6.572   5.314  17.199  0.00  0.00    +0.000 S 
ENDROOT
BRANCH   1   2
ATOM      2  C   UNL     1       4.906   5.575  17.609  0.00  0.00    +0.000 A 
ATOM      3  N   UNL     1       3.909   4.727  17.502  0.00  0.00    +0.000 NA
ATOM      4  N   UNL     1       2.782   5.384  17.987  0.00  0.00    +0.000 NA
ATOM      5  C   UNL     1       3.148   6.605  18.374  0.00  0.00    +0.000 A 
ATOM      6  O   UNL     1       4.501   6.765  18.136  0.00  0.00    +0.000 OA
BRANCH   5   7
ATOM      7  C   UNL     1       2.337   7.623  18.975  0.00  0.00    +0.000 A 
ATOM      8  C   UNL     1       1.884   7.487  20.237  0.00  0.00    +0.000 A 
ATOM      9  C   UNL     1       1.105   8.547  20.865  0.00  0.00    +0.000 A 
ATOM     10  C   UNL     1       0.599   8.445  22.165  0.00  0.00    +0.000 A 
ATOM     11  C   UNL     1      -0.121   9.508  22.727  0.00  0.00    +0.000 A 
ATOM     12  C   UNL     1      -0.336  10.679  21.998  0.00  0.00    +0.000 A 
ATOM     13  C   UNL     1       0.160  10.788  20.703  0.00  0.00    +0.000 A 
ATOM     14  C   UNL     1       0.868   9.718  20.156  0.00  0.00    +0.000 A 
ATOM     15  O   UNL     1       1.332   9.863  18.842  0.00  0.00    +0.000 OA
ATOM     16  C   UNL     1       2.019   8.848  18.185  0.00  0.00    +0.000 A 
ATOM     17  O   UNL     1       2.350   8.995  17.015  0.00  0.00    +0.000 OA
ENDBRANCH   5   7
ENDBRANCH   1   2
BRANCH   1  18
ATOM     18  C   UNL     1       7.482   6.136  18.529  0.00  0.00    +0.000 C 
BRANCH  18  27
ATOM     19  C   UNL     1      10.531  15.488  17.908  0.00  0.00    +0.000 C 
ATOM     20  C   UNL     1      10.376  14.093  18.442  0.00  0.00    +0.000 A 
ATOM     21  C   UNL     1      11.085  13.662  19.565  0.00  0.00    +0.000 A 
ATOM     22  C   UNL     1      10.928  12.357  20.059  0.00  0.00    +0.000 A 
ATOM     23  C   UNL     1      10.052  11.457  19.414  0.00  0.00    +0.000 A 
ATOM     24  N   UNL     1       9.789  10.140  19.783  0.00  0.00    +0.000 NA
ATOM     25  C   UNL     1       8.973   9.590  18.911  0.00  0.00    +0.000 A 
ATOM     26  N   UNL     1       8.558   8.282  19.031  0.00  0.00    +0.000 N 
ATOM     27  C   UNL     1       7.893   7.538  18.072  0.00  0.00    +0.000 C 
ATOM     28  O   UNL     1       7.674   7.889  16.914  0.00  0.00    +0.000 OA
ATOM     29  S   UNL     1       8.402  10.615  17.678  0.00  0.00    +0.000 S 
ATOM     30  C   UNL     1       9.364  11.901  18.285  0.00  0.00    +0.000 A 
ATOM     31  C   UNL     1       9.501  13.210  17.792  0.00  0.00    +0.000 A 
ATOM     32  H   UNL     1       8.852   7.849  19.896  0.00  0.00    +0.000 HD
ENDBRANCH  18  27
ENDBRANCH   1  18
TORSDOF 4
ENDMDL
MODEL 4
REMARK VINA RESULT:      -8.4      6.100      8.890
REMARK  Name = 
REMARK  5 active torsions:
REMARK  status: ('A' for Active; 'I' for Inactive)
REMARK    1  A    between atoms: C_1  and  C_2
REMARK    2  A    between atoms: C_9  and  C_11
REMARK    3  A    between atoms: C_11  and  S_12
REMARK    4  A    between atoms: S_12  and  C_13
REMARK    5  A    between atoms: C_16  and  C_17
REMARK                            x       y       z     vdW  Elec       q    Type
REMARK                         _______ _______ _______ _____ _____    ______ ____
ROOT
ATOM      1  S   UNL     1       2.488   5.488  20.379  0.00  0.00    +0.000 S 
ENDROOT
BRANCH   1   2
ATOM      2  C   UNL     1       3.763   4.712  19.493  0.00  0.00    +0.000 A 
ATOM      3  N   UNL     1       4.397   3.603  19.800  0.00  0.00    +0.000 NA
ATOM      4  N   UNL     1       5.303   3.372  18.770  0.00  0.00    +0.000 NA
ATOM      5  C   UNL     1       5.175   4.352  17.877  0.00  0.00    +0.000 A 
ATOM      6  O   UNL     1       4.204   5.235  18.315  0.00  0.00    +0.000 OA
BRANCH   5   7
ATOM      7  C   UNL     1       5.869   4.512  16.633  0.00  0.00    +0.000 A 
ATOM      8  C   UNL     1       5.449   3.875  15.522  0.00  0.00    +0.000 A 
ATOM      9  C   UNL     1       6.125   4.081  14.246  0.00  0.00    +0.000 A 
ATOM     10  C   UNL     1       5.736   3.430  13.072  0.00  0.00    +0.000 A 
ATOM     11  C   UNL     1       6.406   3.688  11.868  0.00  0.00    +0.000 A 
ATOM     12  C   UNL     1       7.463   4.600  11.829  0.00  0.00    +0.000 A 
ATOM     13  C   UNL     1       7.858   5.250  12.993  0.00  0.00    +0.000 A 
ATOM     14  C   UNL     1       7.186   4.976  14.184  0.00  0.00    +0.000 A 
ATOM     15  O   UNL     1       7.630   5.638  15.337  0.00  0.00    +0.000 OA
ATOM     16  C   UNL     1       7.057   5.415  16.584  0.00  0.00    +0.000 A 
ATOM     17  O   UNL     1       7.519   5.968  17.574  0.00  0.00    +0.000 OA
ENDBRANCH   5   7
ENDBRANCH   1   2
BRANCH   1  18
ATOM     18  C   UNL     1       2.277   7.075  19.539  0.00  0.00    +0.000 C 
BRANCH  18  27
ATOM     19  C   UNL     1      -2.714  14.619  23.453  0.00  0.00    +0.000 C 
ATOM     20  C   UNL     1      -2.047  13.764  22.415  0.00  0.00    +0.000 A 
ATOM     21  C   UNL     1      -2.104  14.090  21.059  0.00  0.00    +0.000 A 
ATOM     22  C   UNL     1      -1.471  13.285  20.097  0.00  0.00    +0.000 A 
ATOM     23  C   UNL     1      -0.776  12.122  20.494  0.00  0.00    +0.000 A 
ATOM     24  N   UNL     1      -0.101  11.230  19.665  0.00  0.00    +0.000 NA
ATOM     25  C   UNL     1       0.370  10.231  20.379  0.00  0.00    +0.000 A 
ATOM     26  N   UNL     1       1.072   9.196  19.802  0.00  0.00    +0.000 N 
ATOM     27  C   UNL     1       1.416   7.998  20.405  0.00  0.00    +0.000 C 
ATOM     28  O   UNL     1       1.044   7.619  21.514  0.00  0.00    +0.000 OA
ATOM     29  S   UNL     1       0.128  10.340  22.060  0.00  0.00    +0.000 S 
ATOM     30  C   UNL     1      -0.744  11.805  21.852  0.00  0.00    +0.000 A 
ATOM     31  C   UNL     1      -1.358  12.612  22.824  0.00  0.00    +0.000 A 
ATOM     32  H   UNL     1       1.273   9.347  18.824  0.00  0.00    +0.000 HD
ENDBRANCH  18  27
ENDBRANCH   1  18
TORSDOF 4
ENDMDL
MODEL 5
REMARK VINA RESULT:      -8.4      5.747      8.490
REMARK  Name = 
REMARK  5 active torsions:
REMARK  status: ('A' for Active; 'I' for Inactive)
REMARK    1  A    between atoms: C_1  and  C_2
REMARK    2  A    between atoms: C_9  and  C_11
REMARK    3  A    between atoms: C_11  and  S_12
REMARK    4  A    between atoms: S_12  and  C_13
REMARK    5  A    between atoms: C_16  and  C_17
REMARK                            x       y       z     vdW  Elec       q    Type
REMARK                         _______ _______ _______ _____ _____    ______ ____
ROOT
ATOM      1  S   UNL     1       2.141   7.285  19.617  0.00  0.00    +0.000 S 
ENDROOT
BRANCH   1   2
ATOM      2  C   UNL     1       3.398   6.236  19.041  0.00  0.00    +0.000 A 
ATOM      3  N   UNL     1       3.954   5.226  19.670  0.00  0.00    +0.000 NA
ATOM      4  N   UNL     1       4.880   4.677  18.789  0.00  0.00    +0.000 NA
ATOM      5  C   UNL     1       4.841   5.377  17.657  0.00  0.00    +0.000 A 
ATOM      6  O   UNL     1       3.910   6.392  17.788  0.00  0.00    +0.000 OA
BRANCH   5   7
ATOM      7  C   UNL     1       5.586   5.155  16.452  0.00  0.00    +0.000 A 
ATOM      8  C   UNL     1       5.069   4.421  15.447  0.00  0.00    +0.000 A 
ATOM      9  C   UNL     1       5.807   4.240  14.203  0.00  0.00    +0.000 A 
ATOM     10  C   UNL     1       5.319   3.473  13.140  0.00  0.00    +0.000 A 
ATOM     11  C   UNL     1       6.061   3.358  11.956  0.00  0.00    +0.000 A 
ATOM     12  C   UNL     1       7.289   4.010  11.824  0.00  0.00    +0.000 A 
ATOM     13  C   UNL     1       7.782   4.772  12.878  0.00  0.00    +0.000 A 
ATOM     14  C   UNL     1       7.036   4.871  14.052  0.00  0.00    +0.000 A 
ATOM     15  O   UNL     1       7.581   5.632  15.095  0.00  0.00    +0.000 OA
ATOM     16  C   UNL     1       6.941   5.770  16.321  0.00  0.00    +0.000 A 
ATOM     17  O   UNL     1       7.483   6.392  17.225  0.00  0.00    +0.000 OA
ENDBRANCH   5   7
ENDBRANCH   1   2
BRANCH   1  18
ATOM     18  C   UNL     1       2.165   8.671  18.456  0.00  0.00    +0.000 C 
BRANCH  18  27
ATOM     19  C   UNL     1      -4.517  14.559  22.679  0.00  0.00    +0.000 C 
ATOM     20  C   UNL     1      -3.222  13.829  22.466  0.00  0.00    +0.000 A 
ATOM     21  C   UNL     1      -2.130  14.023  23.315  0.00  0.00    +0.000 A 
ATOM     22  C   UNL     1      -0.926  13.331  23.109  0.00  0.00    +0.000 A 
ATOM     23  C   UNL     1      -0.801  12.434  22.027  0.00  0.00    +0.000 A 
ATOM     24  N   UNL     1       0.320  11.677  21.695  0.00  0.00    +0.000 NA
ATOM     25  C   UNL     1       0.090  11.006  20.588  0.00  0.00    +0.000 A 
ATOM     26  N   UNL     1       1.043  10.184  20.027  0.00  0.00    +0.000 N 
ATOM     27  C   UNL     1       1.000   9.614  18.766  0.00  0.00    +0.000 C 
ATOM     28  O   UNL     1       0.160   9.849  17.900  0.00  0.00    +0.000 OA
ATOM     29  S   UNL     1      -1.476  11.156  19.939  0.00  0.00    +0.000 S 
ATOM     30  C   UNL     1      -1.897  12.265  21.181  0.00  0.00    +0.000 A 
ATOM     31  C   UNL     1      -3.113  12.939  21.387  0.00  0.00    +0.000 A 
ATOM     32  H   UNL     1       1.863  10.073  20.607  0.00  0.00    +0.000 HD
ENDBRANCH  18  27
ENDBRANCH   1  18
TORSDOF 4
ENDMDL
MODEL 6
REMARK VINA RESULT:      -8.3      6.402      8.730
REMARK  Name = 
REMARK  5 active torsions:
REMARK  status: ('A' for Active; 'I' for Inactive)
REMARK    1  A    between atoms: C_1  and  C_2
REMARK    2  A    between atoms: C_9  and  C_11
REMARK    3  A    between atoms: C_11  and  S_12
REMARK    4  A    between atoms: S_12  and  C_13
REMARK    5  A    between atoms: C_16  and  C_17
REMARK                            x       y       z     vdW  Elec       q    Type
REMARK                         _______ _______ _______ _____ _____    ______ ____
ROOT
ATOM      1  S   UNL     1       2.025   7.717  19.526  0.00  0.00    +0.000 S 
ENDROOT
BRANCH   1   2
ATOM      2  C   UNL     1       3.214   6.567  19.000  0.00  0.00    +0.000 A 
ATOM      3  N   UNL     1       3.639   5.501  19.639  0.00  0.00    +0.000 NA
ATOM      4  N   UNL     1       4.561   4.884  18.799  0.00  0.00    +0.000 NA
ATOM      5  C   UNL     1       4.650   5.602  17.681  0.00  0.00    +0.000 A 
ATOM      6  O   UNL     1       3.808   6.694  17.781  0.00  0.00    +0.000 OA
BRANCH   5   7
ATOM      7  C   UNL     1       5.440   5.330  16.516  0.00  0.00    +0.000 A 
ATOM      8  C   UNL     1       4.950   4.577  15.511  0.00  0.00    +0.000 A 
ATOM      9  C   UNL     1       5.735   4.347  14.304  0.00  0.00    +0.000 A 
ATOM     10  C   UNL     1       5.277   3.559  13.244  0.00  0.00    +0.000 A 
ATOM     11  C   UNL     1       6.064   3.395  12.095  0.00  0.00    +0.000 A 
ATOM     12  C   UNL     1       7.308   4.021  11.997  0.00  0.00    +0.000 A 
ATOM     13  C   UNL     1       7.773   4.803  13.049  0.00  0.00    +0.000 A 
ATOM     14  C   UNL     1       6.981   4.950  14.187  0.00  0.00    +0.000 A 
ATOM     15  O   UNL     1       7.498   5.730  15.230  0.00  0.00    +0.000 OA
ATOM     16  C   UNL     1       6.810   5.916  16.424  0.00  0.00    +0.000 A 
ATOM     17  O   UNL     1       7.327   6.554  17.332  0.00  0.00    +0.000 OA
ENDBRANCH   5   7
ENDBRANCH   1   2
BRANCH   1  18
ATOM     18  C   UNL     1       1.687   8.701  18.047  0.00  0.00    +0.000 C 
BRANCH  18  27
ATOM     19  C   UNL     1       0.710  18.256  20.259  0.00  0.00    +0.000 C 
ATOM     20  C   UNL     1       1.251  17.010  19.619  0.00  0.00    +0.000 A 
ATOM     21  C   UNL     1       2.261  17.068  18.657  0.00  0.00    +0.000 A 
ATOM     22  C   UNL     1       2.764  15.895  18.069  0.00  0.00    +0.000 A 
ATOM     23  C   UNL     1       2.241  14.638  18.439  0.00  0.00    +0.000 A 
ATOM     24  N   UNL     1       2.634  13.394  17.951  0.00  0.00    +0.000 NA
ATOM     25  C   UNL     1       1.881  12.453  18.477  0.00  0.00    +0.000 A 
ATOM     26  N   UNL     1       2.049  11.125  18.154  0.00  0.00    +0.000 N 
ATOM     27  C   UNL     1       1.186  10.087  18.463  0.00  0.00    +0.000 C 
ATOM     28  O   UNL     1       0.073  10.205  18.971  0.00  0.00    +0.000 OA
ATOM     29  S   UNL     1       0.747  12.970  19.635  0.00  0.00    +0.000 S 
ATOM     30  C   UNL     1       1.222  14.602  19.391  0.00  0.00    +0.000 A 
ATOM     31  C   UNL     1       0.724  15.767  19.998  0.00  0.00    +0.000 A 
ATOM     32  H   UNL     1       2.861  10.955  17.577  0.00  0.00    +0.000 HD
ENDBRANCH  18  27
ENDBRANCH   1  18
TORSDOF 4
ENDMDL
MODEL 7
REMARK VINA RESULT:      -8.2      7.444     10.952
REMARK  Name = 
REMARK  5 active torsions:
REMARK  status: ('A' for Active; 'I' for Inactive)
REMARK    1  A    between atoms: C_1  and  C_2
REMARK    2  A    between atoms: C_9  and  C_11
REMARK    3  A    between atoms: C_11  and  S_12
REMARK    4  A    between atoms: S_12  and  C_13
REMARK    5  A    between atoms: C_16  and  C_17
REMARK                            x       y       z     vdW  Elec       q    Type
REMARK                         _______ _______ _______ _____ _____    ______ ____
ROOT
ATOM      1  S   UNL     1       6.976   5.087  17.238  0.00  0.00    +0.000 S 
ENDROOT
BRANCH   1   2
ATOM      2  C   UNL     1       5.275   5.311  17.501  0.00  0.00    +0.000 A 
ATOM      3  N   UNL     1       4.293   4.527  17.120  0.00  0.00    +0.000 NA
ATOM      4  N   UNL     1       3.121   5.109  17.593  0.00  0.00    +0.000 NA
ATOM      5  C   UNL     1       3.446   6.222  18.248  0.00  0.00    +0.000 A 
ATOM      6  O   UNL     1       4.818   6.388  18.199  0.00  0.00    +0.000 OA
BRANCH   5   7
ATOM      7  C   UNL     1       2.576   7.128  18.939  0.00  0.00    +0.000 A 
ATOM      8  C   UNL     1       2.257   8.322  18.402  0.00  0.00    +0.000 A 
ATOM      9  C   UNL     1       1.330   9.219  19.083  0.00  0.00    +0.000 A 
ATOM     10  C   UNL     1       0.982  10.474  18.574  0.00  0.00    +0.000 A 
ATOM     11  C   UNL     1       0.064  11.283  19.258  0.00  0.00    +0.000 A 
ATOM     12  C   UNL     1      -0.516  10.841  20.450  0.00  0.00    +0.000 A 
ATOM     13  C   UNL     1      -0.172   9.595  20.965  0.00  0.00    +0.000 A 
ATOM     14  C   UNL     1       0.748   8.807  20.275  0.00  0.00    +0.000 A 
ATOM     15  O   UNL     1       1.080   7.568  20.841  0.00  0.00    +0.000 OA
ATOM     16  C   UNL     1       2.011   6.716  20.259  0.00  0.00    +0.000 A 
ATOM     17  O   UNL     1       2.317   5.672  20.820  0.00  0.00    +0.000 OA
ENDBRANCH   5   7
ENDBRANCH   1   2
BRANCH   1  18
ATOM     18  C   UNL     1       7.750   6.016  18.583  0.00  0.00    +0.000 C 
BRANCH  18  27
ATOM     19  C   UNL     1      10.037  15.576  17.867  0.00  0.00    +0.000 C 
ATOM     20  C   UNL     1      10.002  14.177  18.411  0.00  0.00    +0.000 A 
ATOM     21  C   UNL     1      10.760  13.811  19.524  0.00  0.00    +0.000 A 
ATOM     22  C   UNL     1      10.714  12.500  20.028  0.00  0.00    +0.000 A 
ATOM     23  C   UNL     1       9.904  11.529  19.401  0.00  0.00    +0.000 A 
ATOM     24  N   UNL     1       9.751  10.198  19.781  0.00  0.00    +0.000 NA
ATOM     25  C   UNL     1       8.968   9.580  18.924  0.00  0.00    +0.000 A 
ATOM     26  N   UNL     1       8.660   8.244  19.058  0.00  0.00    +0.000 N 
ATOM     27  C   UNL     1       8.042   7.443  18.113  0.00  0.00    +0.000 C 
ATOM     28  O   UNL     1       7.778   7.769  16.957  0.00  0.00    +0.000 OA
ATOM     29  S   UNL     1       8.300  10.548  17.695  0.00  0.00    +0.000 S 
ATOM     30  C   UNL     1       9.165  11.911  18.281  0.00  0.00    +0.000 A 
ATOM     31  C   UNL     1       9.190  13.223  17.779  0.00  0.00    +0.000 A 
ATOM     32  H   UNL     1       9.000   7.841  19.920  0.00  0.00    +0.000 HD
ENDBRANCH  18  27
ENDBRANCH   1  18
TORSDOF 4
ENDMDL
MODEL 8
REMARK VINA RESULT:      -8.2      5.723      7.988
REMARK  Name = 
REMARK  5 active torsions:
REMARK  status: ('A' for Active; 'I' for Inactive)
REMARK    1  A    between atoms: C_1  and  C_2
REMARK    2  A    between atoms: C_9  and  C_11
REMARK    3  A    between atoms: C_11  and  S_12
REMARK    4  A    between atoms: S_12  and  C_13
REMARK    5  A    between atoms: C_16  and  C_17
REMARK                            x       y       z     vdW  Elec       q    Type
REMARK                         _______ _______ _______ _____ _____    ______ ____
ROOT
ATOM      1  S   UNL     1       2.158   6.813  19.951  0.00  0.00    +0.000 S 
ENDROOT
BRANCH   1   2
ATOM      2  C   UNL     1       3.491   5.910  19.302  0.00  0.00    +0.000 A 
ATOM      3  N   UNL     1       4.171   4.950  19.886  0.00  0.00    +0.000 NA
ATOM      4  N   UNL     1       5.112   4.516  18.957  0.00  0.00    +0.000 NA
ATOM      5  C   UNL     1       4.956   5.231  17.844  0.00  0.00    +0.000 A 
ATOM      6  O   UNL     1       3.933   6.142  18.034  0.00  0.00    +0.000 OA
BRANCH   5   7
ATOM      7  C   UNL     1       5.670   5.110  16.607  0.00  0.00    +0.000 A 
ATOM      8  C   UNL     1       5.187   4.352  15.603  0.00  0.00    +0.000 A 
ATOM      9  C   UNL     1       5.888   4.273  14.327  0.00  0.00    +0.000 A 
ATOM     10  C   UNL     1       5.435   3.486  13.264  0.00  0.00    +0.000 A 
ATOM     11  C   UNL     1       6.136   3.471  12.049  0.00  0.00    +0.000 A 
ATOM     12  C   UNL     1       7.289   4.243  11.889  0.00  0.00    +0.000 A 
ATOM     13  C   UNL     1       7.748   5.025  12.944  0.00  0.00    +0.000 A 
ATOM     14  C   UNL     1       7.043   5.024  14.147  0.00  0.00    +0.000 A 
ATOM     15  O   UNL     1       7.553   5.810  15.188  0.00  0.00    +0.000 OA
ATOM     16  C   UNL     1       6.952   5.857  16.441  0.00  0.00    +0.000 A 
ATOM     17  O   UNL     1       7.468   6.509  17.340  0.00  0.00    +0.000 OA
ENDBRANCH   5   7
ENDBRANCH   1   2
BRANCH   1  18
ATOM     18  C   UNL     1       2.165   8.347  18.994  0.00  0.00    +0.000 C 
BRANCH  18  27
ATOM     19  C   UNL     1      -6.214  13.521  18.582  0.00  0.00    +0.000 C 
ATOM     20  C   UNL     1      -5.128  12.570  18.168  0.00  0.00    +0.000 A 
ATOM     21  C   UNL     1      -5.229  11.817  16.997  0.00  0.00    +0.000 A 
ATOM     22  C   UNL     1      -4.205  10.934  16.617  0.00  0.00    +0.000 A 
ATOM     23  C   UNL     1      -3.059  10.789  17.428  0.00  0.00    +0.000 A 
ATOM     24  N   UNL     1      -1.965   9.963  17.186  0.00  0.00    +0.000 NA
ATOM     25  C   UNL     1      -1.119  10.041  18.190  0.00  0.00    +0.000 A 
ATOM     26  N   UNL     1       0.049   9.311  18.214  0.00  0.00    +0.000 N 
ATOM     27  C   UNL     1       0.892   9.141  19.298  0.00  0.00    +0.000 C 
ATOM     28  O   UNL     1       0.669   9.517  20.447  0.00  0.00    +0.000 OA
ATOM     29  S   UNL     1      -1.519  11.156  19.412  0.00  0.00    +0.000 S 
ATOM     30  C   UNL     1      -2.983  11.539  18.602  0.00  0.00    +0.000 A 
ATOM     31  C   UNL     1      -3.994  12.437  18.983  0.00  0.00    +0.000 A 
ATOM     32  H   UNL     1       0.226   8.817  17.350  0.00  0.00    +0.000 HD
ENDBRANCH  18  27
ENDBRANCH   1  18
TORSDOF 4
ENDMDL
MODEL 9
REMARK VINA RESULT:      -8.0      5.475      8.476
REMARK  Name = 
REMARK  5 active torsions:
REMARK  status: ('A' for Active; 'I' for Inactive)
REMARK    1  A    between atoms: C_1  and  C_2
REMARK    2  A    between atoms: C_9  and  C_11
REMARK    3  A    between atoms: C_11  and  S_12
REMARK    4  A    between atoms: S_12  and  C_13
REMARK    5  A    between atoms: C_16  and  C_17
REMARK                            x       y       z     vdW  Elec       q    Type
REMARK                         _______ _______ _______ _____ _____    ______ ____
ROOT
ATOM      1  S   UNL     1       1.857   8.127  19.274  0.00  0.00    +0.000 S 
ENDROOT
BRANCH   1   2
ATOM      2  C   UNL     1       2.924   6.849  18.781  0.00  0.00    +0.000 A 
ATOM      3  N   UNL     1       3.124   5.695  19.375  0.00  0.00    +0.000 NA
ATOM      4  N   UNL     1       4.037   5.002  18.587  0.00  0.00    +0.000 NA
ATOM      5  C   UNL     1       4.347   5.767  17.542  0.00  0.00    +0.000 A 
ATOM      6  O   UNL     1       3.660   6.963  17.641  0.00  0.00    +0.000 OA
BRANCH   5   7
ATOM      7  C   UNL     1       5.215   5.455  16.443  0.00  0.00    +0.000 A 
ATOM      8  C   UNL     1       4.788   4.681  15.426  0.00  0.00    +0.000 A 
ATOM      9  C   UNL     1       5.653   4.410  14.285  0.00  0.00    +0.000 A 
ATOM     10  C   UNL     1       5.262   3.598  13.216  0.00  0.00    +0.000 A 
ATOM     11  C   UNL     1       6.127   3.395  12.131  0.00  0.00    +0.000 A 
ATOM     12  C   UNL     1       7.383   4.003  12.106  0.00  0.00    +0.000 A 
ATOM     13  C   UNL     1       7.782   4.808  13.168  0.00  0.00    +0.000 A 
ATOM     14  C   UNL     1       6.913   4.995  14.242  0.00  0.00    +0.000 A 
ATOM     15  O   UNL     1       7.364   5.797  15.298  0.00  0.00    +0.000 OA
ATOM     16  C   UNL     1       6.596   6.023  16.435  0.00  0.00    +0.000 A 
ATOM     17  O   UNL     1       7.055   6.679  17.361  0.00  0.00    +0.000 OA
ENDBRANCH   5   7
ENDBRANCH   1   2
BRANCH   1  18
ATOM     18  C   UNL     1       1.411   7.693  20.971  0.00  0.00    +0.000 C 
BRANCH  18  27
ATOM     19  C   UNL     1      -3.357  15.659  24.280  0.00  0.00    +0.000 C 
ATOM     20  C   UNL     1      -2.332  14.835  23.554  0.00  0.00    +0.000 A 
ATOM     21  C   UNL     1      -1.365  15.430  22.742  0.00  0.00    +0.000 A 
ATOM     22  C   UNL     1      -0.408  14.649  22.072  0.00  0.00    +0.000 A 
ATOM     23  C   UNL     1      -0.422  13.244  22.206  0.00  0.00    +0.000 A 
ATOM     24  N   UNL     1       0.456  12.341  21.612  0.00  0.00    +0.000 NA
ATOM     25  C   UNL     1       0.097  11.112  21.911  0.00  0.00    +0.000 A 
ATOM     26  N   UNL     1       0.791  10.019  21.440  0.00  0.00    +0.000 N 
ATOM     27  C   UNL     1       0.384   8.697  21.499  0.00  0.00    +0.000 C 
ATOM     28  O   UNL     1      -0.717   8.301  21.876  0.00  0.00    +0.000 OA
ATOM     29  S   UNL     1      -1.221  10.961  22.976  0.00  0.00    +0.000 S 
ATOM     30  C   UNL     1      -1.405  12.668  23.010  0.00  0.00    +0.000 A 
ATOM     31  C   UNL     1      -2.357  13.440  23.698  0.00  0.00    +0.000 A 
ATOM     32  H   UNL     1       1.640  10.267  20.952  0.00  0.00    +0.000 HD
ENDBRANCH  18  27
ENDBRANCH   1  18
TORSDOF 4
ENDMDL
