MODEL 1
REMARK VINA RESULT:      -9.3      0.000      0.000
REMARK  Name = 
REMARK  8 active torsions:
REMARK  status: ('A' for Active; 'I' for Inactive)
REMARK    1  A    between atoms: C_1  and  C_2
REMARK    2  A    between atoms: C_2  and  C_3
REMARK    3  A    between atoms: C_4  and  N_5
REMARK    4  A    between atoms: N_5  and  C_6
REMARK    5  A    between atoms: C_7  and  C_8
REMARK    6  A    between atoms: C_15  and  C_16
REMARK    7  A    between atoms: C_27  and  C_28
REMARK    8  A    between atoms: C_27  and  N_29
REMARK                            x       y       z     vdW  Elec       q    Type
REMARK                         _______ _______ _______ _____ _____    ______ ____
ROOT
ATOM      1  C   UNL     1       4.315   3.505  19.695  0.00  0.00    +0.000 A 
ATOM      2  C   UNL     1       4.117   2.454  20.534  0.00  0.00    +0.000 A 
ATOM      3  C   UNL     1       2.827   2.434  21.288  0.00  0.00    +0.000 A 
ATOM      4  N   UNL     1       1.937   3.367  21.348  0.00  0.00    +0.000 NA
ATOM      5  N   UNL     1       2.276   4.452  20.638  0.00  0.00    +0.000 N 
ATOM      6  C   UNL     1       1.552   5.611  20.682  0.00  0.00    +0.000 A 
ATOM      7  C   UNL     1       2.192   6.572  19.934  0.00  0.00    +0.000 A 
ATOM      8  C   UNL     1       3.325   5.917  19.337  0.00  0.00    +0.000 A 
ATOM      9  C   UNL     1       3.382   4.610  19.817  0.00  0.00    +0.000 A 
ENDROOT
BRANCH   7  10
ATOM     10  C   UNL     1       1.698   7.942  19.855  0.00  0.00    +0.000 A 
ATOM     11  C   UNL     1       1.870   8.696  18.681  0.00  0.00    +0.000 A 
ATOM     12  C   UNL     1       1.437  10.019  18.597  0.00  0.00    +0.000 A 
ATOM     13  C   UNL     1       0.827  10.615  19.702  0.00  0.00    +0.000 A 
ATOM     14  C   UNL     1       0.644   9.871  20.870  0.00  0.00    +0.000 A 
ATOM     15 CL   UNL     1      -0.105  10.608  22.233  0.00  0.00    +0.000 Cl
ATOM     16  C   UNL     1       1.069   8.541  20.950  0.00  0.00    +0.000 A 
ENDBRANCH   7  10
BRANCH   2  17
ATOM     17  C   UNL     1       5.027   1.305  20.832  0.00  0.00    +0.000 C 
ATOM     18  N   UNL     1       5.228   0.384  19.860  0.00  0.00    +0.000 N 
ATOM     19  O   UNL     1       5.649   1.229  21.883  0.00  0.00    +0.000 OA
ATOM     20  H   UNL     1       4.703   0.406  18.995  0.00  0.00    +0.000 HD
ATOM     21  H   UNL     1       5.907  -0.344  20.038  0.00  0.00    +0.000 HD
ENDBRANCH   2  17
BRANCH   1  22
ATOM     22  N   UNL     1       5.431   3.638  18.821  0.00  0.00    +0.000 N 
ATOM     23  H   UNL     1       6.125   4.197  19.327  0.00  0.00    +0.000 HD
BRANCH  22  27
ATOM     24  C   UNL     1       6.538   6.531  17.812  0.00  0.00    +0.000 C 
ATOM     25  C   UNL     1       6.473   5.192  17.056  0.00  0.00    +0.000 C 
ATOM     26  C   UNL     1       7.820   4.471  17.330  0.00  0.00    +0.000 C 
ATOM     27  C   UNL     1       5.262   4.298  17.492  0.00  0.00    +0.000 C 
ATOM     28  C   UNL     1       5.187   3.284  16.348  0.00  0.00    +0.000 C 
ATOM     29  C   UNL     1       5.413   4.110  15.081  0.00  0.00    +0.000 C 
ATOM     30  C   UNL     1       6.196   5.379  15.505  0.00  0.00    +0.000 C 
ATOM     31  C   UNL     1       5.339   6.617  15.154  0.00  0.00    +0.000 C 
BRANCH  30  32
ATOM     32  N   UNL     1       7.404   5.543  14.690  0.00  0.00    +0.000 NA
ATOM     33  H   UNL     1       7.654   4.673  14.223  0.00  0.00    +0.000 HD
ATOM     34  H   UNL     1       8.200   5.799  15.275  0.00  0.00    +0.000 HD
ENDBRANCH  30  32
ENDBRANCH  22  27
ENDBRANCH   1  22
TORSDOF 5
ENDMDL
MODEL 2
REMARK VINA RESULT:      -8.8      1.060      1.461
REMARK  Name = 
REMARK  8 active torsions:
REMARK  status: ('A' for Active; 'I' for Inactive)
REMARK    1  A    between atoms: C_1  and  C_2
REMARK    2  A    between atoms: C_2  and  C_3
REMARK    3  A    between atoms: C_4  and  N_5
REMARK    4  A    between atoms: N_5  and  C_6
REMARK    5  A    between atoms: C_7  and  C_8
REMARK    6  A    between atoms: C_15  and  C_16
REMARK    7  A    between atoms: C_27  and  C_28
REMARK    8  A    between atoms: C_27  and  N_29
REMARK                            x       y       z     vdW  Elec       q    Type
REMARK                         _______ _______ _______ _____ _____    ______ ____
ROOT
ATOM      1  C   UNL     1       3.869   4.192  19.638  0.00  0.00    +0.000 A 
ATOM      2  C   UNL     1       3.602   2.951  20.125  0.00  0.00    +0.000 A 
ATOM      3  C   UNL     1       2.238   2.736  20.695  0.00  0.00    +0.000 A 
ATOM      4  N   UNL     1       1.327   3.624  20.912  0.00  0.00    +0.000 NA
ATOM      5  N   UNL     1       1.720   4.861  20.573  0.00  0.00    +0.000 N 
ATOM      6  C   UNL     1       0.971   5.970  20.856  0.00  0.00    +0.000 A 
ATOM      7  C   UNL     1       1.668   7.094  20.481  0.00  0.00    +0.000 A 
ATOM      8  C   UNL     1       2.874   6.619  19.856  0.00  0.00    +0.000 A 
ATOM      9  C   UNL     1       2.905   5.230  19.958  0.00  0.00    +0.000 A 
ENDROOT
BRANCH   7  10
ATOM     10  C   UNL     1       1.157   8.437  20.731  0.00  0.00    +0.000 A 
ATOM     11  C   UNL     1       0.677   8.793  22.004  0.00  0.00    +0.000 A 
ATOM     12  C   UNL     1       0.151  10.059  22.253  0.00  0.00    +0.000 A 
ATOM     13  C   UNL     1       0.089  10.995  21.219  0.00  0.00    +0.000 A 
ATOM     14  C   UNL     1       0.571  10.654  19.954  0.00  0.00    +0.000 A 
ATOM     15 CL   UNL     1       0.491  11.807  18.679  0.00  0.00    +0.000 Cl
ATOM     16  C   UNL     1       1.109   9.387  19.707  0.00  0.00    +0.000 A 
ENDBRANCH   7  10
BRANCH   2  17
ATOM     17  C   UNL     1       4.498   1.756  20.192  0.00  0.00    +0.000 C 
ATOM     18  N   UNL     1       4.507   0.907  19.137  0.00  0.00    +0.000 N 
ATOM     19  O   UNL     1       5.271   1.580  21.124  0.00  0.00    +0.000 OA
ATOM     20  H   UNL     1       3.856   1.012  18.370  0.00  0.00    +0.000 HD
ATOM     21  H   UNL     1       5.174   0.147  19.153  0.00  0.00    +0.000 HD
ENDBRANCH   2  17
BRANCH   1  22
ATOM     22  N   UNL     1       5.072   4.552  18.966  0.00  0.00    +0.000 N 
ATOM     23  H   UNL     1       5.434   5.378  19.452  0.00  0.00    +0.000 HD
BRANCH  22  27
ATOM     24  C   UNL     1       6.563   7.001  17.419  0.00  0.00    +0.000 C 
ATOM     25  C   UNL     1       6.363   5.542  16.974  0.00  0.00    +0.000 C 
ATOM     26  C   UNL     1       7.600   4.756  17.487  0.00  0.00    +0.000 C 
ATOM     27  C   UNL     1       5.036   4.909  17.517  0.00  0.00    +0.000 C 
ATOM     28  C   UNL     1       4.881   3.678  16.621  0.00  0.00    +0.000 C 
ATOM     29  C   UNL     1       5.255   4.166  15.220  0.00  0.00    +0.000 C 
ATOM     30  C   UNL     1       6.171   5.403  15.405  0.00  0.00    +0.000 C 
ATOM     31  C   UNL     1       5.486   6.617  14.736  0.00  0.00    +0.000 C 
BRANCH  30  32
ATOM     32  N   UNL     1       7.421   5.244  14.654  0.00  0.00    +0.000 NA
ATOM     33  H   UNL     1       7.790   4.299  14.751  0.00  0.00    +0.000 HD
ATOM     34  H   UNL     1       8.137   5.876  15.011  0.00  0.00    +0.000 HD
ENDBRANCH  30  32
ENDBRANCH  22  27
ENDBRANCH   1  22
TORSDOF 5
ENDMDL
MODEL 3
REMARK VINA RESULT:      -8.3      3.824      7.872
REMARK  Name = 
REMARK  8 active torsions:
REMARK  status: ('A' for Active; 'I' for Inactive)
REMARK    1  A    between atoms: C_1  and  C_2
REMARK    2  A    between atoms: C_2  and  C_3
REMARK    3  A    between atoms: C_4  and  N_5
REMARK    4  A    between atoms: N_5  and  C_6
REMARK    5  A    between atoms: C_7  and  C_8
REMARK    6  A    between atoms: C_15  and  C_16
REMARK    7  A    between atoms: C_27  and  C_28
REMARK    8  A    between atoms: C_27  and  N_29
REMARK                            x       y       z     vdW  Elec       q    Type
REMARK                         _______ _______ _______ _____ _____    ______ ____
ROOT
ATOM      1  C   UNL     1       6.310   4.688  17.704  0.00  0.00    +0.000 A 
ATOM      2  C   UNL     1       7.200   5.630  18.118  0.00  0.00    +0.000 A 
ATOM      3  C   UNL     1       7.703   6.576  17.077  0.00  0.00    +0.000 A 
ATOM      4  N   UNL     1       7.506   6.521  15.803  0.00  0.00    +0.000 NA
ATOM      5  N   UNL     1       6.765   5.465  15.440  0.00  0.00    +0.000 N 
ATOM      6  C   UNL     1       6.560   5.131  14.129  0.00  0.00    +0.000 A 
ATOM      7  C   UNL     1       5.850   3.955  14.068  0.00  0.00    +0.000 A 
ATOM      8  C   UNL     1       5.538   3.612  15.430  0.00  0.00    +0.000 A 
ATOM      9  C   UNL     1       6.149   4.542  16.269  0.00  0.00    +0.000 A 
ENDROOT
BRANCH   7  10
ATOM     10  C   UNL     1       5.546   3.304  12.799  0.00  0.00    +0.000 A 
ATOM     11  C   UNL     1       6.360   2.263  12.317  0.00  0.00    +0.000 A 
ATOM     12  C   UNL     1       6.108   1.652  11.090  0.00  0.00    +0.000 A 
ATOM     13  C   UNL     1       5.030   2.084  10.314  0.00  0.00    +0.000 A 
ATOM     14  C   UNL     1       4.211   3.111  10.789  0.00  0.00    +0.000 A 
ATOM     15 CL   UNL     1       2.885   3.645   9.830  0.00  0.00    +0.000 Cl
ATOM     16  C   UNL     1       4.458   3.716  12.025  0.00  0.00    +0.000 A 
ENDBRANCH   7  10
BRANCH   2  17
ATOM     17  C   UNL     1       7.771   5.846  19.483  0.00  0.00    +0.000 C 
ATOM     18  N   UNL     1       8.583   6.914  19.671  0.00  0.00    +0.000 N 
ATOM     19  O   UNL     1       7.458   5.142  20.433  0.00  0.00    +0.000 OA
ATOM     20  H   UNL     1       8.883   7.492  18.897  0.00  0.00    +0.000 HD
ATOM     21  H   UNL     1       8.900   7.100  20.613  0.00  0.00    +0.000 HD
ENDBRANCH   2  17
BRANCH   1  22
ATOM     22  N   UNL     1       5.646   3.773  18.570  0.00  0.00    +0.000 N 
ATOM     23  H   UNL     1       5.836   2.837  18.196  0.00  0.00    +0.000 HD
BRANCH  22  27
ATOM     24  C   UNL     1       3.436   1.381  18.473  0.00  0.00    +0.000 C 
ATOM     25  C   UNL     1       3.525   2.592  19.418  0.00  0.00    +0.000 C 
ATOM     26  C   UNL     1       4.364   2.131  20.640  0.00  0.00    +0.000 C 
ATOM     27  C   UNL     1       4.165   3.853  18.743  0.00  0.00    +0.000 C 
ATOM     28  C   UNL     1       3.756   4.970  19.706  0.00  0.00    +0.000 C 
ATOM     29  C   UNL     1       2.302   4.661  20.066  0.00  0.00    +0.000 C 
ATOM     30  C   UNL     1       2.098   3.140  19.843  0.00  0.00    +0.000 C 
ATOM     31  C   UNL     1       0.997   2.952  18.772  0.00  0.00    +0.000 C 
BRANCH  30  32
ATOM     32  N   UNL     1       1.538   2.508  21.041  0.00  0.00    +0.000 NA
ATOM     33  H   UNL     1       0.717   3.012  21.374  0.00  0.00    +0.000 HD
ATOM     34  H   UNL     1       2.216   2.518  21.802  0.00  0.00    +0.000 HD
ENDBRANCH  30  32
ENDBRANCH  22  27
ENDBRANCH   1  22
TORSDOF 5
ENDMDL
MODEL 4
REMARK VINA RESULT:      -8.3      1.095      1.670
REMARK  Name = 
REMARK  8 active torsions:
REMARK  status: ('A' for Active; 'I' for Inactive)
REMARK    1  A    between atoms: C_1  and  C_2
REMARK    2  A    between atoms: C_2  and  C_3
REMARK    3  A    between atoms: C_4  and  N_5
REMARK    4  A    between atoms: N_5  and  C_6
REMARK    5  A    between atoms: C_7  and  C_8
REMARK    6  A    between atoms: C_15  and  C_16
REMARK    7  A    between atoms: C_27  and  C_28
REMARK    8  A    between atoms: C_27  and  N_29
REMARK                            x       y       z     vdW  Elec       q    Type
REMARK                         _______ _______ _______ _____ _____    ______ ____
ROOT
ATOM      1  C   UNL     1       4.000   4.262  19.763  0.00  0.00    +0.000 A 
ATOM      2  C   UNL     1       3.664   2.988  20.100  0.00  0.00    +0.000 A 
ATOM      3  C   UNL     1       2.215   2.724  20.352  0.00  0.00    +0.000 A 
ATOM      4  N   UNL     1       1.260   3.588  20.428  0.00  0.00    +0.000 NA
ATOM      5  N   UNL     1       1.688   4.848  20.262  0.00  0.00    +0.000 N 
ATOM      6  C   UNL     1       0.872   5.929  20.452  0.00  0.00    +0.000 A 
ATOM      7  C   UNL     1       1.608   7.082  20.308  0.00  0.00    +0.000 A 
ATOM      8  C   UNL     1       2.928   6.660  19.923  0.00  0.00    +0.000 A 
ATOM      9  C   UNL     1       2.968   5.267  19.938  0.00  0.00    +0.000 A 
ENDROOT
BRANCH   7  10
ATOM     10  C   UNL     1       1.026   8.400  20.531  0.00  0.00    +0.000 A 
ATOM     11  C   UNL     1       1.189   9.423  19.580  0.00  0.00    +0.000 A 
ATOM     12  C   UNL     1       0.672  10.700  19.790  0.00  0.00    +0.000 A 
ATOM     13  C   UNL     1      -0.016  10.978  20.973  0.00  0.00    +0.000 A 
ATOM     14  C   UNL     1      -0.191   9.966  21.920  0.00  0.00    +0.000 A 
ATOM     15 CL   UNL     1      -1.036  10.311  23.379  0.00  0.00    +0.000 Cl
ATOM     16  C   UNL     1       0.319   8.682  21.703  0.00  0.00    +0.000 A 
ENDBRANCH   7  10
BRANCH   2  17
ATOM     17  C   UNL     1       4.552   1.798  20.277  0.00  0.00    +0.000 C 
ATOM     18  N   UNL     1       4.592   0.880  19.281  0.00  0.00    +0.000 N 
ATOM     19  O   UNL     1       5.292   1.682  21.243  0.00  0.00    +0.000 OA
ATOM     20  H   UNL     1       3.968   0.935  18.487  0.00  0.00    +0.000 HD
ATOM     21  H   UNL     1       5.255   0.121  19.370  0.00  0.00    +0.000 HD
ENDBRANCH   2  17
BRANCH   1  22
ATOM     22  N   UNL     1       5.309   4.675  19.386  0.00  0.00    +0.000 N 
ATOM     23  H   UNL     1       5.302   5.700  19.410  0.00  0.00    +0.000 HD
BRANCH  22  27
ATOM     24  C   UNL     1       3.760   4.466  16.528  0.00  0.00    +0.000 C 
ATOM     25  C   UNL     1       5.160   5.023  16.843  0.00  0.00    +0.000 C 
ATOM     26  C   UNL     1       4.971   6.535  17.139  0.00  0.00    +0.000 C 
ATOM     27  C   UNL     1       5.853   4.299  18.047  0.00  0.00    +0.000 C 
ATOM     28  C   UNL     1       7.313   4.725  17.876  0.00  0.00    +0.000 C 
ATOM     29  C   UNL     1       7.572   4.630  16.372  0.00  0.00    +0.000 C 
ATOM     30  C   UNL     1       6.197   4.766  15.669  0.00  0.00    +0.000 C 
ATOM     31  C   UNL     1       5.937   3.474  14.860  0.00  0.00    +0.000 C 
BRANCH  30  32
ATOM     32  N   UNL     1       6.232   5.820  14.651  0.00  0.00    +0.000 NA
ATOM     33  H   UNL     1       6.657   5.484  13.788  0.00  0.00    +0.000 HD
ATOM     34  H   UNL     1       6.798   6.607  14.969  0.00  0.00    +0.000 HD
ENDBRANCH  30  32
ENDBRANCH  22  27
ENDBRANCH   1  22
TORSDOF 5
ENDMDL
MODEL 5
REMARK VINA RESULT:      -8.3      1.302      2.072
REMARK  Name = 
REMARK  8 active torsions:
REMARK  status: ('A' for Active; 'I' for Inactive)
REMARK    1  A    between atoms: C_1  and  C_2
REMARK    2  A    between atoms: C_2  and  C_3
REMARK    3  A    between atoms: C_4  and  N_5
REMARK    4  A    between atoms: N_5  and  C_6
REMARK    5  A    between atoms: C_7  and  C_8
REMARK    6  A    between atoms: C_15  and  C_16
REMARK    7  A    between atoms: C_27  and  C_28
REMARK    8  A    between atoms: C_27  and  N_29
REMARK                            x       y       z     vdW  Elec       q    Type
REMARK                         _______ _______ _______ _____ _____    ______ ____
ROOT
ATOM      1  C   UNL     1       3.941   4.307  19.765  0.00  0.00    +0.000 A 
ATOM      2  C   UNL     1       3.597   3.014  20.010  0.00  0.00    +0.000 A 
ATOM      3  C   UNL     1       2.148   2.742  20.249  0.00  0.00    +0.000 A 
ATOM      4  N   UNL     1       1.199   3.605  20.392  0.00  0.00    +0.000 NA
ATOM      5  N   UNL     1       1.635   4.870  20.316  0.00  0.00    +0.000 N 
ATOM      6  C   UNL     1       0.827   5.940  20.588  0.00  0.00    +0.000 A 
ATOM      7  C   UNL     1       1.571   7.095  20.525  0.00  0.00    +0.000 A 
ATOM      8  C   UNL     1       2.886   6.695  20.104  0.00  0.00    +0.000 A 
ATOM      9  C   UNL     1       2.917   5.304  20.017  0.00  0.00    +0.000 A 
ENDROOT
BRANCH   7  10
ATOM     10  C   UNL     1       0.999   8.398  20.846  0.00  0.00    +0.000 A 
ATOM     11  C   UNL     1       0.479   8.653  22.128  0.00  0.00    +0.000 A 
ATOM     12  C   UNL     1      -0.104   9.879  22.443  0.00  0.00    +0.000 A 
ATOM     13  C   UNL     1      -0.185  10.875  21.468  0.00  0.00    +0.000 A 
ATOM     14  C   UNL     1       0.336  10.634  20.195  0.00  0.00    +0.000 A 
ATOM     15 CL   UNL     1       0.232  11.861  18.993  0.00  0.00    +0.000 Cl
ATOM     16  C   UNL     1       0.930   9.408  19.882  0.00  0.00    +0.000 A 
ENDBRANCH   7  10
BRANCH   2  17
ATOM     17  C   UNL     1       4.478   1.809  20.096  0.00  0.00    +0.000 C 
ATOM     18  N   UNL     1       4.455   0.930  19.065  0.00  0.00    +0.000 N 
ATOM     19  O   UNL     1       5.265   1.648  21.018  0.00  0.00    +0.000 OA
ATOM     20  H   UNL     1       3.792   1.022  18.307  0.00  0.00    +0.000 HD
ATOM     21  H   UNL     1       5.112   0.161  19.092  0.00  0.00    +0.000 HD
ENDBRANCH   2  17
BRANCH   1  22
ATOM     22  N   UNL     1       5.252   4.739  19.413  0.00  0.00    +0.000 N 
ATOM     23  H   UNL     1       5.229   5.763  19.432  0.00  0.00    +0.000 HD
BRANCH  22  27
ATOM     24  C   UNL     1       3.750   4.418  16.540  0.00  0.00    +0.000 C 
ATOM     25  C   UNL     1       5.121   5.039  16.863  0.00  0.00    +0.000 C 
ATOM     26  C   UNL     1       4.864   6.546  17.132  0.00  0.00    +0.000 C 
ATOM     27  C   UNL     1       5.828   4.365  18.088  0.00  0.00    +0.000 C 
ATOM     28  C   UNL     1       7.271   4.849  17.927  0.00  0.00    +0.000 C 
ATOM     29  C   UNL     1       7.554   4.741  16.428  0.00  0.00    +0.000 C 
ATOM     30  C   UNL     1       6.183   4.807  15.707  0.00  0.00    +0.000 C 
ATOM     31  C   UNL     1       5.989   3.493  14.915  0.00  0.00    +0.000 C 
BRANCH  30  32
ATOM     32  N   UNL     1       6.188   5.846  14.672  0.00  0.00    +0.000 NA
ATOM     33  H   UNL     1       5.242   6.055  14.357  0.00  0.00    +0.000 HD
ATOM     34  H   UNL     1       6.707   5.533  13.852  0.00  0.00    +0.000 HD
ENDBRANCH  30  32
ENDBRANCH  22  27
ENDBRANCH   1  22
TORSDOF 5
ENDMDL
MODEL 6
REMARK VINA RESULT:      -8.2      1.608      2.325
REMARK  Name = 
REMARK  8 active torsions:
REMARK  status: ('A' for Active; 'I' for Inactive)
REMARK    1  A    between atoms: C_1  and  C_2
REMARK    2  A    between atoms: C_2  and  C_3
REMARK    3  A    between atoms: C_4  and  N_5
REMARK    4  A    between atoms: N_5  and  C_6
REMARK    5  A    between atoms: C_7  and  C_8
REMARK    6  A    between atoms: C_15  and  C_16
REMARK    7  A    between atoms: C_27  and  C_28
REMARK    8  A    between atoms: C_27  and  N_29
REMARK                            x       y       z     vdW  Elec       q    Type
REMARK                         _______ _______ _______ _____ _____    ______ ____
ROOT
ATOM      1  C   UNL     1       3.032   4.099  18.839  0.00  0.00    +0.000 A 
ATOM      2  C   UNL     1       3.210   2.978  19.588  0.00  0.00    +0.000 A 
ATOM      3  C   UNL     1       2.485   2.926  20.893  0.00  0.00    +0.000 A 
ATOM      4  N   UNL     1       1.822   3.874  21.464  0.00  0.00    +0.000 NA
ATOM      5  N   UNL     1       1.833   5.012  20.754  0.00  0.00    +0.000 N 
ATOM      6  C   UNL     1       1.321   6.183  21.241  0.00  0.00    +0.000 A 
ATOM      7  C   UNL     1       1.562   7.191  20.337  0.00  0.00    +0.000 A 
ATOM      8  C   UNL     1       2.181   6.563  19.201  0.00  0.00    +0.000 A 
ATOM      9  C   UNL     1       2.376   5.215  19.496  0.00  0.00    +0.000 A 
ENDROOT
BRANCH   7  10
ATOM     10  C   UNL     1       1.200   8.577  20.615  0.00  0.00    +0.000 A 
ATOM     11  C   UNL     1       0.812   8.968  21.909  0.00  0.00    +0.000 A 
ATOM     12  C   UNL     1       0.427  10.279  22.187  0.00  0.00    +0.000 A 
ATOM     13  C   UNL     1       0.418  11.226  21.161  0.00  0.00    +0.000 A 
ATOM     14  C   UNL     1       0.810  10.849  19.875  0.00  0.00    +0.000 A 
ATOM     15 CL   UNL     1       0.794  12.016  18.610  0.00  0.00    +0.000 Cl
ATOM     16  C   UNL     1       1.206   9.536  19.599  0.00  0.00    +0.000 A 
ENDBRANCH   7  10
BRANCH   2  17
ATOM     17  C   UNL     1       4.057   1.780  19.299  0.00  0.00    +0.000 C 
ATOM     18  N   UNL     1       5.081   1.506  20.142  0.00  0.00    +0.000 N 
ATOM     19  O   UNL     1       3.795   1.010  18.385  0.00  0.00    +0.000 OA
ATOM     20  H   UNL     1       5.338   2.142  20.884  0.00  0.00    +0.000 HD
ATOM     21  H   UNL     1       5.598   0.650  19.987  0.00  0.00    +0.000 HD
ENDBRANCH   2  17
BRANCH   1  22
ATOM     22  N   UNL     1       3.555   4.282  17.527  0.00  0.00    +0.000 N 
ATOM     23  H   UNL     1       3.270   3.457  16.989  0.00  0.00    +0.000 HD
BRANCH  22  27
ATOM     24  C   UNL     1       5.178   5.420  14.941  0.00  0.00    +0.000 C 
ATOM     25  C   UNL     1       5.452   5.636  16.440  0.00  0.00    +0.000 C 
ATOM     26  C   UNL     1       4.667   6.913  16.847  0.00  0.00    +0.000 C 
ATOM     27  C   UNL     1       5.028   4.414  17.325  0.00  0.00    +0.000 C 
ATOM     28  C   UNL     1       5.768   4.699  18.634  0.00  0.00    +0.000 C 
ATOM     29  C   UNL     1       7.152   5.187  18.202  0.00  0.00    +0.000 C 
ATOM     30  C   UNL     1       7.000   5.753  16.767  0.00  0.00    +0.000 C 
ATOM     31  C   UNL     1       7.914   4.935  15.825  0.00  0.00    +0.000 C 
BRANCH  30  32
ATOM     32  N   UNL     1       7.535   7.116  16.684  0.00  0.00    +0.000 NA
ATOM     33  H   UNL     1       8.214   7.290  17.424  0.00  0.00    +0.000 HD
ATOM     34  H   UNL     1       6.790   7.802  16.803  0.00  0.00    +0.000 HD
ENDBRANCH  30  32
ENDBRANCH  22  27
ENDBRANCH   1  22
TORSDOF 5
ENDMDL
MODEL 7
REMARK VINA RESULT:      -8.2      0.877      1.159
REMARK  Name = 
REMARK  8 active torsions:
REMARK  status: ('A' for Active; 'I' for Inactive)
REMARK    1  A    between atoms: C_1  and  C_2
REMARK    2  A    between atoms: C_2  and  C_3
REMARK    3  A    between atoms: C_4  and  N_5
REMARK    4  A    between atoms: N_5  and  C_6
REMARK    5  A    between atoms: C_7  and  C_8
REMARK    6  A    between atoms: C_15  and  C_16
REMARK    7  A    between atoms: C_27  and  C_28
REMARK    8  A    between atoms: C_27  and  N_29
REMARK                            x       y       z     vdW  Elec       q    Type
REMARK                         _______ _______ _______ _____ _____    ______ ____
ROOT
ATOM      1  C   UNL     1       3.956   3.636  19.579  0.00  0.00    +0.000 A 
ATOM      2  C   UNL     1       3.871   2.564  20.412  0.00  0.00    +0.000 A 
ATOM      3  C   UNL     1       2.700   2.529  21.338  0.00  0.00    +0.000 A 
ATOM      4  N   UNL     1       1.833   3.462  21.545  0.00  0.00    +0.000 NA
ATOM      5  N   UNL     1       2.076   4.564  20.822  0.00  0.00    +0.000 N 
ATOM      6  C   UNL     1       1.373   5.724  20.996  0.00  0.00    +0.000 A 
ATOM      7  C   UNL     1       1.907   6.702  20.190  0.00  0.00    +0.000 A 
ATOM      8  C   UNL     1       2.941   6.059  19.424  0.00  0.00    +0.000 A 
ATOM      9  C   UNL     1       3.057   4.740  19.859  0.00  0.00    +0.000 A 
ENDROOT
BRANCH   7  10
ATOM     10  C   UNL     1       1.416   8.075  20.215  0.00  0.00    +0.000 A 
ATOM     11  C   UNL     1       1.591   8.916  19.102  0.00  0.00    +0.000 A 
ATOM     12  C   UNL     1       1.160  10.242  19.119  0.00  0.00    +0.000 A 
ATOM     13  C   UNL     1       0.550  10.753  20.266  0.00  0.00    +0.000 A 
ATOM     14  C   UNL     1       0.364   9.923  21.373  0.00  0.00    +0.000 A 
ATOM     15 CL   UNL     1      -0.385  10.555  22.788  0.00  0.00    +0.000 Cl
ATOM     16  C   UNL     1       0.786   8.590  21.351  0.00  0.00    +0.000 A 
ENDBRANCH   7  10
BRANCH   2  17
ATOM     17  C   UNL     1       4.807   1.406  20.550  0.00  0.00    +0.000 C 
ATOM     18  N   UNL     1       4.863   0.509  19.537  0.00  0.00    +0.000 N 
ATOM     19  O   UNL     1       5.569   1.301  21.501  0.00  0.00    +0.000 OA
ATOM     20  H   UNL     1       4.222   0.554  18.755  0.00  0.00    +0.000 HD
ATOM     21  H   UNL     1       5.556  -0.226  19.600  0.00  0.00    +0.000 HD
ENDBRANCH   2  17
BRANCH   1  22
ATOM     22  N   UNL     1       4.940   3.788  18.561  0.00  0.00    +0.000 N 
ATOM     23  H   UNL     1       5.819   3.444  18.960  0.00  0.00    +0.000 HD
BRANCH  22  27
ATOM     24  C   UNL     1       7.424   5.778  19.253  0.00  0.00    +0.000 C 
ATOM     25  C   UNL     1       6.768   5.469  17.896  0.00  0.00    +0.000 C 
ATOM     26  C   UNL     1       7.547   4.267  17.298  0.00  0.00    +0.000 C 
ATOM     27  C   UNL     1       5.240   5.143  18.012  0.00  0.00    +0.000 C 
ATOM     28  C   UNL     1       4.771   5.297  16.563  0.00  0.00    +0.000 C 
ATOM     29  C   UNL     1       5.489   6.547  16.052  0.00  0.00    +0.000 C 
ATOM     30  C   UNL     1       6.760   6.723  16.923  0.00  0.00    +0.000 C 
ATOM     31  C   UNL     1       6.667   8.089  17.643  0.00  0.00    +0.000 C 
BRANCH  30  32
ATOM     32  N   UNL     1       7.955   6.846  16.083  0.00  0.00    +0.000 NA
ATOM     33  H   UNL     1       8.789   6.543  16.584  0.00  0.00    +0.000 HD
ATOM     34  H   UNL     1       8.110   7.819  15.819  0.00  0.00    +0.000 HD
ENDBRANCH  30  32
ENDBRANCH  22  27
ENDBRANCH   1  22
TORSDOF 5
ENDMDL
MODEL 8
REMARK VINA RESULT:      -8.1      1.234      1.851
REMARK  Name = 
REMARK  8 active torsions:
REMARK  status: ('A' for Active; 'I' for Inactive)
REMARK    1  A    between atoms: C_1  and  C_2
REMARK    2  A    between atoms: C_2  and  C_3
REMARK    3  A    between atoms: C_4  and  N_5
REMARK    4  A    between atoms: N_5  and  C_6
REMARK    5  A    between atoms: C_7  and  C_8
REMARK    6  A    between atoms: C_15  and  C_16
REMARK    7  A    between atoms: C_27  and  C_28
REMARK    8  A    between atoms: C_27  and  N_29
REMARK                            x       y       z     vdW  Elec       q    Type
REMARK                         _______ _______ _______ _____ _____    ______ ____
ROOT
ATOM      1  C   UNL     1       3.181   3.912  18.986  0.00  0.00    +0.000 A 
ATOM      2  C   UNL     1       3.411   2.868  19.826  0.00  0.00    +0.000 A 
ATOM      3  C   UNL     1       2.683   2.888  21.131  0.00  0.00    +0.000 A 
ATOM      4  N   UNL     1       1.970   3.847  21.619  0.00  0.00    +0.000 NA
ATOM      5  N   UNL     1       1.928   4.920  20.817  0.00  0.00    +0.000 N 
ATOM      6  C   UNL     1       1.356   6.101  21.203  0.00  0.00    +0.000 A 
ATOM      7  C   UNL     1       1.551   7.041  20.219  0.00  0.00    +0.000 A 
ATOM      8  C   UNL     1       2.206   6.352  19.140  0.00  0.00    +0.000 A 
ATOM      9  C   UNL     1       2.467   5.045  19.546  0.00  0.00    +0.000 A 
ENDROOT
BRANCH   7  10
ATOM     10  C   UNL     1       1.119   8.425  20.379  0.00  0.00    +0.000 A 
ATOM     11  C   UNL     1       1.399   9.380  19.385  0.00  0.00    +0.000 A 
ATOM     12  C   UNL     1       1.027  10.715  19.535  0.00  0.00    +0.000 A 
ATOM     13  C   UNL     1       0.370  11.120  20.699  0.00  0.00    +0.000 A 
ATOM     14  C   UNL     1       0.080  10.177  21.687  0.00  0.00    +0.000 A 
ATOM     15 CL   UNL     1      -0.727  10.678  23.123  0.00  0.00    +0.000 Cl
ATOM     16  C   UNL     1       0.444   8.836  21.531  0.00  0.00    +0.000 A 
ENDBRANCH   7  10
BRANCH   2  17
ATOM     17  C   UNL     1       4.317   1.694  19.639  0.00  0.00    +0.000 C 
ATOM     18  N   UNL     1       4.121   0.904  18.556  0.00  0.00    +0.000 N 
ATOM     19  O   UNL     1       5.267   1.485  20.382  0.00  0.00    +0.000 OA
ATOM     20  H   UNL     1       3.326   1.035  17.945  0.00  0.00    +0.000 HD
ATOM     21  H   UNL     1       4.787   0.161  18.392  0.00  0.00    +0.000 HD
ENDBRANCH   2  17
BRANCH   1  22
ATOM     22  N   UNL     1       3.701   4.010  17.663  0.00  0.00    +0.000 N 
ATOM     23  H   UNL     1       3.517   3.105  17.217  0.00  0.00    +0.000 HD
BRANCH  22  27
ATOM     24  C   UNL     1       5.201   5.218  15.036  0.00  0.00    +0.000 C 
ATOM     25  C   UNL     1       5.451   5.512  16.526  0.00  0.00    +0.000 C 
ATOM     26  C   UNL     1       4.541   6.716  16.892  0.00  0.00    +0.000 C 
ATOM     27  C   UNL     1       5.153   4.284  17.453  0.00  0.00    +0.000 C 
ATOM     28  C   UNL     1       5.859   4.687  18.750  0.00  0.00    +0.000 C 
ATOM     29  C   UNL     1       7.186   5.298  18.298  0.00  0.00    +0.000 C 
ATOM     30  C   UNL     1       6.979   5.796  16.845  0.00  0.00    +0.000 C 
ATOM     31  C   UNL     1       7.973   5.044  15.929  0.00  0.00    +0.000 C 
BRANCH  30  32
ATOM     32  N   UNL     1       7.373   7.202  16.714  0.00  0.00    +0.000 NA
ATOM     33  H   UNL     1       8.254   7.383  17.193  0.00  0.00    +0.000 HD
ATOM     34  H   UNL     1       6.677   7.812  17.143  0.00  0.00    +0.000 HD
ENDBRANCH  30  32
ENDBRANCH  22  27
ENDBRANCH   1  22
TORSDOF 5
ENDMDL
MODEL 9
REMARK VINA RESULT:      -8.0      3.682      7.758
REMARK  Name = 
REMARK  8 active torsions:
REMARK  status: ('A' for Active; 'I' for Inactive)
REMARK    1  A    between atoms: C_1  and  C_2
REMARK    2  A    between atoms: C_2  and  C_3
REMARK    3  A    between atoms: C_4  and  N_5
REMARK    4  A    between atoms: N_5  and  C_6
REMARK    5  A    between atoms: C_7  and  C_8
REMARK    6  A    between atoms: C_15  and  C_16
REMARK    7  A    between atoms: C_27  and  C_28
REMARK    8  A    between atoms: C_27  and  N_29
REMARK                            x       y       z     vdW  Elec       q    Type
REMARK                         _______ _______ _______ _____ _____    ______ ____
ROOT
ATOM      1  C   UNL     1       6.149   4.486  17.726  0.00  0.00    +0.000 A 
ATOM      2  C   UNL     1       6.970   5.474  18.175  0.00  0.00    +0.000 A 
ATOM      3  C   UNL     1       7.383   6.504  17.175  0.00  0.00    +0.000 A 
ATOM      4  N   UNL     1       7.173   6.494  15.902  0.00  0.00    +0.000 NA
ATOM      5  N   UNL     1       6.510   5.401  15.496  0.00  0.00    +0.000 N 
ATOM      6  C   UNL     1       6.312   5.114  14.174  0.00  0.00    +0.000 A 
ATOM      7  C   UNL     1       5.694   3.890  14.064  0.00  0.00    +0.000 A 
ATOM      8  C   UNL     1       5.429   3.461  15.412  0.00  0.00    +0.000 A 
ATOM      9  C   UNL     1       5.979   4.395  16.288  0.00  0.00    +0.000 A 
ENDROOT
BRANCH   7  10
ATOM     10  C   UNL     1       5.422   3.278  12.769  0.00  0.00    +0.000 A 
ATOM     11  C   UNL     1       6.246   2.248  12.280  0.00  0.00    +0.000 A 
ATOM     12  C   UNL     1       6.025   1.674  11.028  0.00  0.00    +0.000 A 
ATOM     13  C   UNL     1       4.970   2.133  10.237  0.00  0.00    +0.000 A 
ATOM     14  C   UNL     1       4.142   3.149  10.719  0.00  0.00    +0.000 A 
ATOM     15 CL   UNL     1       2.844   3.717   9.741  0.00  0.00    +0.000 Cl
ATOM     16  C   UNL     1       4.357   3.717  11.978  0.00  0.00    +0.000 A 
ENDBRANCH   7  10
BRANCH   2  17
ATOM     17  C   UNL     1       7.543   5.669  19.542  0.00  0.00    +0.000 C 
ATOM     18  N   UNL     1       8.478   6.635  19.707  0.00  0.00    +0.000 N 
ATOM     19  O   UNL     1       7.131   5.046  20.510  0.00  0.00    +0.000 OA
ATOM     20  H   UNL     1       8.858   7.142  18.920  0.00  0.00    +0.000 HD
ATOM     21  H   UNL     1       8.801   6.817  20.649  0.00  0.00    +0.000 HD
ENDBRANCH   2  17
BRANCH   1  22
ATOM     22  N   UNL     1       5.570   3.483  18.554  0.00  0.00    +0.000 N 
ATOM     23  H   UNL     1       5.233   2.750  17.921  0.00  0.00    +0.000 HD
BRANCH  22  27
ATOM     24  C   UNL     1       2.818   5.067  17.824  0.00  0.00    +0.000 C 
ATOM     25  C   UNL     1       3.027   3.831  18.717  0.00  0.00    +0.000 C 
ATOM     26  C   UNL     1       2.877   2.594  17.790  0.00  0.00    +0.000 C 
ATOM     27  C   UNL     1       4.417   3.823  19.440  0.00  0.00    +0.000 C 
ATOM     28  C   UNL     1       4.199   2.774  20.533  0.00  0.00    +0.000 C 
ATOM     29  C   UNL     1       2.796   3.057  21.071  0.00  0.00    +0.000 C 
ATOM     30  C   UNL     1       2.022   3.787  19.944  0.00  0.00    +0.000 C 
ATOM     31  C   UNL     1       1.597   5.178  20.470  0.00  0.00    +0.000 C 
BRANCH  30  32
ATOM     32  N   UNL     1       0.751   3.112  19.662  0.00  0.00    +0.000 NA
ATOM     33  H   UNL     1       0.174   3.665  19.029  0.00  0.00    +0.000 HD
ATOM     34  H   UNL     1       0.212   2.990  20.519  0.00  0.00    +0.000 HD
ENDBRANCH  30  32
ENDBRANCH  22  27
ENDBRANCH   1  22
TORSDOF 5
ENDMDL
