MODEL 1
REMARK VINA RESULT:      -9.0      0.000      0.000
REMARK  Name = 
REMARK  7 active torsions:
REMARK  status: ('A' for Active; 'I' for Inactive)
REMARK    1  A    between atoms: C_2  and  C_3
REMARK    2  A    between atoms: C_3  and  O_4
REMARK    3  A    between atoms: O_4  and  C_5
REMARK    4  A    between atoms: C_5  and  C_7
REMARK    5  A    between atoms: N_14  and  C_15
REMARK    6  A    between atoms: C_19  and  S_20
REMARK    7  A    between atoms: S_20  and  N_23
REMARK                            x       y       z     vdW  Elec       q    Type
REMARK                         _______ _______ _______ _____ _____    ______ ____
ROOT
ATOM      1  O   UNL     1       8.208   6.984  18.836  0.00  0.00    +0.000 OA
ATOM      2  C   UNL     1       7.922   7.747  17.916  0.00  0.00    +0.000 C 
ATOM      3  N   UNL     1       7.045   7.467  16.875  0.00  0.00    +0.000 N 
ATOM      4  H   UNL     1       6.853   8.238  16.232  0.00  0.00    +0.000 HD
ENDROOT
BRANCH   3   5
ATOM      5  C   UNL     1       6.357   6.256  16.635  0.00  0.00    +0.000 A 
ATOM      6  C   UNL     1       6.880   5.212  15.865  0.00  0.00    +0.000 A 
ATOM      7  C   UNL     1       6.159   4.028  15.670  0.00  0.00    +0.000 A 
ATOM      8  C   UNL     1       4.902   3.865  16.244  0.00  0.00    +0.000 A 
ATOM      9  C   UNL     1       4.362   4.904  17.001  0.00  0.00    +0.000 A 
ATOM     10  C   UNL     1       5.080   6.100  17.196  0.00  0.00    +0.000 A 
BRANCH   9  11
ATOM     11  S   UNL     1       2.812   4.641  17.834  0.00  0.00    +0.000 S 
ATOM     12  O   UNL     1       2.172   5.935  17.944  0.00  0.00    +0.000 OA
ATOM     13  O   UNL     1       2.141   3.543  17.172  0.00  0.00    +0.000 OA
BRANCH  11  14
ATOM     14  N   UNL     1       3.224   4.140  19.417  0.00  0.00    +0.000 NA
ATOM     15  C   UNL     1       3.266   2.673  19.701  0.00  0.00    +0.000 C 
ATOM     16  C   UNL     1       1.858   2.083  19.847  0.00  0.00    +0.000 C 
ATOM     17  O   UNL     1       1.105   2.759  20.864  0.00  0.00    +0.000 OA
ATOM     18  C   UNL     1       1.021   4.172  20.622  0.00  0.00    +0.000 C 
ATOM     19  C   UNL     1       2.414   4.805  20.500  0.00  0.00    +0.000 C 
ENDBRANCH  11  14
ENDBRANCH   9  11
ENDBRANCH   3   5
BRANCH   2  20
ATOM     20  C   UNL     1       8.617   9.123  17.810  0.00  0.00    +0.000 C 
BRANCH  20  21
ATOM     21  O   UNL     1       8.378  10.121  18.799  0.00  0.00    +0.000 OA
BRANCH  21  22
ATOM     22  C   UNL     1       9.448  10.645  19.446  0.00  0.00    +0.000 C 
ATOM     23  O   UNL     1       9.523  10.731  20.668  0.00  0.00    +0.000 OA
BRANCH  22  24
ATOM     24  C   UNL     1      10.508  11.162  18.479  0.00  0.00    +0.000 C 
ATOM     25  C   UNL     1      11.823  11.654  19.162  0.00  0.00    +0.000 C 
ATOM     26  C   UNL     1      11.834  13.159  18.841  0.00  0.00    +0.000 C 
ATOM     27  C   UNL     1      10.608  13.835  19.415  0.00  0.00    +0.000 C 
ATOM     28  C   UNL     1       9.553  13.448  18.690  0.00  0.00    +0.000 C 
ATOM     29  C   UNL     1      10.057  12.430  17.695  0.00  0.00    +0.000 C 
ATOM     30  C   UNL     1      11.399  13.110  17.375  0.00  0.00    +0.000 C 
ENDBRANCH  22  24
ENDBRANCH  21  22
ENDBRANCH  20  21
ENDBRANCH   2  20
TORSDOF 7
ENDMDL
MODEL 2
REMARK VINA RESULT:      -8.8      1.140      1.434
REMARK  Name = 
REMARK  7 active torsions:
REMARK  status: ('A' for Active; 'I' for Inactive)
REMARK    1  A    between atoms: C_2  and  C_3
REMARK    2  A    between atoms: C_3  and  O_4
REMARK    3  A    between atoms: O_4  and  C_5
REMARK    4  A    between atoms: C_5  and  C_7
REMARK    5  A    between atoms: N_14  and  C_15
REMARK    6  A    between atoms: C_19  and  S_20
REMARK    7  A    between atoms: S_20  and  N_23
REMARK                            x       y       z     vdW  Elec       q    Type
REMARK                         _______ _______ _______ _____ _____    ______ ____
ROOT
ATOM      1  O   UNL     1       8.295   7.014  18.702  0.00  0.00    +0.000 OA
ATOM      2  C   UNL     1       7.856   7.756  17.827  0.00  0.00    +0.000 C 
ATOM      3  N   UNL     1       6.997   7.378  16.802  0.00  0.00    +0.000 N 
ATOM      4  H   UNL     1       6.660   8.132  16.201  0.00  0.00    +0.000 HD
ENDROOT
BRANCH   3   5
ATOM      5  C   UNL     1       6.504   6.082  16.528  0.00  0.00    +0.000 A 
ATOM      6  C   UNL     1       6.834   5.359  15.377  0.00  0.00    +0.000 A 
ATOM      7  C   UNL     1       6.326   4.072  15.162  0.00  0.00    +0.000 A 
ATOM      8  C   UNL     1       5.481   3.483  16.098  0.00  0.00    +0.000 A 
ATOM      9  C   UNL     1       5.132   4.198  17.242  0.00  0.00    +0.000 A 
ATOM     10  C   UNL     1       5.634   5.496  17.460  0.00  0.00    +0.000 A 
BRANCH   9  11
ATOM     11  S   UNL     1       4.153   3.393  18.490  0.00  0.00    +0.000 S 
ATOM     12  O   UNL     1       3.563   2.225  17.871  0.00  0.00    +0.000 OA
ATOM     13  O   UNL     1       4.976   3.261  19.673  0.00  0.00    +0.000 OA
BRANCH  11  14
ATOM     14  N   UNL     1       2.880   4.481  18.844  0.00  0.00    +0.000 NA
ATOM     15  C   UNL     1       2.747   4.973  20.249  0.00  0.00    +0.000 C 
ATOM     16  C   UNL     1       2.134   3.910  21.167  0.00  0.00    +0.000 C 
ATOM     17  O   UNL     1       0.860   3.462  20.681  0.00  0.00    +0.000 OA
ATOM     18  C   UNL     1       0.944   2.960  19.337  0.00  0.00    +0.000 C 
ATOM     19  C   UNL     1       1.526   4.010  18.380  0.00  0.00    +0.000 C 
ENDBRANCH  11  14
ENDBRANCH   9  11
ENDBRANCH   3   5
BRANCH   2  20
ATOM     20  C   UNL     1       8.315   9.229  17.762  0.00  0.00    +0.000 C 
BRANCH  20  21
ATOM     21  O   UNL     1       8.260  10.046  18.929  0.00  0.00    +0.000 OA
BRANCH  21  22
ATOM     22  C   UNL     1       9.413  10.605  19.370  0.00  0.00    +0.000 C 
ATOM     23  O   UNL     1       9.730  10.654  20.555  0.00  0.00    +0.000 OA
BRANCH  22  24
ATOM     24  C   UNL     1      10.231  11.210  18.233  0.00  0.00    +0.000 C 
ATOM     25  C   UNL     1      11.668  11.664  18.640  0.00  0.00    +0.000 C 
ATOM     26  C   UNL     1      11.613  13.190  18.445  0.00  0.00    +0.000 C 
ATOM     27  C   UNL     1      10.552  13.803  19.332  0.00  0.00    +0.000 C 
ATOM     28  C   UNL     1       9.359  13.460  18.834  0.00  0.00    +0.000 C 
ATOM     29  C   UNL     1       9.620  12.529  17.674  0.00  0.00    +0.000 C 
ATOM     30  C   UNL     1      10.859  13.250  17.115  0.00  0.00    +0.000 C 
ENDBRANCH  22  24
ENDBRANCH  21  22
ENDBRANCH  20  21
ENDBRANCH   2  20
TORSDOF 7
ENDMDL
MODEL 3
REMARK VINA RESULT:      -8.6      1.391      1.771
REMARK  Name = 
REMARK  7 active torsions:
REMARK  status: ('A' for Active; 'I' for Inactive)
REMARK    1  A    between atoms: C_2  and  C_3
REMARK    2  A    between atoms: C_3  and  O_4
REMARK    3  A    between atoms: O_4  and  C_5
REMARK    4  A    between atoms: C_5  and  C_7
REMARK    5  A    between atoms: N_14  and  C_15
REMARK    6  A    between atoms: C_19  and  S_20
REMARK    7  A    between atoms: S_20  and  N_23
REMARK                            x       y       z     vdW  Elec       q    Type
REMARK                         _______ _______ _______ _____ _____    ______ ____
ROOT
ATOM      1  O   UNL     1       6.927   8.478  16.978  0.00  0.00    +0.000 OA
ATOM      2  C   UNL     1       7.678   7.853  17.724  0.00  0.00    +0.000 C 
ATOM      3  N   UNL     1       7.711   6.471  17.866  0.00  0.00    +0.000 N 
ATOM      4  H   UNL     1       8.449   6.101  18.468  0.00  0.00    +0.000 HD
ENDROOT
BRANCH   3   5
ATOM      5  C   UNL     1       6.871   5.523  17.238  0.00  0.00    +0.000 A 
ATOM      6  C   UNL     1       6.980   5.172  15.889  0.00  0.00    +0.000 A 
ATOM      7  C   UNL     1       6.128   4.217  15.321  0.00  0.00    +0.000 A 
ATOM      8  C   UNL     1       5.154   3.593  16.094  0.00  0.00    +0.000 A 
ATOM      9  C   UNL     1       5.025   3.945  17.436  0.00  0.00    +0.000 A 
ATOM     10  C   UNL     1       5.874   4.910  18.012  0.00  0.00    +0.000 A 
BRANCH   9  11
ATOM     11  S   UNL     1       3.863   3.055  18.447  0.00  0.00    +0.000 S 
ATOM     12  O   UNL     1       3.760   1.722  17.893  0.00  0.00    +0.000 OA
ATOM     13  O   UNL     1       4.247   3.249  19.829  0.00  0.00    +0.000 OA
BRANCH  11  14
ATOM     14  N   UNL     1       2.357   3.828  18.199  0.00  0.00    +0.000 NA
ATOM     15  C   UNL     1       2.235   5.268  18.581  0.00  0.00    +0.000 C 
ATOM     16  C   UNL     1       2.110   5.444  20.099  0.00  0.00    +0.000 C 
ATOM     17  O   UNL     1       1.002   4.701  20.627  0.00  0.00    +0.000 OA
ATOM     18  C   UNL     1       1.087   3.304  20.301  0.00  0.00    +0.000 C 
ATOM     19  C   UNL     1       1.184   3.086  18.784  0.00  0.00    +0.000 C 
ENDBRANCH  11  14
ENDBRANCH   9  11
ENDBRANCH   3   5
BRANCH   2  20
ATOM     20  C   UNL     1       8.642   8.613  18.661  0.00  0.00    +0.000 C 
BRANCH  20  21
ATOM     21  O   UNL     1       8.927   9.990  18.429  0.00  0.00    +0.000 OA
BRANCH  21  22
ATOM     22  C   UNL     1       9.623  10.665  19.376  0.00  0.00    +0.000 C 
ATOM     23  O   UNL     1       9.203  10.862  20.513  0.00  0.00    +0.000 OA
BRANCH  22  24
ATOM     24  C   UNL     1      10.952  11.194  18.845  0.00  0.00    +0.000 C 
ATOM     25  C   UNL     1      11.784  12.013  19.882  0.00  0.00    +0.000 C 
ATOM     26  C   UNL     1      11.804  13.424  19.268  0.00  0.00    +0.000 C 
ATOM     27  C   UNL     1      10.397  13.960  19.118  0.00  0.00    +0.000 C 
ATOM     28  C   UNL     1       9.807  13.282  18.128  0.00  0.00    +0.000 C 
ATOM     29  C   UNL     1      10.783  12.218  17.684  0.00  0.00    +0.000 C 
ATOM     30  C   UNL     1      12.065  13.061  17.804  0.00  0.00    +0.000 C 
ENDBRANCH  22  24
ENDBRANCH  21  22
ENDBRANCH  20  21
ENDBRANCH   2  20
TORSDOF 7
ENDMDL
MODEL 4
REMARK VINA RESULT:      -8.5      0.993      1.620
REMARK  Name = 
REMARK  7 active torsions:
REMARK  status: ('A' for Active; 'I' for Inactive)
REMARK    1  A    between atoms: C_2  and  C_3
REMARK    2  A    between atoms: C_3  and  O_4
REMARK    3  A    between atoms: O_4  and  C_5
REMARK    4  A    between atoms: C_5  and  C_7
REMARK    5  A    between atoms: N_14  and  C_15
REMARK    6  A    between atoms: C_19  and  S_20
REMARK    7  A    between atoms: S_20  and  N_23
REMARK                            x       y       z     vdW  Elec       q    Type
REMARK                         _______ _______ _______ _____ _____    ______ ____
ROOT
ATOM      1  O   UNL     1       8.238   7.009  18.598  0.00  0.00    +0.000 OA
ATOM      2  C   UNL     1       7.673   7.812  17.858  0.00  0.00    +0.000 C 
ATOM      3  N   UNL     1       6.681   7.502  16.935  0.00  0.00    +0.000 N 
ATOM      4  H   UNL     1       6.256   8.296  16.453  0.00  0.00    +0.000 HD
ENDROOT
BRANCH   3   5
ATOM      5  C   UNL     1       6.166   6.223  16.626  0.00  0.00    +0.000 A 
ATOM      6  C   UNL     1       6.805   5.322  15.768  0.00  0.00    +0.000 A 
ATOM      7  C   UNL     1       6.255   4.062  15.505  0.00  0.00    +0.000 A 
ATOM      8  C   UNL     1       5.056   3.678  16.099  0.00  0.00    +0.000 A 
ATOM      9  C   UNL     1       4.401   4.572  16.944  0.00  0.00    +0.000 A 
ATOM     10  C   UNL     1       4.946   5.844  17.207  0.00  0.00    +0.000 A 
BRANCH   9  11
ATOM     11  S   UNL     1       2.936   4.030  17.796  0.00  0.00    +0.000 S 
ATOM     12  O   UNL     1       1.976   5.110  17.705  0.00  0.00    +0.000 OA
ATOM     13  O   UNL     1       2.607   2.710  17.302  0.00  0.00    +0.000 OA
BRANCH  11  14
ATOM     14  N   UNL     1       3.391   3.888  19.439  0.00  0.00    +0.000 NA
ATOM     15  C   UNL     1       3.186   2.570  20.113  0.00  0.00    +0.000 C 
ATOM     16  C   UNL     1       1.714   2.335  20.468  0.00  0.00    +0.000 C 
ATOM     17  O   UNL     1       1.193   3.391  21.288  0.00  0.00    +0.000 OA
ATOM     18  C   UNL     1       1.350   4.679  20.671  0.00  0.00    +0.000 C 
ATOM     19  C   UNL     1       2.819   4.963  20.327  0.00  0.00    +0.000 C 
ENDBRANCH  11  14
ENDBRANCH   9  11
ENDBRANCH   3   5
BRANCH   2  20
ATOM     20  C   UNL     1       8.106   9.295  17.854  0.00  0.00    +0.000 C 
BRANCH  20  21
ATOM     21  O   UNL     1       9.287   9.696  18.544  0.00  0.00    +0.000 OA
BRANCH  21  22
ATOM     22  C   UNL     1       9.706  10.976  18.397  0.00  0.00    +0.000 C 
ATOM     23  O   UNL     1      10.426  11.350  17.476  0.00  0.00    +0.000 OA
BRANCH  22  24
ATOM     24  C   UNL     1       9.228  11.873  19.535  0.00  0.00    +0.000 C 
ATOM     25  C   UNL     1       9.272  13.400  19.220  0.00  0.00    +0.000 C 
ATOM     26  C   UNL     1      10.323  13.925  20.214  0.00  0.00    +0.000 C 
ATOM     27  C   UNL     1      11.660  13.258  19.979  0.00  0.00    +0.000 C 
ATOM     28  C   UNL     1      11.559  11.990  20.392  0.00  0.00    +0.000 C 
ATOM     29  C   UNL     1      10.122  11.778  20.807  0.00  0.00    +0.000 C 
ATOM     30  C   UNL     1       9.899  13.151  21.464  0.00  0.00    +0.000 C 
ENDBRANCH  22  24
ENDBRANCH  21  22
ENDBRANCH  20  21
ENDBRANCH   2  20
TORSDOF 7
ENDMDL
MODEL 5
REMARK VINA RESULT:      -8.2      1.241      1.773
REMARK  Name = 
REMARK  7 active torsions:
REMARK  status: ('A' for Active; 'I' for Inactive)
REMARK    1  A    between atoms: C_2  and  C_3
REMARK    2  A    between atoms: C_3  and  O_4
REMARK    3  A    between atoms: O_4  and  C_5
REMARK    4  A    between atoms: C_5  and  C_7
REMARK    5  A    between atoms: N_14  and  C_15
REMARK    6  A    between atoms: C_19  and  S_20
REMARK    7  A    between atoms: S_20  and  N_23
REMARK                            x       y       z     vdW  Elec       q    Type
REMARK                         _______ _______ _______ _____ _____    ______ ____
ROOT
ATOM      1  O   UNL     1       8.433   7.287  18.831  0.00  0.00    +0.000 OA
ATOM      2  C   UNL     1       7.949   8.083  18.030  0.00  0.00    +0.000 C 
ATOM      3  N   UNL     1       6.913   7.811  17.144  0.00  0.00    +0.000 N 
ATOM      4  H   UNL     1       6.571   8.605  16.599  0.00  0.00    +0.000 HD
ENDROOT
BRANCH   3   5
ATOM      5  C   UNL     1       6.254   6.577  16.948  0.00  0.00    +0.000 A 
ATOM      6  C   UNL     1       6.738   5.569  16.107  0.00  0.00    +0.000 A 
ATOM      7  C   UNL     1       6.049   4.359  15.959  0.00  0.00    +0.000 A 
ATOM      8  C   UNL     1       4.864   4.134  16.653  0.00  0.00    +0.000 A 
ATOM      9  C   UNL     1       4.362   5.135  17.482  0.00  0.00    +0.000 A 
ATOM     10  C   UNL     1       5.046   6.357  17.629  0.00  0.00    +0.000 A 
BRANCH   9  11
ATOM     11  S   UNL     1       2.915   4.794  18.459  0.00  0.00    +0.000 S 
ATOM     12  O   UNL     1       3.065   5.526  19.698  0.00  0.00    +0.000 OA
ATOM     13  O   UNL     1       1.758   5.005  17.615  0.00  0.00    +0.000 OA
BRANCH  11  14
ATOM     14  N   UNL     1       3.003   3.127  18.837  0.00  0.00    +0.000 NA
ATOM     15  C   UNL     1       1.771   2.301  18.659  0.00  0.00    +0.000 C 
ATOM     16  C   UNL     1       0.761   2.535  19.788  0.00  0.00    +0.000 C 
ATOM     17  O   UNL     1       1.341   2.281  21.076  0.00  0.00    +0.000 OA
ATOM     18  C   UNL     1       2.520   3.070  21.301  0.00  0.00    +0.000 C 
ATOM     19  C   UNL     1       3.569   2.839  20.203  0.00  0.00    +0.000 C 
ENDBRANCH  11  14
ENDBRANCH   9  11
ENDBRANCH   3   5
BRANCH   2  20
ATOM     20  C   UNL     1       8.544   9.502  17.897  0.00  0.00    +0.000 C 
BRANCH  20  21
ATOM     21  O   UNL     1       9.219  10.101  19.001  0.00  0.00    +0.000 OA
BRANCH  21  22
ATOM     22  C   UNL     1      10.103  11.095  18.744  0.00  0.00    +0.000 C 
ATOM     23  O   UNL     1      10.554  11.327  17.626  0.00  0.00    +0.000 OA
BRANCH  22  24
ATOM     24  C   UNL     1      10.508  11.845  20.009  0.00  0.00    +0.000 C 
ATOM     25  C   UNL     1       9.455  11.791  21.160  0.00  0.00    +0.000 C 
ATOM     26  C   UNL     1       9.021  13.261  21.297  0.00  0.00    +0.000 C 
ATOM     27  C   UNL     1       8.422  13.763  20.002  0.00  0.00    +0.000 C 
ATOM     28  C   UNL     1       9.417  13.893  19.118  0.00  0.00    +0.000 C 
ATOM     29  C   UNL     1      10.668  13.378  19.788  0.00  0.00    +0.000 C 
ATOM     30  C   UNL     1      10.388  13.940  21.193  0.00  0.00    +0.000 C 
ENDBRANCH  22  24
ENDBRANCH  21  22
ENDBRANCH  20  21
ENDBRANCH   2  20
TORSDOF 7
ENDMDL
MODEL 6
REMARK VINA RESULT:      -8.0      1.029      1.608
REMARK  Name = 
REMARK  7 active torsions:
REMARK  status: ('A' for Active; 'I' for Inactive)
REMARK    1  A    between atoms: C_2  and  C_3
REMARK    2  A    between atoms: C_3  and  O_4
REMARK    3  A    between atoms: O_4  and  C_5
REMARK    4  A    between atoms: C_5  and  C_7
REMARK    5  A    between atoms: N_14  and  C_15
REMARK    6  A    between atoms: C_19  and  S_20
REMARK    7  A    between atoms: S_20  and  N_23
REMARK                            x       y       z     vdW  Elec       q    Type
REMARK                         _______ _______ _______ _____ _____    ______ ____
ROOT
ATOM      1  O   UNL     1       7.319   8.861  17.062  0.00  0.00    +0.000 OA
ATOM      2  C   UNL     1       7.944   8.223  17.905  0.00  0.00    +0.000 C 
ATOM      3  N   UNL     1       7.812   6.862  18.154  0.00  0.00    +0.000 N 
ATOM      4  H   UNL     1       8.462   6.467  18.835  0.00  0.00    +0.000 HD
ENDROOT
BRANCH   3   5
ATOM      5  C   UNL     1       6.913   5.961  17.539  0.00  0.00    +0.000 A 
ATOM      6  C   UNL     1       7.282   5.082  16.516  0.00  0.00    +0.000 A 
ATOM      7  C   UNL     1       6.352   4.201  15.951  0.00  0.00    +0.000 A 
ATOM      8  C   UNL     1       5.035   4.181  16.401  0.00  0.00    +0.000 A 
ATOM      9  C   UNL     1       4.651   5.063  17.410  0.00  0.00    +0.000 A 
ATOM     10  C   UNL     1       5.580   5.957  17.978  0.00  0.00    +0.000 A 
BRANCH   9  11
ATOM     11  S   UNL     1       3.001   4.948  18.065  0.00  0.00    +0.000 S 
ATOM     12  O   UNL     1       2.452   6.287  18.057  0.00  0.00    +0.000 OA
ATOM     13  O   UNL     1       2.328   3.873  17.367  0.00  0.00    +0.000 OA
BRANCH  11  14
ATOM     14  N   UNL     1       3.192   4.484  19.702  0.00  0.00    +0.000 NA
ATOM     15  C   UNL     1       3.426   3.039  19.999  0.00  0.00    +0.000 C 
ATOM     16  C   UNL     1       2.136   2.218  19.886  0.00  0.00    +0.000 C 
ATOM     17  O   UNL     1       1.105   2.735  20.740  0.00  0.00    +0.000 OA
ATOM     18  C   UNL     1       0.831   4.120  20.476  0.00  0.00    +0.000 C 
ATOM     19  C   UNL     1       2.097   4.980  20.610  0.00  0.00    +0.000 C 
ENDBRANCH  11  14
ENDBRANCH   9  11
ENDBRANCH   3   5
BRANCH   2  20
ATOM     20  C   UNL     1       8.925   8.951  18.851  0.00  0.00    +0.000 C 
BRANCH  20  21
ATOM     21  O   UNL     1       8.711  10.318  19.189  0.00  0.00    +0.000 OA
BRANCH  21  22
ATOM     22  C   UNL     1       9.452  11.256  18.550  0.00  0.00    +0.000 C 
ATOM     23  O   UNL     1      10.079  11.035  17.518  0.00  0.00    +0.000 OA
BRANCH  22  24
ATOM     24  C   UNL     1       9.458  12.589  19.293  0.00  0.00    +0.000 C 
ATOM     25  C   UNL     1      10.136  13.760  18.516  0.00  0.00    +0.000 C 
ATOM     26  C   UNL     1      11.357  14.091  19.392  0.00  0.00    +0.000 C 
ATOM     27  C   UNL     1      12.267  12.889  19.514  0.00  0.00    +0.000 C 
ATOM     28  C   UNL     1      11.654  11.993  20.295  0.00  0.00    +0.000 C 
ATOM     29  C   UNL     1      10.287  12.551  20.611  0.00  0.00    +0.000 C 
ATOM     30  C   UNL     1      10.704  14.023  20.775  0.00  0.00    +0.000 C 
ENDBRANCH  22  24
ENDBRANCH  21  22
ENDBRANCH  20  21
ENDBRANCH   2  20
TORSDOF 7
ENDMDL
MODEL 7
REMARK VINA RESULT:      -7.9      1.194      1.499
REMARK  Name = 
REMARK  7 active torsions:
REMARK  status: ('A' for Active; 'I' for Inactive)
REMARK    1  A    between atoms: C_2  and  C_3
REMARK    2  A    between atoms: C_3  and  O_4
REMARK    3  A    between atoms: O_4  and  C_5
REMARK    4  A    between atoms: C_5  and  C_7
REMARK    5  A    between atoms: N_14  and  C_15
REMARK    6  A    between atoms: C_19  and  S_20
REMARK    7  A    between atoms: S_20  and  N_23
REMARK                            x       y       z     vdW  Elec       q    Type
REMARK                         _______ _______ _______ _____ _____    ______ ____
ROOT
ATOM      1  O   UNL     1       7.114   8.823  17.093  0.00  0.00    +0.000 OA
ATOM      2  C   UNL     1       7.882   8.228  17.845  0.00  0.00    +0.000 C 
ATOM      3  N   UNL     1       7.849   6.867  18.124  0.00  0.00    +0.000 N 
ATOM      4  H   UNL     1       8.608   6.512  18.710  0.00  0.00    +0.000 HD
ENDROOT
BRANCH   3   5
ATOM      5  C   UNL     1       6.916   5.916  17.652  0.00  0.00    +0.000 A 
ATOM      6  C   UNL     1       7.195   5.005  16.628  0.00  0.00    +0.000 A 
ATOM      7  C   UNL     1       6.236   4.076  16.208  0.00  0.00    +0.000 A 
ATOM      8  C   UNL     1       4.980   4.039  16.807  0.00  0.00    +0.000 A 
ATOM      9  C   UNL     1       4.684   4.952  17.817  0.00  0.00    +0.000 A 
ATOM     10  C   UNL     1       5.642   5.893  18.240  0.00  0.00    +0.000 A 
BRANCH   9  11
ATOM     11  S   UNL     1       3.124   4.819  18.662  0.00  0.00    +0.000 S 
ATOM     12  O   UNL     1       3.294   5.445  19.956  0.00  0.00    +0.000 OA
ATOM     13  O   UNL     1       2.094   5.275  17.753  0.00  0.00    +0.000 OA
BRANCH  11  14
ATOM     14  N   UNL     1       2.894   3.144  18.932  0.00  0.00    +0.000 NA
ATOM     15  C   UNL     1       1.503   2.604  18.842  0.00  0.00    +0.000 C 
ATOM     16  C   UNL     1       0.677   2.949  20.086  0.00  0.00    +0.000 C 
ATOM     17  O   UNL     1       1.309   2.482  21.287  0.00  0.00    +0.000 OA
ATOM     18  C   UNL     1       2.644   2.994  21.427  0.00  0.00    +0.000 C 
ATOM     19  C   UNL     1       3.512   2.640  20.210  0.00  0.00    +0.000 C 
ENDBRANCH  11  14
ENDBRANCH   9  11
ENDBRANCH   3   5
BRANCH   2  20
ATOM     20  C   UNL     1       8.952   9.014  18.635  0.00  0.00    +0.000 C 
BRANCH  20  21
ATOM     21  O   UNL     1       8.704  10.362  19.027  0.00  0.00    +0.000 OA
BRANCH  21  22
ATOM     22  C   UNL     1       9.055  11.350  18.167  0.00  0.00    +0.000 C 
ATOM     23  O   UNL     1       8.247  11.962  17.475  0.00  0.00    +0.000 OA
BRANCH  22  24
ATOM     24  C   UNL     1      10.564  11.565  18.124  0.00  0.00    +0.000 C 
ATOM     25  C   UNL     1      11.249  11.635  19.524  0.00  0.00    +0.000 C 
ATOM     26  C   UNL     1      11.773  13.081  19.578  0.00  0.00    +0.000 C 
ATOM     27  C   UNL     1      10.632  14.066  19.454  0.00  0.00    +0.000 C 
ATOM     28  C   UNL     1      10.193  14.022  18.192  0.00  0.00    +0.000 C 
ATOM     29  C   UNL     1      10.971  12.931  17.496  0.00  0.00    +0.000 C 
ATOM     30  C   UNL     1      12.332  13.201  18.158  0.00  0.00    +0.000 C 
ENDBRANCH  22  24
ENDBRANCH  21  22
ENDBRANCH  20  21
ENDBRANCH   2  20
TORSDOF 7
ENDMDL
MODEL 8
REMARK VINA RESULT:      -7.8      1.249      1.949
REMARK  Name = 
REMARK  7 active torsions:
REMARK  status: ('A' for Active; 'I' for Inactive)
REMARK    1  A    between atoms: C_2  and  C_3
REMARK    2  A    between atoms: C_3  and  O_4
REMARK    3  A    between atoms: O_4  and  C_5
REMARK    4  A    between atoms: C_5  and  C_7
REMARK    5  A    between atoms: N_14  and  C_15
REMARK    6  A    between atoms: C_19  and  S_20
REMARK    7  A    between atoms: S_20  and  N_23
REMARK                            x       y       z     vdW  Elec       q    Type
REMARK                         _______ _______ _______ _____ _____    ______ ____
ROOT
ATOM      1  O   UNL     1       8.437   7.395  18.828  0.00  0.00    +0.000 OA
ATOM      2  C   UNL     1       8.045   8.080  17.887  0.00  0.00    +0.000 C 
ATOM      3  N   UNL     1       7.126   7.681  16.923  0.00  0.00    +0.000 N 
ATOM      4  H   UNL     1       6.844   8.397  16.251  0.00  0.00    +0.000 HD
ENDROOT
BRANCH   3   5
ATOM      5  C   UNL     1       6.508   6.416  16.798  0.00  0.00    +0.000 A 
ATOM      6  C   UNL     1       6.637   5.604  15.667  0.00  0.00    +0.000 A 
ATOM      7  C   UNL     1       6.011   4.353  15.602  0.00  0.00    +0.000 A 
ATOM      8  C   UNL     1       5.247   3.890  16.669  0.00  0.00    +0.000 A 
ATOM      9  C   UNL     1       5.098   4.697  17.796  0.00  0.00    +0.000 A 
ATOM     10  C   UNL     1       5.719   5.959  17.865  0.00  0.00    +0.000 A 
BRANCH   9  11
ATOM     11  S   UNL     1       4.224   4.048  19.204  0.00  0.00    +0.000 S 
ATOM     12  O   UNL     1       5.000   2.931  19.699  0.00  0.00    +0.000 OA
ATOM     13  O   UNL     1       3.903   5.162  20.070  0.00  0.00    +0.000 OA
BRANCH  11  14
ATOM     14  N   UNL     1       2.761   3.416  18.581  0.00  0.00    +0.000 NA
ATOM     15  C   UNL     1       1.541   4.277  18.646  0.00  0.00    +0.000 C 
ATOM     16  C   UNL     1       0.953   4.325  20.061  0.00  0.00    +0.000 C 
ATOM     17  O   UNL     1       0.654   3.011  20.553  0.00  0.00    +0.000 OA
ATOM     18  C   UNL     1       1.805   2.152  20.529  0.00  0.00    +0.000 C 
ATOM     19  C   UNL     1       2.405   2.055  19.118  0.00  0.00    +0.000 C 
ENDBRANCH  11  14
ENDBRANCH   9  11
ENDBRANCH   3   5
BRANCH   2  20
ATOM     20  C   UNL     1       8.637   9.488  17.657  0.00  0.00    +0.000 C 
BRANCH  20  21
ATOM     21  O   UNL     1       8.215  10.581  18.469  0.00  0.00    +0.000 OA
BRANCH  21  22
ATOM     22  C   UNL     1       9.052  11.009  19.446  0.00  0.00    +0.000 C 
ATOM     23  O   UNL     1       9.385  10.316  20.402  0.00  0.00    +0.000 OA
BRANCH  22  24
ATOM     24  C   UNL     1       9.476  12.461  19.243  0.00  0.00    +0.000 C 
ATOM     25  C   UNL     1       9.440  12.946  17.760  0.00  0.00    +0.000 C 
ATOM     26  C   UNL     1      10.922  13.227  17.455  0.00  0.00    +0.000 C 
ATOM     27  C   UNL     1      11.748  11.971  17.622  0.00  0.00    +0.000 C 
ATOM     28  C   UNL     1      11.824  11.706  18.930  0.00  0.00    +0.000 C 
ATOM     29  C   UNL     1      10.961  12.725  19.634  0.00  0.00    +0.000 C 
ATOM     30  C   UNL     1      11.319  13.934  18.753  0.00  0.00    +0.000 C 
ENDBRANCH  22  24
ENDBRANCH  21  22
ENDBRANCH  20  21
ENDBRANCH   2  20
TORSDOF 7
ENDMDL
MODEL 9
REMARK VINA RESULT:      -7.7      6.026      9.785
REMARK  Name = 
REMARK  7 active torsions:
REMARK  status: ('A' for Active; 'I' for Inactive)
REMARK    1  A    between atoms: C_2  and  C_3
REMARK    2  A    between atoms: C_3  and  O_4
REMARK    3  A    between atoms: O_4  and  C_5
REMARK    4  A    between atoms: C_5  and  C_7
REMARK    5  A    between atoms: N_14  and  C_15
REMARK    6  A    between atoms: C_19  and  S_20
REMARK    7  A    between atoms: S_20  and  N_23
REMARK                            x       y       z     vdW  Elec       q    Type
REMARK                         _______ _______ _______ _____ _____    ______ ____
ROOT
ATOM      1  O   UNL     1       1.955   8.971  17.473  0.00  0.00    +0.000 OA
ATOM      2  C   UNL     1       2.230   8.198  18.387  0.00  0.00    +0.000 C 
ATOM      3  N   UNL     1       1.744   8.276  19.687  0.00  0.00    +0.000 N 
ATOM      4  H   UNL     1       2.006   7.508  20.309  0.00  0.00    +0.000 HD
ENDROOT
BRANCH   3   5
ATOM      5  C   UNL     1       0.895   9.268  20.228  0.00  0.00    +0.000 A 
ATOM      6  C   UNL     1       0.972   9.709  21.553  0.00  0.00    +0.000 A 
ATOM      7  C   UNL     1       0.113  10.705  22.033  0.00  0.00    +0.000 A 
ATOM      8  C   UNL     1      -0.838  11.280  21.195  0.00  0.00    +0.000 A 
ATOM      9  C   UNL     1      -0.936  10.838  19.877  0.00  0.00    +0.000 A 
ATOM     10  C   UNL     1      -0.079   9.832  19.390  0.00  0.00    +0.000 A 
BRANCH   9  11
ATOM     11  S   UNL     1      -2.067  11.662  18.779  0.00  0.00    +0.000 S 
ATOM     12  O   UNL     1      -2.993  12.402  19.610  0.00  0.00    +0.000 OA
ATOM     13  O   UNL     1      -1.282  12.340  17.770  0.00  0.00    +0.000 OA
BRANCH  11  14
ATOM     14  N   UNL     1      -2.954  10.412  18.016  0.00  0.00    +0.000 NA
ATOM     15  C   UNL     1      -2.483   9.932  16.681  0.00  0.00    +0.000 C 
ATOM     16  C   UNL     1      -2.846  10.915  15.562  0.00  0.00    +0.000 C 
ATOM     17  O   UNL     1      -4.258  11.171  15.522  0.00  0.00    +0.000 OA
ATOM     18  C   UNL     1      -4.753  11.656  16.781  0.00  0.00    +0.000 C 
ATOM     19  C   UNL     1      -4.433  10.681  17.924  0.00  0.00    +0.000 C 
ENDBRANCH  11  14
ENDBRANCH   9  11
ENDBRANCH   3   5
BRANCH   2  20
ATOM     20  C   UNL     1       3.252   7.063  18.157  0.00  0.00    +0.000 C 
BRANCH  20  21
ATOM     21  O   UNL     1       3.190   5.875  18.943  0.00  0.00    +0.000 OA
BRANCH  21  22
ATOM     22  C   UNL     1       4.305   5.109  19.029  0.00  0.00    +0.000 C 
ATOM     23  O   UNL     1       5.326   5.465  19.610  0.00  0.00    +0.000 OA
BRANCH  22  24
ATOM     24  C   UNL     1       4.156   3.791  18.275  0.00  0.00    +0.000 C 
ATOM     25  C   UNL     1       2.788   3.614  17.544  0.00  0.00    +0.000 C 
ATOM     26  C   UNL     1       2.153   2.426  18.288  0.00  0.00    +0.000 C 
ATOM     27  C   UNL     1       1.975   2.749  19.755  0.00  0.00    +0.000 C 
ATOM     28  C   UNL     1       3.188   2.758  20.319  0.00  0.00    +0.000 C 
ATOM     29  C   UNL     1       4.189   2.545  19.208  0.00  0.00    +0.000 C 
ATOM     30  C   UNL     1       3.377   1.515  18.404  0.00  0.00    +0.000 C 
ENDBRANCH  22  24
ENDBRANCH  21  22
ENDBRANCH  20  21
ENDBRANCH   2  20
TORSDOF 7
ENDMDL
