MODEL 1
REMARK VINA RESULT:      -7.8      0.000      0.000
REMARK  Name = 
REMARK  3 active torsions:
REMARK  status: ('A' for Active; 'I' for Inactive)
REMARK    1  A    between atoms: C_7  and  C_8
REMARK    2  A    between atoms: C_11  and  C_12
REMARK    3  A    between atoms: C_15  and  O_16
REMARK                            x       y       z     vdW  Elec       q    Type
REMARK                         _______ _______ _______ _____ _____    ______ ____
ROOT
ATOM      1  C   UNL     1       2.190   7.238  19.601  0.00  0.00    +0.000 A 
ATOM      2  C   UNL     1       2.387   5.978  20.135  0.00  0.00    +0.000 A 
ATOM      3  C   UNL     1       3.200   5.148  19.314  0.00  0.00    +0.000 A 
ATOM      4  C   UNL     1       3.613   5.775  18.155  0.00  0.00    +0.000 A 
ATOM      5  S   UNL     1       3.003   7.380  18.094  0.00  0.00    +0.000 S 
ENDROOT
BRANCH   1  12
ATOM      6  O   UNL     1      -0.996  12.658  21.589  0.00  0.00    +0.000 OA
ATOM      7  C   UNL     1      -0.635  11.567  21.980  0.00  0.00    +0.000 C 
ATOM      8  O   UNL     1      -0.802  11.049  23.234  0.00  0.00    +0.000 OA
ATOM      9  C   UNL     1      -0.239   9.724  23.354  0.00  0.00    +0.000 C 
ATOM     10  C   UNL     1       0.310   9.463  22.009  0.00  0.00    +0.000 A 
ATOM     11  C   UNL     1       0.985   8.355  21.516  0.00  0.00    +0.000 A 
ATOM     12  C   UNL     1       1.425   8.361  20.178  0.00  0.00    +0.000 A 
ATOM     13  C   UNL     1       1.151   9.498  19.376  0.00  0.00    +0.000 A 
ATOM     14  C   UNL     1       0.473  10.608  19.886  0.00  0.00    +0.000 A 
ATOM     15  C   UNL     1       0.069  10.556  21.205  0.00  0.00    +0.000 A 
ENDBRANCH   1  12
BRANCH   4  16
ATOM     16  C   UNL     1       4.441   5.221  17.069  0.00  0.00    +0.000 A 
ATOM     17  C   UNL     1       4.987   6.086  16.102  0.00  0.00    +0.000 A 
ATOM     18  C   UNL     1       5.727   5.594  15.023  0.00  0.00    +0.000 A 
ATOM     19  C   UNL     1       5.930   4.226  14.905  0.00  0.00    +0.000 A 
ATOM     20  C   UNL     1       5.418   3.349  15.853  0.00  0.00    +0.000 A 
ATOM     21  C   UNL     1       4.675   3.844  16.931  0.00  0.00    +0.000 A 
BRANCH  19  22
ATOM     22  O   UNL     1       6.628   3.699  13.861  0.00  0.00    +0.000 OA
ATOM     23  H   UNL     1       6.030   3.612  13.100  0.00  0.00    +0.000 HD
ENDBRANCH  19  22
ENDBRANCH   4  16
TORSDOF 3
ENDMDL
MODEL 2
REMARK VINA RESULT:      -7.7      0.107      1.033
REMARK  Name = 
REMARK  3 active torsions:
REMARK  status: ('A' for Active; 'I' for Inactive)
REMARK    1  A    between atoms: C_7  and  C_8
REMARK    2  A    between atoms: C_11  and  C_12
REMARK    3  A    between atoms: C_15  and  O_16
REMARK                            x       y       z     vdW  Elec       q    Type
REMARK                         _______ _______ _______ _____ _____    ______ ____
ROOT
ATOM      1  C   UNL     1       2.205   7.252  19.558  0.00  0.00    +0.000 A 
ATOM      2  C   UNL     1       2.462   5.999  20.084  0.00  0.00    +0.000 A 
ATOM      3  C   UNL     1       3.265   5.191  19.231  0.00  0.00    +0.000 A 
ATOM      4  C   UNL     1       3.611   5.830  18.055  0.00  0.00    +0.000 A 
ATOM      5  S   UNL     1       2.952   7.415  18.019  0.00  0.00    +0.000 S 
ENDROOT
BRANCH   1  12
ATOM      6  O   UNL     1      -1.044  12.582  21.680  0.00  0.00    +0.000 OA
ATOM      7  C   UNL     1      -0.650  11.496  22.051  0.00  0.00    +0.000 C 
ATOM      8  O   UNL     1      -0.775  10.961  23.303  0.00  0.00    +0.000 OA
ATOM      9  C   UNL     1      -0.182   9.647  23.395  0.00  0.00    +0.000 C 
ATOM     10  C   UNL     1       0.339   9.412  22.035  0.00  0.00    +0.000 A 
ATOM     11  C   UNL     1       1.025   8.324  21.514  0.00  0.00    +0.000 A 
ATOM     12  C   UNL     1       1.431   8.352  20.165  0.00  0.00    +0.000 A 
ATOM     13  C   UNL     1       1.114   9.490  19.382  0.00  0.00    +0.000 A 
ATOM     14  C   UNL     1       0.426  10.581  19.921  0.00  0.00    +0.000 A 
ATOM     15  C   UNL     1       0.056  10.507  21.248  0.00  0.00    +0.000 A 
ENDBRANCH   1  12
BRANCH   4  16
ATOM     16  C   UNL     1       4.411   5.298  16.937  0.00  0.00    +0.000 A 
ATOM     17  C   UNL     1       4.584   3.907  16.809  0.00  0.00    +0.000 A 
ATOM     18  C   UNL     1       5.385   3.365  15.799  0.00  0.00    +0.000 A 
ATOM     19  C   UNL     1       6.017   4.216  14.903  0.00  0.00    +0.000 A 
ATOM     20  C   UNL     1       5.852   5.592  14.995  0.00  0.00    +0.000 A 
ATOM     21  C   UNL     1       5.052   6.132  16.009  0.00  0.00    +0.000 A 
BRANCH  19  22
ATOM     22  O   UNL     1       6.822   3.735  13.914  0.00  0.00    +0.000 OA
ATOM     23  H   UNL     1       6.262   3.354  13.217  0.00  0.00    +0.000 HD
ENDBRANCH  19  22
ENDBRANCH   4  16
TORSDOF 3
ENDMDL
MODEL 3
REMARK VINA RESULT:      -7.6      1.740      8.976
REMARK  Name = 
REMARK  3 active torsions:
REMARK  status: ('A' for Active; 'I' for Inactive)
REMARK    1  A    between atoms: C_7  and  C_8
REMARK    2  A    between atoms: C_11  and  C_12
REMARK    3  A    between atoms: C_15  and  O_16
REMARK                            x       y       z     vdW  Elec       q    Type
REMARK                         _______ _______ _______ _____ _____    ______ ____
ROOT
ATOM      1  C   UNL     1       2.064   8.391  18.540  0.00  0.00    +0.000 A 
ATOM      2  C   UNL     1       1.840   9.583  17.876  0.00  0.00    +0.000 A 
ATOM      3  C   UNL     1       1.039  10.492  18.621  0.00  0.00    +0.000 A 
ATOM      4  C   UNL     1       0.650   9.987  19.847  0.00  0.00    +0.000 A 
ATOM      5  S   UNL     1       1.281   8.405  20.069  0.00  0.00    +0.000 S 
ENDROOT
BRANCH   1  12
ATOM      6  O   UNL     1       5.951   3.690  16.034  0.00  0.00    +0.000 OA
ATOM      7  C   UNL     1       4.959   3.843  16.717  0.00  0.00    +0.000 C 
ATOM      8  O   UNL     1       4.177   2.862  17.261  0.00  0.00    +0.000 OA
ATOM      9  C   UNL     1       3.069   3.404  18.012  0.00  0.00    +0.000 C 
ATOM     10  C   UNL     1       3.245   4.862  17.877  0.00  0.00    +0.000 A 
ATOM     11  C   UNL     1       2.478   5.907  18.373  0.00  0.00    +0.000 A 
ATOM     12  C   UNL     1       2.859   7.233  18.086  0.00  0.00    +0.000 A 
ATOM     13  C   UNL     1       4.022   7.453  17.305  0.00  0.00    +0.000 A 
ATOM     14  C   UNL     1       4.783   6.391  16.809  0.00  0.00    +0.000 A 
ATOM     15  C   UNL     1       4.364   5.112  17.113  0.00  0.00    +0.000 A 
ENDBRANCH   1  12
BRANCH   4  16
ATOM     16  C   UNL     1      -0.195  10.633  20.867  0.00  0.00    +0.000 A 
ATOM     17  C   UNL     1      -0.233  10.105  22.172  0.00  0.00    +0.000 A 
ATOM     18  C   UNL     1      -1.067  10.652  23.152  0.00  0.00    +0.000 A 
ATOM     19  C   UNL     1      -1.869  11.739  22.833  0.00  0.00    +0.000 A 
ATOM     20  C   UNL     1      -1.840  12.291  21.560  0.00  0.00    +0.000 A 
ATOM     21  C   UNL     1      -1.007  11.740  20.579  0.00  0.00    +0.000 A 
BRANCH  19  22
ATOM     22  O   UNL     1      -2.711  12.292  23.750  0.00  0.00    +0.000 OA
ATOM     23  H   UNL     1      -3.164  13.047  23.339  0.00  0.00    +0.000 HD
ENDBRANCH  19  22
ENDBRANCH   4  16
TORSDOF 3
ENDMDL
MODEL 4
REMARK VINA RESULT:      -7.5      2.389      2.709
REMARK  Name = 
REMARK  3 active torsions:
REMARK  status: ('A' for Active; 'I' for Inactive)
REMARK    1  A    between atoms: C_7  and  C_8
REMARK    2  A    between atoms: C_11  and  C_12
REMARK    3  A    between atoms: C_15  and  O_16
REMARK                            x       y       z     vdW  Elec       q    Type
REMARK                         _______ _______ _______ _____ _____    ______ ____
ROOT
ATOM      1  C   UNL     1       1.727   8.380  19.351  0.00  0.00    +0.000 A 
ATOM      2  C   UNL     1       2.352   8.426  18.118  0.00  0.00    +0.000 A 
ATOM      3  C   UNL     1       2.861   7.163  17.705  0.00  0.00    +0.000 A 
ATOM      4  C   UNL     1       2.629   6.161  18.628  0.00  0.00    +0.000 A 
ATOM      5  S   UNL     1       1.781   6.784  19.985  0.00  0.00    +0.000 S 
ENDROOT
BRANCH   1  12
ATOM      6  O   UNL     1      -0.794  13.774  22.183  0.00  0.00    +0.000 OA
ATOM      7  C   UNL     1      -0.712  12.572  22.327  0.00  0.00    +0.000 C 
ATOM      8  O   UNL     1      -1.209  11.834  23.366  0.00  0.00    +0.000 OA
ATOM      9  C   UNL     1      -0.920  10.426  23.220  0.00  0.00    +0.000 C 
ATOM     10  C   UNL     1      -0.172  10.361  21.949  0.00  0.00    +0.000 A 
ATOM     11  C   UNL     1       0.383   9.273  21.291  0.00  0.00    +0.000 A 
ATOM     12  C   UNL     1       1.071   9.483  20.079  0.00  0.00    +0.000 A 
ATOM     13  C   UNL     1       1.162  10.802  19.568  0.00  0.00    +0.000 A 
ATOM     14  C   UNL     1       0.600  11.889  20.243  0.00  0.00    +0.000 A 
ATOM     15  C   UNL     1      -0.056  11.632  21.429  0.00  0.00    +0.000 A 
ENDBRANCH   1  12
BRANCH   4  16
ATOM     16  C   UNL     1       3.028   4.745  18.548  0.00  0.00    +0.000 A 
ATOM     17  C   UNL     1       2.337   3.878  17.681  0.00  0.00    +0.000 A 
ATOM     18  C   UNL     1       2.644   2.515  17.620  0.00  0.00    +0.000 A 
ATOM     19  C   UNL     1       3.654   2.009  18.428  0.00  0.00    +0.000 A 
ATOM     20  C   UNL     1       4.364   2.844  19.280  0.00  0.00    +0.000 A 
ATOM     21  C   UNL     1       4.052   4.207  19.342  0.00  0.00    +0.000 A 
BRANCH  19  22
ATOM     22  O   UNL     1       3.976   0.685  18.416  0.00  0.00    +0.000 OA
ATOM     23  H   UNL     1       4.814   0.574  17.938  0.00  0.00    +0.000 HD
ENDBRANCH  19  22
ENDBRANCH   4  16
TORSDOF 3
ENDMDL
MODEL 5
REMARK VINA RESULT:      -7.5      1.713      8.934
REMARK  Name = 
REMARK  3 active torsions:
REMARK  status: ('A' for Active; 'I' for Inactive)
REMARK    1  A    between atoms: C_7  and  C_8
REMARK    2  A    between atoms: C_11  and  C_12
REMARK    3  A    between atoms: C_15  and  O_16
REMARK                            x       y       z     vdW  Elec       q    Type
REMARK                         _______ _______ _______ _____ _____    ______ ____
ROOT
ATOM      1  C   UNL     1       2.072   8.345  18.509  0.00  0.00    +0.000 A 
ATOM      2  C   UNL     1       1.825   9.529  17.839  0.00  0.00    +0.000 A 
ATOM      3  C   UNL     1       1.028  10.437  18.589  0.00  0.00    +0.000 A 
ATOM      4  C   UNL     1       0.664   9.939  19.826  0.00  0.00    +0.000 A 
ATOM      5  S   UNL     1       1.315   8.366  20.051  0.00  0.00    +0.000 S 
ENDROOT
BRANCH   1  12
ATOM      6  O   UNL     1       5.986   3.667  16.005  0.00  0.00    +0.000 OA
ATOM      7  C   UNL     1       4.982   3.814  16.671  0.00  0.00    +0.000 C 
ATOM      8  O   UNL     1       4.187   2.827  17.185  0.00  0.00    +0.000 OA
ATOM      9  C   UNL     1       3.066   3.362  17.923  0.00  0.00    +0.000 C 
ATOM     10  C   UNL     1       3.251   4.822  17.814  0.00  0.00    +0.000 A 
ATOM     11  C   UNL     1       2.479   5.863  18.312  0.00  0.00    +0.000 A 
ATOM     12  C   UNL     1       2.870   7.191  18.052  0.00  0.00    +0.000 A 
ATOM     13  C   UNL     1       4.049   7.418  17.298  0.00  0.00    +0.000 A 
ATOM     14  C   UNL     1       4.815   6.361  16.800  0.00  0.00    +0.000 A 
ATOM     15  C   UNL     1       4.386   5.079  17.075  0.00  0.00    +0.000 A 
ENDBRANCH   1  12
BRANCH   4  16
ATOM     16  C   UNL     1      -0.169  10.587  20.855  0.00  0.00    +0.000 A 
ATOM     17  C   UNL     1      -0.786  11.820  20.572  0.00  0.00    +0.000 A 
ATOM     18  C   UNL     1      -1.533  12.497  21.540  0.00  0.00    +0.000 A 
ATOM     19  C   UNL     1      -1.673  11.940  22.804  0.00  0.00    +0.000 A 
ATOM     20  C   UNL     1      -1.089  10.717  23.106  0.00  0.00    +0.000 A 
ATOM     21  C   UNL     1      -0.339  10.043  22.137  0.00  0.00    +0.000 A 
BRANCH  19  22
ATOM     22  O   UNL     1      -2.376  12.572  23.784  0.00  0.00    +0.000 OA
ATOM     23  H   UNL     1      -1.760  13.107  24.312  0.00  0.00    +0.000 HD
ENDBRANCH  19  22
ENDBRANCH   4  16
TORSDOF 3
ENDMDL
MODEL 6
REMARK VINA RESULT:      -7.5      2.496      3.171
REMARK  Name = 
REMARK  3 active torsions:
REMARK  status: ('A' for Active; 'I' for Inactive)
REMARK    1  A    between atoms: C_7  and  C_8
REMARK    2  A    between atoms: C_11  and  C_12
REMARK    3  A    between atoms: C_15  and  O_16
REMARK                            x       y       z     vdW  Elec       q    Type
REMARK                         _______ _______ _______ _____ _____    ______ ____
ROOT
ATOM      1  C   UNL     1       1.617   8.169  19.765  0.00  0.00    +0.000 A 
ATOM      2  C   UNL     1       2.229   8.241  18.527  0.00  0.00    +0.000 A 
ATOM      3  C   UNL     1       2.704   6.982  18.067  0.00  0.00    +0.000 A 
ATOM      4  C   UNL     1       2.459   5.955  18.960  0.00  0.00    +0.000 A 
ATOM      5  S   UNL     1       1.642   6.552  20.347  0.00  0.00    +0.000 S 
ENDROOT
BRANCH   1  12
ATOM      6  O   UNL     1      -1.441  12.518  23.665  0.00  0.00    +0.000 OA
ATOM      7  C   UNL     1      -0.898  12.425  22.583  0.00  0.00    +0.000 C 
ATOM      8  O   UNL     1      -0.759  13.411  21.647  0.00  0.00    +0.000 OA
ATOM      9  C   UNL     1      -0.066  12.948  20.467  0.00  0.00    +0.000 C 
ATOM     10  C   UNL     1       0.221  11.533  20.774  0.00  0.00    +0.000 A 
ATOM     11  C   UNL     1       0.858  10.563  20.013  0.00  0.00    +0.000 A 
ATOM     12  C   UNL     1       0.995   9.262  20.537  0.00  0.00    +0.000 A 
ATOM     13  C   UNL     1       0.485   8.993  21.832  0.00  0.00    +0.000 A 
ATOM     14  C   UNL     1      -0.157   9.979  22.586  0.00  0.00    +0.000 A 
ATOM     15  C   UNL     1      -0.272  11.234  22.026  0.00  0.00    +0.000 A 
ENDBRANCH   1  12
BRANCH   4  16
ATOM     16  C   UNL     1       2.825   4.534  18.829  0.00  0.00    +0.000 A 
ATOM     17  C   UNL     1       3.881   4.016  19.603  0.00  0.00    +0.000 A 
ATOM     18  C   UNL     1       4.299   2.689  19.464  0.00  0.00    +0.000 A 
ATOM     19  C   UNL     1       3.658   1.866  18.548  0.00  0.00    +0.000 A 
ATOM     20  C   UNL     1       2.604   2.345  17.783  0.00  0.00    +0.000 A 
ATOM     21  C   UNL     1       2.189   3.674  17.921  0.00  0.00    +0.000 A 
BRANCH  19  22
ATOM     22  O   UNL     1       4.044   0.572  18.366  0.00  0.00    +0.000 OA
ATOM     23  H   UNL     1       3.326  -0.010  18.665  0.00  0.00    +0.000 HD
ENDBRANCH  19  22
ENDBRANCH   4  16
TORSDOF 3
ENDMDL
MODEL 7
REMARK VINA RESULT:      -7.5      2.442      3.129
REMARK  Name = 
REMARK  3 active torsions:
REMARK  status: ('A' for Active; 'I' for Inactive)
REMARK    1  A    between atoms: C_7  and  C_8
REMARK    2  A    between atoms: C_11  and  C_12
REMARK    3  A    between atoms: C_15  and  O_16
REMARK                            x       y       z     vdW  Elec       q    Type
REMARK                         _______ _______ _______ _____ _____    ______ ____
ROOT
ATOM      1  C   UNL     1       1.622   8.202  19.720  0.00  0.00    +0.000 A 
ATOM      2  C   UNL     1       2.183   8.299  18.460  0.00  0.00    +0.000 A 
ATOM      3  C   UNL     1       2.700   7.062  17.985  0.00  0.00    +0.000 A 
ATOM      4  C   UNL     1       2.539   6.028  18.887  0.00  0.00    +0.000 A 
ATOM      5  S   UNL     1       1.745   6.590  20.303  0.00  0.00    +0.000 S 
ENDROOT
BRANCH   1  12
ATOM      6  O   UNL     1      -1.491  12.412  23.728  0.00  0.00    +0.000 OA
ATOM      7  C   UNL     1      -0.987  12.341  22.625  0.00  0.00    +0.000 C 
ATOM      8  O   UNL     1      -0.935  13.329  21.681  0.00  0.00    +0.000 OA
ATOM      9  C   UNL     1      -0.267  12.895  20.477  0.00  0.00    +0.000 C 
ATOM     10  C   UNL     1       0.102  11.497  20.775  0.00  0.00    +0.000 A 
ATOM     11  C   UNL     1       0.756  10.556  19.992  0.00  0.00    +0.000 A 
ATOM     12  C   UNL     1       0.977   9.266  20.513  0.00  0.00    +0.000 A 
ATOM     13  C   UNL     1       0.533   8.978  21.828  0.00  0.00    +0.000 A 
ATOM     14  C   UNL     1      -0.127   9.935  22.605  0.00  0.00    +0.000 A 
ATOM     15  C   UNL     1      -0.326  11.180  22.047  0.00  0.00    +0.000 A 
ENDBRANCH   1  12
BRANCH   4  16
ATOM     16  C   UNL     1       2.967   4.626  18.745  0.00  0.00    +0.000 A 
ATOM     17  C   UNL     1       2.360   3.811  17.771  0.00  0.00    +0.000 A 
ATOM     18  C   UNL     1       2.694   2.459  17.644  0.00  0.00    +0.000 A 
ATOM     19  C   UNL     1       3.646   1.911  18.493  0.00  0.00    +0.000 A 
ATOM     20  C   UNL     1       4.274   2.695  19.452  0.00  0.00    +0.000 A 
ATOM     21  C   UNL     1       3.935   4.047  19.579  0.00  0.00    +0.000 A 
BRANCH  19  22
ATOM     22  O   UNL     1       3.990   0.595  18.419  0.00  0.00    +0.000 OA
ATOM     23  H   UNL     1       4.893   0.530  18.067  0.00  0.00    +0.000 HD
ENDBRANCH  19  22
ENDBRANCH   4  16
TORSDOF 3
ENDMDL
MODEL 8
REMARK VINA RESULT:      -7.5      2.425      2.753
REMARK  Name = 
REMARK  3 active torsions:
REMARK  status: ('A' for Active; 'I' for Inactive)
REMARK    1  A    between atoms: C_7  and  C_8
REMARK    2  A    between atoms: C_11  and  C_12
REMARK    3  A    between atoms: C_15  and  O_16
REMARK                            x       y       z     vdW  Elec       q    Type
REMARK                         _______ _______ _______ _____ _____    ______ ____
ROOT
ATOM      1  C   UNL     1       1.698   8.290  19.417  0.00  0.00    +0.000 A 
ATOM      2  C   UNL     1       2.370   8.308  18.209  0.00  0.00    +0.000 A 
ATOM      3  C   UNL     1       2.845   7.025  17.817  0.00  0.00    +0.000 A 
ATOM      4  C   UNL     1       2.539   6.036  18.732  0.00  0.00    +0.000 A 
ATOM      5  S   UNL     1       1.666   6.695  20.055  0.00  0.00    +0.000 S 
ENDROOT
BRANCH   1  12
ATOM      6  O   UNL     1      -0.740  13.788  22.120  0.00  0.00    +0.000 OA
ATOM      7  C   UNL     1      -0.679  12.587  22.291  0.00  0.00    +0.000 C 
ATOM      8  O   UNL     1      -1.192  11.881  23.344  0.00  0.00    +0.000 OA
ATOM      9  C   UNL     1      -0.928  10.465  23.229  0.00  0.00    +0.000 C 
ATOM     10  C   UNL     1      -0.176  10.360  21.963  0.00  0.00    +0.000 A 
ATOM     11  C   UNL     1       0.362   9.248  21.331  0.00  0.00    +0.000 A 
ATOM     12  C   UNL     1       1.058   9.419  20.118  0.00  0.00    +0.000 A 
ATOM     13  C   UNL     1       1.174  10.726  19.579  0.00  0.00    +0.000 A 
ATOM     14  C   UNL     1       0.629  11.837  20.228  0.00  0.00    +0.000 A 
ATOM     15  C   UNL     1      -0.036  11.617  21.416  0.00  0.00    +0.000 A 
ENDBRANCH   1  12
BRANCH   4  16
ATOM     16  C   UNL     1       2.886   4.605  18.669  0.00  0.00    +0.000 A 
ATOM     17  C   UNL     1       3.907   4.102  19.496  0.00  0.00    +0.000 A 
ATOM     18  C   UNL     1       4.308   2.764  19.424  0.00  0.00    +0.000 A 
ATOM     19  C   UNL     1       3.683   1.915  18.520  0.00  0.00    +0.000 A 
ATOM     20  C   UNL     1       2.662   2.380  17.703  0.00  0.00    +0.000 A 
ATOM     21  C   UNL     1       2.264   3.719  17.775  0.00  0.00    +0.000 A 
BRANCH  19  22
ATOM     22  O   UNL     1       4.053   0.610  18.401  0.00  0.00    +0.000 OA
ATOM     23  H   UNL     1       3.644   0.105  19.123  0.00  0.00    +0.000 HD
ENDBRANCH  19  22
ENDBRANCH   4  16
TORSDOF 3
ENDMDL
MODEL 9
REMARK VINA RESULT:      -7.5      3.014      8.400
REMARK  Name = 
REMARK  3 active torsions:
REMARK  status: ('A' for Active; 'I' for Inactive)
REMARK    1  A    between atoms: C_7  and  C_8
REMARK    2  A    between atoms: C_11  and  C_12
REMARK    3  A    between atoms: C_15  and  O_16
REMARK                            x       y       z     vdW  Elec       q    Type
REMARK                         _______ _______ _______ _____ _____    ______ ____
ROOT
ATOM      1  C   UNL     1       2.134   7.815  19.075  0.00  0.00    +0.000 A 
ATOM      2  C   UNL     1       2.353   8.501  17.895  0.00  0.00    +0.000 A 
ATOM      3  C   UNL     1       1.732   9.781  17.872  0.00  0.00    +0.000 A 
ATOM      4  C   UNL     1       1.036  10.062  19.032  0.00  0.00    +0.000 A 
ATOM      5  S   UNL     1       1.162   8.754  20.137  0.00  0.00    +0.000 S 
ENDROOT
BRANCH   1  12
ATOM      6  O   UNL     1       4.787   1.876  20.158  0.00  0.00    +0.000 OA
ATOM      7  C   UNL     1       3.882   2.598  20.526  0.00  0.00    +0.000 C 
ATOM      8  O   UNL     1       2.928   2.306  21.460  0.00  0.00    +0.000 OA
ATOM      9  C   UNL     1       1.997   3.395  21.645  0.00  0.00    +0.000 C 
ATOM     10  C   UNL     1       2.483   4.423  20.705  0.00  0.00    +0.000 A 
ATOM     11  C   UNL     1       1.986   5.688  20.425  0.00  0.00    +0.000 A 
ATOM     12  C   UNL     1       2.635   6.481  19.458  0.00  0.00    +0.000 A 
ATOM     13  C   UNL     1       3.785   5.960  18.812  0.00  0.00    +0.000 A 
ATOM     14  C   UNL     1       4.273   4.684  19.102  0.00  0.00    +0.000 A 
ATOM     15  C   UNL     1       3.597   3.944  20.050  0.00  0.00    +0.000 A 
ENDBRANCH   1  12
BRANCH   4  16
ATOM     16  C   UNL     1       0.259  11.273  19.351  0.00  0.00    +0.000 A 
ATOM     17  C   UNL     1      -0.748  11.212  20.333  0.00  0.00    +0.000 A 
ATOM     18  C   UNL     1      -1.549  12.321  20.622  0.00  0.00    +0.000 A 
ATOM     19  C   UNL     1      -1.342  13.507  19.931  0.00  0.00    +0.000 A 
ATOM     20  C   UNL     1      -0.345  13.602  18.970  0.00  0.00    +0.000 A 
ATOM     21  C   UNL     1       0.453  12.489  18.679  0.00  0.00    +0.000 A 
BRANCH  19  22
ATOM     22  O   UNL     1      -2.109  14.608  20.166  0.00  0.00    +0.000 OA
ATOM     23  H   UNL     1      -2.411  14.584  21.089  0.00  0.00    +0.000 HD
ENDBRANCH  19  22
ENDBRANCH   4  16
TORSDOF 3
ENDMDL
