MODEL 1
REMARK VINA RESULT:      -7.4      0.000      0.000
REMARK  Name = 
REMARK  4 active torsions:
REMARK  status: ('A' for Active; 'I' for Inactive)
REMARK    1  A    between atoms: C_1  and  C_2
REMARK    2  A    between atoms: C_5  and  C_6
REMARK    3  A    between atoms: C_6  and  N_7
REMARK    4  A    between atoms: C_8  and  C_10
REMARK                            x       y       z     vdW  Elec       q    Type
REMARK                         _______ _______ _______ _____ _____    ______ ____
ROOT
ATOM      1  N   UNL     1       7.704   8.096  18.053  0.00  0.00    +0.000 N 
ATOM      2  C   UNL     1       7.359   6.936  17.402  0.00  0.00    +0.000 C 
ATOM      3  O   UNL     1       7.660   6.628  16.261  0.00  0.00    +0.000 OA
ATOM      4  H   UNL     1       7.279   8.269  18.959  0.00  0.00    +0.000 HD
ENDROOT
BRANCH   2   5
ATOM      5  C   UNL     1       6.527   5.982  18.229  0.00  0.00    +0.000 C 
ATOM      6  N   UNL     1       6.802   5.707  19.465  0.00  0.00    +0.000 NA
ATOM      7  O   UNL     1       5.845   4.752  19.886  0.00  0.00    +0.000 OA
ATOM      8  C   UNL     1       4.764   4.729  18.924  0.00  0.00    +0.000 C 
ATOM      9  C   UNL     1       4.264   3.285  18.779  0.00  0.00    +0.000 C 
ATOM     10  C   UNL     1       3.586   2.802  20.064  0.00  0.00    +0.000 C 
ATOM     11  C   UNL     1       2.493   3.768  20.511  0.00  0.00    +0.000 C 
ATOM     12  N   UNL     1       3.002   5.129  20.688  0.00  0.00    +0.000 NA
ATOM     13  C   UNL     1       3.620   5.631  19.448  0.00  0.00    +0.000 C 
ATOM     14  C   UNL     1       5.377   5.260  17.635  0.00  0.00    +0.000 C 
ATOM     15  H   UNL     1       3.727   5.112  21.411  0.00  0.00    +0.000 HD
ENDBRANCH   2   5
BRANCH   1  16
ATOM     16  C   UNL     1       8.454   9.147  17.405  0.00  0.00    +0.000 C 
BRANCH  16  21
ATOM     17  C   UNL     1       9.842  13.387  21.172  0.00  0.00    +0.000 C 
ATOM     18  C   UNL     1       9.514  12.302  20.190  0.00  0.00    +0.000 A 
ATOM     19  C   UNL     1       9.200  12.601  18.860  0.00  0.00    +0.000 A 
ATOM     20  C   UNL     1       8.881  11.580  17.958  0.00  0.00    +0.000 A 
ATOM     21  C   UNL     1       8.870  10.237  18.363  0.00  0.00    +0.000 A 
ATOM     22  C   UNL     1       9.186   9.943  19.696  0.00  0.00    +0.000 A 
ATOM     23  C   UNL     1       9.506  10.964  20.599  0.00  0.00    +0.000 A 
ENDBRANCH  16  21
ENDBRANCH   1  16
TORSDOF 3
ENDMDL
MODEL 2
REMARK VINA RESULT:      -7.2      4.834      6.980
REMARK  Name = 
REMARK  4 active torsions:
REMARK  status: ('A' for Active; 'I' for Inactive)
REMARK    1  A    between atoms: C_1  and  C_2
REMARK    2  A    between atoms: C_5  and  C_6
REMARK    3  A    between atoms: C_6  and  N_7
REMARK    4  A    between atoms: C_8  and  C_10
REMARK                            x       y       z     vdW  Elec       q    Type
REMARK                         _______ _______ _______ _____ _____    ______ ____
ROOT
ATOM      1  N   UNL     1       2.159   7.509  20.343  0.00  0.00    +0.000 N 
ATOM      2  C   UNL     1       2.330   6.173  20.073  0.00  0.00    +0.000 C 
ATOM      3  O   UNL     1       1.638   5.257  20.484  0.00  0.00    +0.000 OA
ATOM      4  H   UNL     1       2.886   8.147  20.030  0.00  0.00    +0.000 HD
ENDROOT
BRANCH   2   5
ATOM      5  C   UNL     1       3.504   5.864  19.172  0.00  0.00    +0.000 C 
ATOM      6  N   UNL     1       4.610   5.356  19.616  0.00  0.00    +0.000 NA
ATOM      7  O   UNL     1       5.480   5.256  18.504  0.00  0.00    +0.000 OA
ATOM      8  C   UNL     1       4.702   5.415  17.294  0.00  0.00    +0.000 C 
ATOM      9  C   UNL     1       5.540   6.187  16.266  0.00  0.00    +0.000 C 
ATOM     10  C   UNL     1       6.737   5.357  15.792  0.00  0.00    +0.000 C 
ATOM     11  C   UNL     1       6.296   3.983  15.292  0.00  0.00    +0.000 C 
ATOM     12  N   UNL     1       5.538   3.248  16.305  0.00  0.00    +0.000 NA
ATOM     13  C   UNL     1       4.356   4.011  16.743  0.00  0.00    +0.000 C 
ATOM     14  C   UNL     1       3.463   6.189  17.727  0.00  0.00    +0.000 C 
ATOM     15  H   UNL     1       6.139   3.111  17.123  0.00  0.00    +0.000 HD
ENDBRANCH   2   5
BRANCH   1  16
ATOM     16  C   UNL     1       1.122   7.990  21.226  0.00  0.00    +0.000 C 
BRANCH  16  21
ATOM     17  C   UNL     1      -1.130  13.054  19.388  0.00  0.00    +0.000 C 
ATOM     18  C   UNL     1      -0.581  11.740  19.860  0.00  0.00    +0.000 A 
ATOM     19  C   UNL     1      -0.775  11.307  21.176  0.00  0.00    +0.000 A 
ATOM     20  C   UNL     1      -0.245  10.086  21.608  0.00  0.00    +0.000 A 
ATOM     21  C   UNL     1       0.491   9.270  20.734  0.00  0.00    +0.000 A 
ATOM     22  C   UNL     1       0.681   9.709  19.417  0.00  0.00    +0.000 A 
ATOM     23  C   UNL     1       0.150  10.930  18.985  0.00  0.00    +0.000 A 
ENDBRANCH  16  21
ENDBRANCH   1  16
TORSDOF 3
ENDMDL
MODEL 3
REMARK VINA RESULT:      -7.2      5.529      7.837
REMARK  Name = 
REMARK  4 active torsions:
REMARK  status: ('A' for Active; 'I' for Inactive)
REMARK    1  A    between atoms: C_1  and  C_2
REMARK    2  A    between atoms: C_5  and  C_6
REMARK    3  A    between atoms: C_6  and  N_7
REMARK    4  A    between atoms: C_8  and  C_10
REMARK                            x       y       z     vdW  Elec       q    Type
REMARK                         _______ _______ _______ _____ _____    ______ ____
ROOT
ATOM      1  N   UNL     1       1.244   9.329  19.351  0.00  0.00    +0.000 N 
ATOM      2  C   UNL     1       2.007   8.698  18.398  0.00  0.00    +0.000 C 
ATOM      3  O   UNL     1       2.408   9.184  17.354  0.00  0.00    +0.000 OA
ATOM      4  H   UNL     1       0.882   8.760  20.112  0.00  0.00    +0.000 HD
ENDROOT
BRANCH   2   5
ATOM      5  C   UNL     1       2.356   7.264  18.727  0.00  0.00    +0.000 C 
ATOM      6  N   UNL     1       2.099   6.731  19.879  0.00  0.00    +0.000 NA
ATOM      7  O   UNL     1       2.609   5.411  19.831  0.00  0.00    +0.000 OA
ATOM      8  C   UNL     1       2.881   5.071  18.451  0.00  0.00    +0.000 C 
ATOM      9  C   UNL     1       4.144   4.200  18.398  0.00  0.00    +0.000 C 
ATOM     10  C   UNL     1       3.900   2.832  19.041  0.00  0.00    +0.000 C 
ATOM     11  C   UNL     1       2.676   2.146  18.439  0.00  0.00    +0.000 C 
ATOM     12  N   UNL     1       1.476   2.976  18.543  0.00  0.00    +0.000 NA
ATOM     13  C   UNL     1       1.674   4.283  17.890  0.00  0.00    +0.000 C 
ATOM     14  C   UNL     1       3.074   6.411  17.752  0.00  0.00    +0.000 C 
ATOM     15  H   UNL     1       1.287   3.150  19.534  0.00  0.00    +0.000 HD
ENDBRANCH   2   5
BRANCH   1  16
ATOM     16  C   UNL     1       0.771  10.684  19.186  0.00  0.00    +0.000 C 
BRANCH  16  21
ATOM     17  C   UNL     1      -4.724  11.077  17.253  0.00  0.00    +0.000 C 
ATOM     18  C   UNL     1      -3.324  10.961  17.776  0.00  0.00    +0.000 A 
ATOM     19  C   UNL     1      -2.881  11.751  18.842  0.00  0.00    +0.000 A 
ATOM     20  C   UNL     1      -1.568  11.643  19.311  0.00  0.00    +0.000 A 
ATOM     21  C   UNL     1      -0.665  10.743  18.724  0.00  0.00    +0.000 A 
ATOM     22  C   UNL     1      -1.113   9.953  17.658  0.00  0.00    +0.000 A 
ATOM     23  C   UNL     1      -2.428  10.060  17.189  0.00  0.00    +0.000 A 
ENDBRANCH  16  21
ENDBRANCH   1  16
TORSDOF 3
ENDMDL
MODEL 4
REMARK VINA RESULT:      -7.2      4.822      6.983
REMARK  Name = 
REMARK  4 active torsions:
REMARK  status: ('A' for Active; 'I' for Inactive)
REMARK    1  A    between atoms: C_1  and  C_2
REMARK    2  A    between atoms: C_5  and  C_6
REMARK    3  A    between atoms: C_6  and  N_7
REMARK    4  A    between atoms: C_8  and  C_10
REMARK                            x       y       z     vdW  Elec       q    Type
REMARK                         _______ _______ _______ _____ _____    ______ ____
ROOT
ATOM      1  N   UNL     1       2.107   7.455  20.359  0.00  0.00    +0.000 N 
ATOM      2  C   UNL     1       2.293   6.124  20.073  0.00  0.00    +0.000 C 
ATOM      3  O   UNL     1       1.603   5.197  20.462  0.00  0.00    +0.000 OA
ATOM      4  H   UNL     1       2.832   8.103  20.065  0.00  0.00    +0.000 HD
ENDROOT
BRANCH   2   5
ATOM      5  C   UNL     1       3.480   5.838  19.182  0.00  0.00    +0.000 C 
ATOM      6  N   UNL     1       4.592   5.353  19.637  0.00  0.00    +0.000 NA
ATOM      7  O   UNL     1       5.474   5.269  18.532  0.00  0.00    +0.000 OA
ATOM      8  C   UNL     1       4.703   5.412  17.315  0.00  0.00    +0.000 C 
ATOM      9  C   UNL     1       5.535   6.199  16.294  0.00  0.00    +0.000 C 
ATOM     10  C   UNL     1       6.752   5.394  15.832  0.00  0.00    +0.000 C 
ATOM     11  C   UNL     1       6.344   4.011  15.329  0.00  0.00    +0.000 C 
ATOM     12  N   UNL     1       5.592   3.262  16.336  0.00  0.00    +0.000 NA
ATOM     13  C   UNL     1       4.391   4.001  16.763  0.00  0.00    +0.000 C 
ATOM     14  C   UNL     1       3.446   6.161  17.736  0.00  0.00    +0.000 C 
ATOM     15  H   UNL     1       6.188   3.137  17.159  0.00  0.00    +0.000 HD
ENDBRANCH   2   5
BRANCH   1  16
ATOM     16  C   UNL     1       1.054   7.914  21.236  0.00  0.00    +0.000 C 
BRANCH  16  21
ATOM     17  C   UNL     1      -1.307  12.984  19.558  0.00  0.00    +0.000 C 
ATOM     18  C   UNL     1      -0.671  11.695  19.987  0.00  0.00    +0.000 A 
ATOM     19  C   UNL     1       0.029  10.896  19.078  0.00  0.00    +0.000 A 
ATOM     20  C   UNL     1       0.605   9.689  19.488  0.00  0.00    +0.000 A 
ATOM     21  C   UNL     1       0.494   9.252  20.817  0.00  0.00    +0.000 A 
ATOM     22  C   UNL     1      -0.207  10.056  21.724  0.00  0.00    +0.000 A 
ATOM     23  C   UNL     1      -0.783  11.265  21.314  0.00  0.00    +0.000 A 
ENDBRANCH  16  21
ENDBRANCH   1  16
TORSDOF 3
ENDMDL
MODEL 5
REMARK VINA RESULT:      -7.2      4.519      6.795
REMARK  Name = 
REMARK  4 active torsions:
REMARK  status: ('A' for Active; 'I' for Inactive)
REMARK    1  A    between atoms: C_1  and  C_2
REMARK    2  A    between atoms: C_5  and  C_6
REMARK    3  A    between atoms: C_6  and  N_7
REMARK    4  A    between atoms: C_8  and  C_10
REMARK                            x       y       z     vdW  Elec       q    Type
REMARK                         _______ _______ _______ _____ _____    ______ ____
ROOT
ATOM      1  N   UNL     1       2.214   7.105  20.502  0.00  0.00    +0.000 N 
ATOM      2  C   UNL     1       2.250   5.752  20.263  0.00  0.00    +0.000 C 
ATOM      3  O   UNL     1       1.372   4.947  20.524  0.00  0.00    +0.000 OA
ATOM      4  H   UNL     1       3.069   7.631  20.343  0.00  0.00    +0.000 HD
ENDROOT
BRANCH   2   5
ATOM      5  C   UNL     1       3.525   5.268  19.610  0.00  0.00    +0.000 C 
ATOM      6  N   UNL     1       4.002   4.080  19.809  0.00  0.00    +0.000 NA
ATOM      7  O   UNL     1       5.214   4.009  19.080  0.00  0.00    +0.000 OA
ATOM      8  C   UNL     1       5.259   5.117  18.150  0.00  0.00    +0.000 C 
ATOM      9  C   UNL     1       6.707   5.615  18.046  0.00  0.00    +0.000 C 
ATOM     10  C   UNL     1       7.604   4.572  17.374  0.00  0.00    +0.000 C 
ATOM     11  C   UNL     1       7.028   4.127  16.031  0.00  0.00    +0.000 C 
ATOM     12  N   UNL     1       5.664   3.613  16.164  0.00  0.00    +0.000 NA
ATOM     13  C   UNL     1       4.773   4.618  16.768  0.00  0.00    +0.000 C 
ATOM     14  C   UNL     1       4.329   6.165  18.748  0.00  0.00    +0.000 C 
ATOM     15  H   UNL     1       5.683   2.801  16.786  0.00  0.00    +0.000 HD
ENDBRANCH   2   5
BRANCH   1  16
ATOM     16  C   UNL     1       1.099   7.740  21.165  0.00  0.00    +0.000 C 
BRANCH  16  21
ATOM     17  C   UNL     1      -0.622  12.655  18.523  0.00  0.00    +0.000 C 
ATOM     18  C   UNL     1      -0.151  11.406  19.207  0.00  0.00    +0.000 A 
ATOM     19  C   UNL     1       0.762  10.544  18.591  0.00  0.00    +0.000 A 
ATOM     20  C   UNL     1       1.182   9.375  19.234  0.00  0.00    +0.000 A 
ATOM     21  C   UNL     1       0.699   9.039  20.508  0.00  0.00    +0.000 A 
ATOM     22  C   UNL     1      -0.215   9.906  21.121  0.00  0.00    +0.000 A 
ATOM     23  C   UNL     1      -0.634  11.077  20.478  0.00  0.00    +0.000 A 
ENDBRANCH  16  21
ENDBRANCH   1  16
TORSDOF 3
ENDMDL
MODEL 6
REMARK VINA RESULT:      -7.2      5.760      7.982
REMARK  Name = 
REMARK  4 active torsions:
REMARK  status: ('A' for Active; 'I' for Inactive)
REMARK    1  A    between atoms: C_1  and  C_2
REMARK    2  A    between atoms: C_5  and  C_6
REMARK    3  A    between atoms: C_6  and  N_7
REMARK    4  A    between atoms: C_8  and  C_10
REMARK                            x       y       z     vdW  Elec       q    Type
REMARK                         _______ _______ _______ _____ _____    ______ ____
ROOT
ATOM      1  N   UNL     1       1.144   8.993  19.383  0.00  0.00    +0.000 N 
ATOM      2  C   UNL     1       1.512   8.229  20.465  0.00  0.00    +0.000 C 
ATOM      3  O   UNL     1       1.487   8.572  21.635  0.00  0.00    +0.000 OA
ATOM      4  H   UNL     1       1.334   8.616  18.458  0.00  0.00    +0.000 HD
ENDROOT
BRANCH   2   5
ATOM      5  C   UNL     1       1.983   6.837  20.114  0.00  0.00    +0.000 C 
ATOM      6  N   UNL     1       1.716   5.804  20.849  0.00  0.00    +0.000 NA
ATOM      7  O   UNL     1       2.357   4.700  20.235  0.00  0.00    +0.000 OA
ATOM      8  C   UNL     1       2.739   5.076  18.891  0.00  0.00    +0.000 C 
ATOM      9  C   UNL     1       4.083   4.415  18.557  0.00  0.00    +0.000 C 
ATOM     10  C   UNL     1       3.941   2.894  18.455  0.00  0.00    +0.000 C 
ATOM     11  C   UNL     1       2.827   2.504  17.486  0.00  0.00    +0.000 C 
ATOM     12  N   UNL     1       1.546   3.110  17.852  0.00  0.00    +0.000 NA
ATOM     13  C   UNL     1       1.649   4.579  17.912  0.00  0.00    +0.000 C 
ATOM     14  C   UNL     1       2.836   6.596  18.926  0.00  0.00    +0.000 C 
ATOM     15  H   UNL     1       1.285   2.778  18.785  0.00  0.00    +0.000 HD
ENDBRANCH   2   5
BRANCH   1  16
ATOM     16  C   UNL     1       0.716  10.366  19.520  0.00  0.00    +0.000 C 
BRANCH  16  21
ATOM     17  C   UNL     1      -4.451  11.243  16.946  0.00  0.00    +0.000 C 
ATOM     18  C   UNL     1      -3.109  11.034  17.583  0.00  0.00    +0.000 A 
ATOM     19  C   UNL     1      -2.191  10.120  17.053  0.00  0.00    +0.000 A 
ATOM     20  C   UNL     1      -0.949   9.924  17.666  0.00  0.00    +0.000 A 
ATOM     21  C   UNL     1      -0.595  10.636  18.822  0.00  0.00    +0.000 A 
ATOM     22  C   UNL     1      -1.517  11.550  19.348  0.00  0.00    +0.000 A 
ATOM     23  C   UNL     1      -2.760  11.747  18.734  0.00  0.00    +0.000 A 
ENDBRANCH  16  21
ENDBRANCH   1  16
TORSDOF 3
ENDMDL
MODEL 7
REMARK VINA RESULT:      -7.2      5.557      7.847
REMARK  Name = 
REMARK  4 active torsions:
REMARK  status: ('A' for Active; 'I' for Inactive)
REMARK    1  A    between atoms: C_1  and  C_2
REMARK    2  A    between atoms: C_5  and  C_6
REMARK    3  A    between atoms: C_6  and  N_7
REMARK    4  A    between atoms: C_8  and  C_10
REMARK                            x       y       z     vdW  Elec       q    Type
REMARK                         _______ _______ _______ _____ _____    ______ ____
ROOT
ATOM      1  N   UNL     1       1.236   9.413  19.173  0.00  0.00    +0.000 N 
ATOM      2  C   UNL     1       2.029   8.667  18.335  0.00  0.00    +0.000 C 
ATOM      3  O   UNL     1       2.503   9.031  17.272  0.00  0.00    +0.000 OA
ATOM      4  H   UNL     1       0.814   8.937  19.966  0.00  0.00    +0.000 HD
ENDROOT
BRANCH   2   5
ATOM      5  C   UNL     1       2.312   7.266  18.828  0.00  0.00    +0.000 C 
ATOM      6  N   UNL     1       2.006   6.872  20.024  0.00  0.00    +0.000 NA
ATOM      7  O   UNL     1       2.462   5.536  20.135  0.00  0.00    +0.000 OA
ATOM      8  C   UNL     1       2.754   5.037  18.808  0.00  0.00    +0.000 C 
ATOM      9  C   UNL     1       3.982   4.119  18.887  0.00  0.00    +0.000 C 
ATOM     10  C   UNL     1       3.667   2.840  19.668  0.00  0.00    +0.000 C 
ATOM     11  C   UNL     1       2.432   2.138  19.109  0.00  0.00    +0.000 C 
ATOM     12  N   UNL     1       1.264   3.020  19.088  0.00  0.00    +0.000 NA
ATOM     13  C   UNL     1       1.530   4.238  18.303  0.00  0.00    +0.000 C 
ATOM     14  C   UNL     1       3.019   6.284  17.973  0.00  0.00    +0.000 C 
ATOM     15  H   UNL     1       1.058   3.308  20.048  0.00  0.00    +0.000 HD
ENDBRANCH   2   5
BRANCH   1  16
ATOM     16  C   UNL     1       0.818  10.756  18.844  0.00  0.00    +0.000 C 
BRANCH  16  21
ATOM     17  C   UNL     1      -4.905  10.925  17.697  0.00  0.00    +0.000 C 
ATOM     18  C   UNL     1      -3.429  10.894  17.962  0.00  0.00    +0.000 A 
ATOM     19  C   UNL     1      -2.601   9.953  17.340  0.00  0.00    +0.000 A 
ATOM     20  C   UNL     1      -1.228   9.926  17.607  0.00  0.00    +0.000 A 
ATOM     21  C   UNL     1      -0.650  10.838  18.504  0.00  0.00    +0.000 A 
ATOM     22  C   UNL     1      -1.483  11.779  19.124  0.00  0.00    +0.000 A 
ATOM     23  C   UNL     1      -2.857  11.806  18.855  0.00  0.00    +0.000 A 
ENDBRANCH  16  21
ENDBRANCH   1  16
TORSDOF 3
ENDMDL
MODEL 8
REMARK VINA RESULT:      -7.2      5.747      7.985
REMARK  Name = 
REMARK  4 active torsions:
REMARK  status: ('A' for Active; 'I' for Inactive)
REMARK    1  A    between atoms: C_1  and  C_2
REMARK    2  A    between atoms: C_5  and  C_6
REMARK    3  A    between atoms: C_6  and  N_7
REMARK    4  A    between atoms: C_8  and  C_10
REMARK                            x       y       z     vdW  Elec       q    Type
REMARK                         _______ _______ _______ _____ _____    ______ ____
ROOT
ATOM      1  N   UNL     1       1.168   9.022  19.348  0.00  0.00    +0.000 N 
ATOM      2  C   UNL     1       1.493   8.240  20.431  0.00  0.00    +0.000 C 
ATOM      3  O   UNL     1       1.414   8.561  21.605  0.00  0.00    +0.000 OA
ATOM      4  H   UNL     1       1.401   8.664  18.426  0.00  0.00    +0.000 HD
ENDROOT
BRANCH   2   5
ATOM      5  C   UNL     1       1.988   6.857  20.075  0.00  0.00    +0.000 C 
ATOM      6  N   UNL     1       1.768   5.823  20.824  0.00  0.00    +0.000 NA
ATOM      7  O   UNL     1       2.417   4.731  20.200  0.00  0.00    +0.000 OA
ATOM      8  C   UNL     1       2.752   5.107  18.843  0.00  0.00    +0.000 C 
ATOM      9  C   UNL     1       4.101   4.476  18.475  0.00  0.00    +0.000 C 
ATOM     10  C   UNL     1       3.994   2.952  18.386  0.00  0.00    +0.000 C 
ATOM     11  C   UNL     1       2.863   2.528  17.452  0.00  0.00    +0.000 C 
ATOM     12  N   UNL     1       1.579   3.105  17.851  0.00  0.00    +0.000 NA
ATOM     13  C   UNL     1       1.647   4.576  17.899  0.00  0.00    +0.000 C 
ATOM     14  C   UNL     1       2.813   6.629  18.865  0.00  0.00    +0.000 C 
ATOM     15  H   UNL     1       1.353   2.773  18.793  0.00  0.00    +0.000 HD
ENDBRANCH   2   5
BRANCH   1  16
ATOM     16  C   UNL     1       0.726  10.390  19.492  0.00  0.00    +0.000 C 
BRANCH  16  21
ATOM     17  C   UNL     1      -4.446  11.466  17.005  0.00  0.00    +0.000 C 
ATOM     18  C   UNL     1      -3.133  11.174  17.668  0.00  0.00    +0.000 A 
ATOM     19  C   UNL     1      -2.751  11.833  18.841  0.00  0.00    +0.000 A 
ATOM     20  C   UNL     1      -1.517  11.562  19.441  0.00  0.00    +0.000 A 
ATOM     21  C   UNL     1      -0.635  10.625  18.881  0.00  0.00    +0.000 A 
ATOM     22  C   UNL     1      -1.022   9.966  17.707  0.00  0.00    +0.000 A 
ATOM     23  C   UNL     1      -2.257  10.237  17.107  0.00  0.00    +0.000 A 
ENDBRANCH  16  21
ENDBRANCH   1  16
TORSDOF 3
ENDMDL
MODEL 9
REMARK VINA RESULT:      -7.1      5.419      7.651
REMARK  Name = 
REMARK  4 active torsions:
REMARK  status: ('A' for Active; 'I' for Inactive)
REMARK    1  A    between atoms: C_1  and  C_2
REMARK    2  A    between atoms: C_5  and  C_6
REMARK    3  A    between atoms: C_6  and  N_7
REMARK    4  A    between atoms: C_8  and  C_10
REMARK                            x       y       z     vdW  Elec       q    Type
REMARK                         _______ _______ _______ _____ _____    ______ ____
ROOT
ATOM      1  N   UNL     1       1.410   8.943  19.145  0.00  0.00    +0.000 N 
ATOM      2  C   UNL     1       2.189   8.260  18.241  0.00  0.00    +0.000 C 
ATOM      3  O   UNL     1       2.722   8.725  17.248  0.00  0.00    +0.000 OA
ATOM      4  H   UNL     1       0.933   8.397  19.857  0.00  0.00    +0.000 HD
ENDROOT
BRANCH   2   5
ATOM      5  C   UNL     1       2.372   6.794  18.559  0.00  0.00    +0.000 C 
ATOM      6  N   UNL     1       2.178   5.860  17.682  0.00  0.00    +0.000 NA
ATOM      7  O   UNL     1       2.396   4.631  18.350  0.00  0.00    +0.000 OA
ATOM      8  C   UNL     1       3.073   4.900  19.600  0.00  0.00    +0.000 C 
ATOM      9  C   UNL     1       2.549   3.924  20.664  0.00  0.00    +0.000 C 
ATOM     10  C   UNL     1       2.972   2.486  20.352  0.00  0.00    +0.000 C 
ATOM     11  C   UNL     1       4.481   2.385  20.140  0.00  0.00    +0.000 C 
ATOM     12  N   UNL     1       4.949   3.290  19.090  0.00  0.00    +0.000 NA
ATOM     13  C   UNL     1       4.591   4.687  19.393  0.00  0.00    +0.000 C 
ATOM     14  C   UNL     1       2.729   6.347  19.926  0.00  0.00    +0.000 C 
ATOM     15  H   UNL     1       4.488   3.035  18.213  0.00  0.00    +0.000 HD
ENDBRANCH   2   5
BRANCH   1  16
ATOM     16  C   UNL     1       1.083  10.340  18.978  0.00  0.00    +0.000 C 
BRANCH  16  21
ATOM     17  C   UNL     1      -4.511  11.342  17.637  0.00  0.00    +0.000 C 
ATOM     18  C   UNL     1      -3.083  11.072  18.009  0.00  0.00    +0.000 A 
ATOM     19  C   UNL     1      -2.441  11.817  19.004  0.00  0.00    +0.000 A 
ATOM     20  C   UNL     1      -1.105  11.563  19.331  0.00  0.00    +0.000 A 
ATOM     21  C   UNL     1      -0.379  10.559  18.672  0.00  0.00    +0.000 A 
ATOM     22  C   UNL     1      -1.027   9.815  17.677  0.00  0.00    +0.000 A 
ATOM     23  C   UNL     1      -2.365  10.068  17.350  0.00  0.00    +0.000 A 
ENDBRANCH  16  21
ENDBRANCH   1  16
TORSDOF 3
ENDMDL
