MODEL 1
REMARK VINA RESULT:      -6.8      0.000      0.000
REMARK  Name = 
REMARK  7 active torsions:
REMARK  status: ('A' for Active; 'I' for Inactive)
REMARK    1  A    between atoms: C_2  and  C_3
REMARK    2  A    between atoms: C_3  and  C_4
REMARK    3  A    between atoms: C_5  and  O_6
REMARK    4  A    between atoms: N_7  and  C_8
REMARK    5  A    between atoms: C_8  and  C_9
REMARK    6  A    between atoms: N_24  and  C_25
REMARK    7  A    between atoms: N_27  and  C_28
REMARK                            x       y       z     vdW  Elec       q    Type
REMARK                         _______ _______ _______ _____ _____    ______ ____
ROOT
ATOM      1  C   UNL     1      -0.899  12.574  21.627  0.00  0.00    +0.000 A 
ATOM      2  C   UNL     1       0.139  12.183  20.864  0.00  0.00    +0.000 A 
ATOM      3  N   UNL     1      -0.030  11.583  19.616  0.00  0.00    +0.000 N 
ATOM      4  C   UNL     1      -1.267  11.525  19.042  0.00  0.00    +0.000 A 
ATOM      5  N   UNL     1      -1.631  11.144  17.827  0.00  0.00    +0.000 NA
ATOM      6  C   UNL     1      -2.966  11.390  17.782  0.00  0.00    +0.000 A 
ATOM      7  C   UNL     1      -3.448  11.918  18.948  0.00  0.00    +0.000 A 
ATOM      8  N   UNL     1      -2.365  11.949  19.788  0.00  0.00    +0.000 N 
ATOM      9  C   UNL     1      -2.275  12.362  21.115  0.00  0.00    +0.000 A 
ATOM     10  O   UNL     1      -3.282  12.536  21.790  0.00  0.00    +0.000 OA
ATOM     11  C   UNL     1      -4.754  12.500  19.058  0.00  0.00    +0.000 C 
ATOM     12  O   UNL     1      -5.148  13.179  19.999  0.00  0.00    +0.000 OA
ATOM     13  N   UNL     1      -5.491  12.370  17.887  0.00  0.00    +0.000 N 
ATOM     14  C   UNL     1      -6.497  13.348  17.543  0.00  0.00    +0.000 C 
ATOM     15  C   UNL     1      -5.201  11.301  16.952  0.00  0.00    +0.000 C 
ATOM     16  N   UNL     1      -3.774  11.269  16.712  0.00  0.00    +0.000 N 
ATOM     17  C   UNL     1      -3.280  10.895  15.408  0.00  0.00    +0.000 C 
ENDROOT
BRANCH   2  18
ATOM     18  O   UNL     1       1.445  12.361  21.276  0.00  0.00    +0.000 OA
ATOM     19  H   UNL     1       1.779  11.545  21.682  0.00  0.00    +0.000 HD
ENDBRANCH   2  18
BRANCH   1  20
ATOM     20  C   UNL     1      -0.824  13.226  22.971  0.00  0.00    +0.000 C 
BRANCH  20  22
ATOM     21  C   UNL     1      -0.507  15.998  22.540  0.00  0.00    +0.000 C 
ATOM     22  C   UNL     1      -0.653  14.718  22.740  0.00  0.00    +0.000 C 
ENDBRANCH  20  22
ENDBRANCH   1  20
BRANCH   3  23
ATOM     23  C   UNL     1       1.119  11.128  18.822  0.00  0.00    +0.000 C 
BRANCH  23  24
ATOM     24  C   UNL     1       1.434   9.651  18.981  0.00  0.00    +0.000 A 
ATOM     25  C   UNL     1       2.025   8.941  17.926  0.00  0.00    +0.000 A 
ATOM     26  C   UNL     1       2.493   7.638  18.117  0.00  0.00    +0.000 A 
ATOM     27  C   UNL     1       2.357   7.018  19.357  0.00  0.00    +0.000 A 
ATOM     28  C   UNL     1       1.712   7.687  20.397  0.00  0.00    +0.000 A 
ATOM     29  C   UNL     1       1.244   8.992  20.209  0.00  0.00    +0.000 A 
ENDBRANCH  23  24
ENDBRANCH   3  23
TORSDOF 5
ENDMDL
MODEL 2
REMARK VINA RESULT:      -6.5      3.533      5.320
REMARK  Name = 
REMARK  7 active torsions:
REMARK  status: ('A' for Active; 'I' for Inactive)
REMARK    1  A    between atoms: C_2  and  C_3
REMARK    2  A    between atoms: C_3  and  C_4
REMARK    3  A    between atoms: C_5  and  O_6
REMARK    4  A    between atoms: N_7  and  C_8
REMARK    5  A    between atoms: C_8  and  C_9
REMARK    6  A    between atoms: N_24  and  C_25
REMARK    7  A    between atoms: N_27  and  C_28
REMARK                            x       y       z     vdW  Elec       q    Type
REMARK                         _______ _______ _______ _____ _____    ______ ____
ROOT
ATOM      1  C   UNL     1       2.896  13.788  19.029  0.00  0.00    +0.000 A 
ATOM      2  C   UNL     1       2.273  12.711  18.513  0.00  0.00    +0.000 A 
ATOM      3  N   UNL     1       1.225  12.065  19.168  0.00  0.00    +0.000 N 
ATOM      4  C   UNL     1       0.673  12.611  20.291  0.00  0.00    +0.000 A 
ATOM      5  N   UNL     1      -0.403  12.258  20.976  0.00  0.00    +0.000 NA
ATOM      6  C   UNL     1      -0.525  13.215  21.932  0.00  0.00    +0.000 A 
ATOM      7  C   UNL     1       0.456  14.165  21.860  0.00  0.00    +0.000 A 
ATOM      8  N   UNL     1       1.270  13.745  20.839  0.00  0.00    +0.000 N 
ATOM      9  C   UNL     1       2.443  14.308  20.343  0.00  0.00    +0.000 A 
ATOM     10  O   UNL     1       3.039  15.176  20.968  0.00  0.00    +0.000 OA
ATOM     11  C   UNL     1       0.397  15.403  22.580  0.00  0.00    +0.000 C 
ATOM     12  O   UNL     1       1.123  16.371  22.384  0.00  0.00    +0.000 OA
ATOM     13  N   UNL     1      -0.707  15.472  23.422  0.00  0.00    +0.000 N 
ATOM     14  C   UNL     1      -1.305  16.747  23.741  0.00  0.00    +0.000 C 
ATOM     15  C   UNL     1      -1.326  14.261  23.921  0.00  0.00    +0.000 C 
ATOM     16  N   UNL     1      -1.534  13.355  22.812  0.00  0.00    +0.000 N 
ATOM     17  C   UNL     1      -2.689  12.488  22.807  0.00  0.00    +0.000 C 
ENDROOT
BRANCH   2  18
ATOM     18  O   UNL     1       2.637  12.184  17.291  0.00  0.00    +0.000 OA
ATOM     19  H   UNL     1       2.785  11.227  17.372  0.00  0.00    +0.000 HD
ENDBRANCH   2  18
BRANCH   1  20
ATOM     20  C   UNL     1       4.023  14.550  18.408  0.00  0.00    +0.000 C 
BRANCH  20  22
ATOM     21  C   UNL     1       2.901  16.785  17.098  0.00  0.00    +0.000 C 
ATOM     22  C   UNL     1       3.419  15.753  17.703  0.00  0.00    +0.000 C 
ENDBRANCH  20  22
ENDBRANCH   1  20
BRANCH   3  23
ATOM     23  C   UNL     1       0.589  10.867  18.602  0.00  0.00    +0.000 C 
BRANCH  23  24
ATOM     24  C   UNL     1       1.315   9.572  18.925  0.00  0.00    +0.000 A 
ATOM     25  C   UNL     1       1.190   8.997  20.198  0.00  0.00    +0.000 A 
ATOM     26  C   UNL     1       1.691   7.718  20.454  0.00  0.00    +0.000 A 
ATOM     27  C   UNL     1       2.344   7.006  19.450  0.00  0.00    +0.000 A 
ATOM     28  C   UNL     1       2.535   7.592  18.199  0.00  0.00    +0.000 A 
ATOM     29  C   UNL     1       2.033   8.872  17.940  0.00  0.00    +0.000 A 
ENDBRANCH  23  24
ENDBRANCH   3  23
TORSDOF 5
ENDMDL
MODEL 3
REMARK VINA RESULT:      -6.4      2.042      4.804
REMARK  Name = 
REMARK  7 active torsions:
REMARK  status: ('A' for Active; 'I' for Inactive)
REMARK    1  A    between atoms: C_2  and  C_3
REMARK    2  A    between atoms: C_3  and  C_4
REMARK    3  A    between atoms: C_5  and  O_6
REMARK    4  A    between atoms: N_7  and  C_8
REMARK    5  A    between atoms: C_8  and  C_9
REMARK    6  A    between atoms: N_24  and  C_25
REMARK    7  A    between atoms: N_27  and  C_28
REMARK                            x       y       z     vdW  Elec       q    Type
REMARK                         _______ _______ _______ _____ _____    ______ ____
ROOT
ATOM      1  C   UNL     1      -2.970  10.560  17.833  0.00  0.00    +0.000 A 
ATOM      2  C   UNL     1      -1.624  10.562  17.874  0.00  0.00    +0.000 A 
ATOM      3  N   UNL     1      -0.901  11.379  18.743  0.00  0.00    +0.000 N 
ATOM      4  C   UNL     1      -1.543  12.090  19.715  0.00  0.00    +0.000 A 
ATOM      5  N   UNL     1      -1.057  12.797  20.723  0.00  0.00    +0.000 NA
ATOM      6  C   UNL     1      -2.154  13.195  21.418  0.00  0.00    +0.000 A 
ATOM      7  C   UNL     1      -3.323  12.751  20.863  0.00  0.00    +0.000 A 
ATOM      8  N   UNL     1      -2.937  12.087  19.726  0.00  0.00    +0.000 N 
ATOM      9  C   UNL     1      -3.710  11.457  18.755  0.00  0.00    +0.000 A 
ATOM     10  O   UNL     1      -4.918  11.646  18.690  0.00  0.00    +0.000 OA
ATOM     11  C   UNL     1      -4.582  12.815  21.545  0.00  0.00    +0.000 C 
ATOM     12  O   UNL     1      -5.606  12.238  21.196  0.00  0.00    +0.000 OA
ATOM     13  N   UNL     1      -4.487  13.465  22.770  0.00  0.00    +0.000 N 
ATOM     14  C   UNL     1      -5.384  13.125  23.850  0.00  0.00    +0.000 C 
ATOM     15  C   UNL     1      -3.432  14.429  23.010  0.00  0.00    +0.000 C 
ATOM     16  N   UNL     1      -2.172  13.851  22.593  0.00  0.00    +0.000 N 
ATOM     17  C   UNL     1      -0.965  14.179  23.314  0.00  0.00    +0.000 C 
ENDROOT
BRANCH   2  18
ATOM     18  O   UNL     1      -0.876   9.743  17.052  0.00  0.00    +0.000 OA
ATOM     19  H   UNL     1      -0.028   9.533  17.476  0.00  0.00    +0.000 HD
ENDBRANCH   2  18
BRANCH   1  20
ATOM     20  C   UNL     1      -3.835   9.724  16.944  0.00  0.00    +0.000 C 
BRANCH  20  22
ATOM     21  C   UNL     1      -3.038  10.230  14.284  0.00  0.00    +0.000 C 
ATOM     22  C   UNL     1      -3.407   9.996  15.512  0.00  0.00    +0.000 C 
ENDBRANCH  20  22
ENDBRANCH   1  20
BRANCH   3  23
ATOM     23  C   UNL     1       0.568  11.392  18.738  0.00  0.00    +0.000 C 
BRANCH  23  24
ATOM     24  C   UNL     1       1.199  10.070  19.142  0.00  0.00    +0.000 A 
ATOM     25  C   UNL     1       0.953   9.535  20.415  0.00  0.00    +0.000 A 
ATOM     26  C   UNL     1       1.365   8.240  20.736  0.00  0.00    +0.000 A 
ATOM     27  C   UNL     1       2.050   7.469  19.798  0.00  0.00    +0.000 A 
ATOM     28  C   UNL     1       2.361   8.012  18.552  0.00  0.00    +0.000 A 
ATOM     29  C   UNL     1       1.948   9.308  18.228  0.00  0.00    +0.000 A 
ENDBRANCH  23  24
ENDBRANCH   3  23
TORSDOF 5
ENDMDL
MODEL 4
REMARK VINA RESULT:      -6.2      2.843      7.149
REMARK  Name = 
REMARK  7 active torsions:
REMARK  status: ('A' for Active; 'I' for Inactive)
REMARK    1  A    between atoms: C_2  and  C_3
REMARK    2  A    between atoms: C_3  and  C_4
REMARK    3  A    between atoms: C_5  and  O_6
REMARK    4  A    between atoms: N_7  and  C_8
REMARK    5  A    between atoms: C_8  and  C_9
REMARK    6  A    between atoms: N_24  and  C_25
REMARK    7  A    between atoms: N_27  and  C_28
REMARK                            x       y       z     vdW  Elec       q    Type
REMARK                         _______ _______ _______ _____ _____    ______ ____
ROOT
ATOM      1  C   UNL     1      -1.935  11.008  18.557  0.00  0.00    +0.000 A 
ATOM      2  C   UNL     1      -2.852  11.814  19.124  0.00  0.00    +0.000 A 
ATOM      3  N   UNL     1      -2.503  12.903  19.923  0.00  0.00    +0.000 N 
ATOM      4  C   UNL     1      -1.199  13.297  20.019  0.00  0.00    +0.000 A 
ATOM      5  N   UNL     1      -0.667  14.368  20.586  0.00  0.00    +0.000 NA
ATOM      6  C   UNL     1       0.655  14.287  20.287  0.00  0.00    +0.000 A 
ATOM      7  C   UNL     1       0.964  13.183  19.541  0.00  0.00    +0.000 A 
ATOM      8  N   UNL     1      -0.223  12.505  19.418  0.00  0.00    +0.000 N 
ATOM      9  C   UNL     1      -0.498  11.296  18.786  0.00  0.00    +0.000 A 
ATOM     10  O   UNL     1       0.404  10.540  18.449  0.00  0.00    +0.000 OA
ATOM     11  C   UNL     1       2.227  13.014  18.885  0.00  0.00    +0.000 C 
ATOM     12  O   UNL     1       2.475  12.166  18.036  0.00  0.00    +0.000 OA
ATOM     13  N   UNL     1       3.117  14.040  19.181  0.00  0.00    +0.000 N 
ATOM     14  C   UNL     1       4.134  14.422  18.228  0.00  0.00    +0.000 C 
ATOM     15  C   UNL     1       2.982  14.798  20.408  0.00  0.00    +0.000 C 
ATOM     16  N   UNL     1       1.601  15.207  20.551  0.00  0.00    +0.000 N 
ATOM     17  C   UNL     1       1.295  16.476  21.170  0.00  0.00    +0.000 C 
ENDROOT
BRANCH   2  18
ATOM     18  O   UNL     1      -4.205  11.609  18.942  0.00  0.00    +0.000 OA
ATOM     19  H   UNL     1      -4.665  11.643  19.797  0.00  0.00    +0.000 HD
ENDBRANCH   2  18
BRANCH   1  20
ATOM     20  C   UNL     1      -2.206   9.822  17.686  0.00  0.00    +0.000 C 
BRANCH  20  22
ATOM     21  C   UNL     1      -3.004  10.800  15.161  0.00  0.00    +0.000 C 
ATOM     22  C   UNL     1      -2.635  10.349  16.327  0.00  0.00    +0.000 C 
ENDBRANCH  20  22
ENDBRANCH   1  20
BRANCH   3  23
ATOM     23  C   UNL     1      -3.524  13.743  20.564  0.00  0.00    +0.000 C 
BRANCH  23  24
ATOM     24  C   UNL     1      -4.030  13.196  21.888  0.00  0.00    +0.000 A 
ATOM     25  C   UNL     1      -3.130  12.641  22.809  0.00  0.00    +0.000 A 
ATOM     26  C   UNL     1      -3.545  12.309  24.101  0.00  0.00    +0.000 A 
ATOM     27  C   UNL     1      -4.870  12.504  24.484  0.00  0.00    +0.000 A 
ATOM     28  C   UNL     1      -5.792  12.992  23.559  0.00  0.00    +0.000 A 
ATOM     29  C   UNL     1      -5.379  13.327  22.265  0.00  0.00    +0.000 A 
ENDBRANCH  23  24
ENDBRANCH   3  23
TORSDOF 5
ENDMDL
MODEL 5
REMARK VINA RESULT:      -6.2      2.771      7.334
REMARK  Name = 
REMARK  7 active torsions:
REMARK  status: ('A' for Active; 'I' for Inactive)
REMARK    1  A    between atoms: C_2  and  C_3
REMARK    2  A    between atoms: C_3  and  C_4
REMARK    3  A    between atoms: C_5  and  O_6
REMARK    4  A    between atoms: N_7  and  C_8
REMARK    5  A    between atoms: C_8  and  C_9
REMARK    6  A    between atoms: N_24  and  C_25
REMARK    7  A    between atoms: N_27  and  C_28
REMARK                            x       y       z     vdW  Elec       q    Type
REMARK                         _______ _______ _______ _____ _____    ______ ____
ROOT
ATOM      1  C   UNL     1      -3.102  10.685  18.397  0.00  0.00    +0.000 A 
ATOM      2  C   UNL     1      -4.112  11.499  18.760  0.00  0.00    +0.000 A 
ATOM      3  N   UNL     1      -3.939  12.559  19.649  0.00  0.00    +0.000 N 
ATOM      4  C   UNL     1      -2.687  12.920  20.056  0.00  0.00    +0.000 A 
ATOM      5  N   UNL     1      -2.283  13.965  20.761  0.00  0.00    +0.000 NA
ATOM      6  C   UNL     1      -0.929  13.861  20.774  0.00  0.00    +0.000 A 
ATOM      7  C   UNL     1      -0.474  12.768  20.088  0.00  0.00    +0.000 A 
ATOM      8  N   UNL     1      -1.611  12.122  19.675  0.00  0.00    +0.000 N 
ATOM      9  C   UNL     1      -1.753  10.934  18.962  0.00  0.00    +0.000 A 
ATOM     10  O   UNL     1      -0.809  10.166  18.821  0.00  0.00    +0.000 OA
ATOM     11  C   UNL     1       0.904  12.586  19.738  0.00  0.00    +0.000 C 
ATOM     12  O   UNL     1       1.328  11.754  18.945  0.00  0.00    +0.000 OA
ATOM     13  N   UNL     1       1.718  13.584  20.261  0.00  0.00    +0.000 N 
ATOM     14  C   UNL     1       2.935  13.965  19.582  0.00  0.00    +0.000 C 
ATOM     15  C   UNL     1       1.315  14.315  21.445  0.00  0.00    +0.000 C 
ATOM     16  N   UNL     1      -0.054  14.753  21.276  0.00  0.00    +0.000 N 
ATOM     17  C   UNL     1      -0.474  16.012  21.844  0.00  0.00    +0.000 C 
ENDROOT
BRANCH   2  18
ATOM     18  O   UNL     1      -5.389  11.329  18.264  0.00  0.00    +0.000 OA
ATOM     19  H   UNL     1      -5.954  10.914  18.936  0.00  0.00    +0.000 HD
ENDBRANCH   2  18
BRANCH   1  20
ATOM     20  C   UNL     1      -3.183   9.527  17.454  0.00  0.00    +0.000 C 
BRANCH  20  22
ATOM     21  C   UNL     1      -3.020  10.567  14.834  0.00  0.00    +0.000 C 
ATOM     22  C   UNL     1      -3.096  10.087  16.044  0.00  0.00    +0.000 C 
ENDBRANCH  20  22
ENDBRANCH   1  20
BRANCH   3  23
ATOM     23  C   UNL     1      -5.067  13.407  20.061  0.00  0.00    +0.000 C 
BRANCH  23  24
ATOM     24  C   UNL     1      -5.793  12.910  21.299  0.00  0.00    +0.000 A 
ATOM     25  C   UNL     1      -5.295  13.214  22.574  0.00  0.00    +0.000 A 
ATOM     26  C   UNL     1      -6.044  12.931  23.719  0.00  0.00    +0.000 A 
ATOM     27  C   UNL     1      -7.291  12.319  23.607  0.00  0.00    +0.000 A 
ATOM     28  C   UNL     1      -7.770  11.949  22.351  0.00  0.00    +0.000 A 
ATOM     29  C   UNL     1      -7.022  12.233  21.203  0.00  0.00    +0.000 A 
ENDBRANCH  23  24
ENDBRANCH   3  23
TORSDOF 5
ENDMDL
MODEL 6
REMARK VINA RESULT:      -6.1      2.398      4.975
REMARK  Name = 
REMARK  7 active torsions:
REMARK  status: ('A' for Active; 'I' for Inactive)
REMARK    1  A    between atoms: C_2  and  C_3
REMARK    2  A    between atoms: C_3  and  C_4
REMARK    3  A    between atoms: C_5  and  O_6
REMARK    4  A    between atoms: N_7  and  C_8
REMARK    5  A    between atoms: C_8  and  C_9
REMARK    6  A    between atoms: N_24  and  C_25
REMARK    7  A    between atoms: N_27  and  C_28
REMARK                            x       y       z     vdW  Elec       q    Type
REMARK                         _______ _______ _______ _____ _____    ______ ____
ROOT
ATOM      1  C   UNL     1      -3.326  10.408  17.590  0.00  0.00    +0.000 A 
ATOM      2  C   UNL     1      -2.083  10.632  18.055  0.00  0.00    +0.000 A 
ATOM      3  N   UNL     1      -1.795  11.643  18.972  0.00  0.00    +0.000 N 
ATOM      4  C   UNL     1      -2.805  12.341  19.568  0.00  0.00    +0.000 A 
ATOM      5  N   UNL     1      -2.773  13.220  20.556  0.00  0.00    +0.000 NA
ATOM      6  C   UNL     1      -4.078  13.508  20.796  0.00  0.00    +0.000 A 
ATOM      7  C   UNL     1      -4.932  12.824  19.975  0.00  0.00    +0.000 A 
ATOM      8  N   UNL     1      -4.111  12.115  19.136  0.00  0.00    +0.000 N 
ATOM      9  C   UNL     1      -4.432  11.268  18.079  0.00  0.00    +0.000 A 
ATOM     10  O   UNL     1      -5.561  11.250  17.605  0.00  0.00    +0.000 OA
ATOM     11  C   UNL     1      -6.345  12.757  20.203  0.00  0.00    +0.000 C 
ATOM     12  O   UNL     1      -7.117  11.988  19.640  0.00  0.00    +0.000 OA
ATOM     13  N   UNL     1      -6.745  13.541  21.279  0.00  0.00    +0.000 N 
ATOM     14  C   UNL     1      -7.907  13.177  22.057  0.00  0.00    +0.000 C 
ATOM     15  C   UNL     1      -5.953  14.682  21.690  0.00  0.00    +0.000 C 
ATOM     16  N   UNL     1      -4.568  14.275  21.789  0.00  0.00    +0.000 N 
ATOM     17  C   UNL     1      -3.721  14.868  22.796  0.00  0.00    +0.000 C 
ENDROOT
BRANCH   2  18
ATOM     18  O   UNL     1      -1.011   9.862  17.649  0.00  0.00    +0.000 OA
ATOM     19  H   UNL     1      -1.287   9.254  16.944  0.00  0.00    +0.000 HD
ENDBRANCH   2  18
BRANCH   1  20
ATOM     20  C   UNL     1      -3.737   9.353  16.612  0.00  0.00    +0.000 C 
BRANCH  20  22
ATOM     21  C   UNL     1      -2.956  10.239  14.048  0.00  0.00    +0.000 C 
ATOM     22  C   UNL     1      -3.317   9.829  15.232  0.00  0.00    +0.000 C 
ENDBRANCH  20  22
ENDBRANCH   1  20
BRANCH   3  23
ATOM     23  C   UNL     1      -0.422  11.893  19.432  0.00  0.00    +0.000 C 
BRANCH  23  24
ATOM     24  C   UNL     1       0.028  10.978  20.558  0.00  0.00    +0.000 A 
ATOM     25  C   UNL     1      -0.464  11.170  21.857  0.00  0.00    +0.000 A 
ATOM     26  C   UNL     1      -0.213  10.231  22.861  0.00  0.00    +0.000 A 
ATOM     27  C   UNL     1       0.552   9.100  22.587  0.00  0.00    +0.000 A 
ATOM     28  C   UNL     1       1.104   8.929  21.318  0.00  0.00    +0.000 A 
ATOM     29  C   UNL     1       0.853   9.867  20.311  0.00  0.00    +0.000 A 
ENDBRANCH  23  24
ENDBRANCH   3  23
TORSDOF 5
ENDMDL
MODEL 7
REMARK VINA RESULT:      -6.1      4.438      7.960
REMARK  Name = 
REMARK  7 active torsions:
REMARK  status: ('A' for Active; 'I' for Inactive)
REMARK    1  A    between atoms: C_2  and  C_3
REMARK    2  A    between atoms: C_3  and  C_4
REMARK    3  A    between atoms: C_5  and  O_6
REMARK    4  A    between atoms: N_7  and  C_8
REMARK    5  A    between atoms: C_8  and  C_9
REMARK    6  A    between atoms: N_24  and  C_25
REMARK    7  A    between atoms: N_27  and  C_28
REMARK                            x       y       z     vdW  Elec       q    Type
REMARK                         _______ _______ _______ _____ _____    ______ ____
ROOT
ATOM      1  C   UNL     1       3.003   4.471  19.617  0.00  0.00    +0.000 A 
ATOM      2  C   UNL     1       3.943   4.688  18.677  0.00  0.00    +0.000 A 
ATOM      3  N   UNL     1       4.001   5.865  17.931  0.00  0.00    +0.000 N 
ATOM      4  C   UNL     1       3.199   6.923  18.249  0.00  0.00    +0.000 A 
ATOM      5  N   UNL     1       3.191   8.162  17.784  0.00  0.00    +0.000 NA
ATOM      6  C   UNL     1       2.251   8.797  18.531  0.00  0.00    +0.000 A 
ATOM      7  C   UNL     1       1.668   7.978  19.459  0.00  0.00    +0.000 A 
ATOM      8  N   UNL     1       2.234   6.748  19.239  0.00  0.00    +0.000 N 
ATOM      9  C   UNL     1       1.995   5.530  19.869  0.00  0.00    +0.000 A 
ATOM     10  O   UNL     1       1.013   5.371  20.583  0.00  0.00    +0.000 OA
ATOM     11  C   UNL     1       0.849   8.470  20.527  0.00  0.00    +0.000 C 
ATOM     12  O   UNL     1       0.491   7.819  21.501  0.00  0.00    +0.000 OA
ATOM     13  N   UNL     1       0.641   9.842  20.444  0.00  0.00    +0.000 N 
ATOM     14  C   UNL     1       0.416  10.621  21.640  0.00  0.00    +0.000 C 
ATOM     15  C   UNL     1       0.732  10.523  19.169  0.00  0.00    +0.000 C 
ATOM     16  N   UNL     1       1.952  10.109  18.509  0.00  0.00    +0.000 N 
ATOM     17  C   UNL     1       2.668  11.051  17.681  0.00  0.00    +0.000 C 
ENDROOT
BRANCH   2  18
ATOM     18  O   UNL     1       4.917   3.749  18.401  0.00  0.00    +0.000 OA
ATOM     19  H   UNL     1       5.634   3.812  19.053  0.00  0.00    +0.000 HD
ENDBRANCH   2  18
BRANCH   1  20
ATOM     20  C   UNL     1       2.857   3.250  20.469  0.00  0.00    +0.000 C 
BRANCH  20  22
ATOM     21  C   UNL     1       1.051   1.523  19.154  0.00  0.00    +0.000 C 
ATOM     22  C   UNL     1       1.885   2.320  19.761  0.00  0.00    +0.000 C 
ENDBRANCH  20  22
ENDBRANCH   1  20
BRANCH   3  23
ATOM     23  C   UNL     1       5.013   6.059  16.883  0.00  0.00    +0.000 C 
BRANCH  23  24
ATOM     24  C   UNL     1       6.318   6.652  17.387  0.00  0.00    +0.000 A 
ATOM     25  C   UNL     1       6.690   7.951  17.012  0.00  0.00    +0.000 A 
ATOM     26  C   UNL     1       7.783   8.580  17.612  0.00  0.00    +0.000 A 
ATOM     27  C   UNL     1       8.534   7.913  18.578  0.00  0.00    +0.000 A 
ATOM     28  C   UNL     1       8.217   6.597  18.912  0.00  0.00    +0.000 A 
ATOM     29  C   UNL     1       7.122   5.965  18.314  0.00  0.00    +0.000 A 
ENDBRANCH  23  24
ENDBRANCH   3  23
TORSDOF 5
ENDMDL
MODEL 8
REMARK VINA RESULT:      -6.1      2.712      7.283
REMARK  Name = 
REMARK  7 active torsions:
REMARK  status: ('A' for Active; 'I' for Inactive)
REMARK    1  A    between atoms: C_2  and  C_3
REMARK    2  A    between atoms: C_3  and  C_4
REMARK    3  A    between atoms: C_5  and  O_6
REMARK    4  A    between atoms: N_7  and  C_8
REMARK    5  A    between atoms: C_8  and  C_9
REMARK    6  A    between atoms: N_24  and  C_25
REMARK    7  A    between atoms: N_27  and  C_28
REMARK                            x       y       z     vdW  Elec       q    Type
REMARK                         _______ _______ _______ _____ _____    ______ ____
ROOT
ATOM      1  C   UNL     1      -3.046  10.349  17.654  0.00  0.00    +0.000 A 
ATOM      2  C   UNL     1      -4.177  11.068  17.777  0.00  0.00    +0.000 A 
ATOM      3  N   UNL     1      -4.334  12.060  18.746  0.00  0.00    +0.000 N 
ATOM      4  C   UNL     1      -3.271  12.459  19.502  0.00  0.00    +0.000 A 
ATOM      5  N   UNL     1      -3.155  13.463  20.357  0.00  0.00    +0.000 NA
ATOM      6  C   UNL     1      -1.851  13.438  20.734  0.00  0.00    +0.000 A 
ATOM      7  C   UNL     1      -1.143  12.435  20.131  0.00  0.00    +0.000 A 
ATOM      8  N   UNL     1      -2.072  11.759  19.380  0.00  0.00    +0.000 N 
ATOM      9  C   UNL     1      -1.922  10.629  18.581  0.00  0.00    +0.000 A 
ATOM     10  O   UNL     1      -0.918   9.933  18.656  0.00  0.00    +0.000 OA
ATOM     11  C   UNL     1       0.288  12.364  20.161  0.00  0.00    +0.000 C 
ATOM     12  O   UNL     1       0.975  11.628  19.463  0.00  0.00    +0.000 OA
ATOM     13  N   UNL     1       0.850  13.362  20.950  0.00  0.00    +0.000 N 
ATOM     14  C   UNL     1       2.170  13.870  20.656  0.00  0.00    +0.000 C 
ATOM     15  C   UNL     1       0.086  13.967  22.022  0.00  0.00    +0.000 C 
ATOM     16  N   UNL     1      -1.218  14.335  21.513  0.00  0.00    +0.000 N 
ATOM     17  C   UNL     1      -1.874  15.516  22.023  0.00  0.00    +0.000 C 
ENDROOT
BRANCH   2  18
ATOM     18  O   UNL     1      -5.256  10.866  16.940  0.00  0.00    +0.000 OA
ATOM     19  H   UNL     1      -5.936  11.539  17.106  0.00  0.00    +0.000 HD
ENDBRANCH   2  18
BRANCH   1  20
ATOM     20  C   UNL     1      -2.778   9.271  16.652  0.00  0.00    +0.000 C 
BRANCH  20  22
ATOM     21  C   UNL     1      -3.250  10.368  14.094  0.00  0.00    +0.000 C 
ATOM     22  C   UNL     1      -3.032   9.862  15.275  0.00  0.00    +0.000 C 
ENDBRANCH  20  22
ENDBRANCH   1  20
BRANCH   3  23
ATOM     23  C   UNL     1      -5.595  12.802  18.886  0.00  0.00    +0.000 C 
BRANCH  23  24
ATOM     24  C   UNL     1      -6.508  12.268  19.976  0.00  0.00    +0.000 A 
ATOM     25  C   UNL     1      -7.176  11.048  19.797  0.00  0.00    +0.000 A 
ATOM     26  C   UNL     1      -7.865  10.450  20.855  0.00  0.00    +0.000 A 
ATOM     27  C   UNL     1      -7.916  11.074  22.100  0.00  0.00    +0.000 A 
ATOM     28  C   UNL     1      -7.314  12.319  22.275  0.00  0.00    +0.000 A 
ATOM     29  C   UNL     1      -6.622  12.919  21.217  0.00  0.00    +0.000 A 
ENDBRANCH  23  24
ENDBRANCH   3  23
TORSDOF 5
ENDMDL
MODEL 9
REMARK VINA RESULT:      -6.0      8.825     10.073
REMARK  Name = 
REMARK  7 active torsions:
REMARK  status: ('A' for Active; 'I' for Inactive)
REMARK    1  A    between atoms: C_2  and  C_3
REMARK    2  A    between atoms: C_3  and  C_4
REMARK    3  A    between atoms: C_5  and  O_6
REMARK    4  A    between atoms: N_7  and  C_8
REMARK    5  A    between atoms: C_8  and  C_9
REMARK    6  A    between atoms: N_24  and  C_25
REMARK    7  A    between atoms: N_27  and  C_28
REMARK                            x       y       z     vdW  Elec       q    Type
REMARK                         _______ _______ _______ _____ _____    ______ ____
ROOT
ATOM      1  C   UNL     1       6.626  12.212  23.435  0.00  0.00    +0.000 A 
ATOM      2  C   UNL     1       7.921  12.021  23.116  0.00  0.00    +0.000 A 
ATOM      3  N   UNL     1       8.573  12.779  22.143  0.00  0.00    +0.000 N 
ATOM      4  C   UNL     1       7.962  13.868  21.593  0.00  0.00    +0.000 A 
ATOM      5  N   UNL     1       8.438  14.799  20.782  0.00  0.00    +0.000 NA
ATOM      6  C   UNL     1       7.417  15.684  20.645  0.00  0.00    +0.000 A 
ATOM      7  C   UNL     1       6.305  15.324  21.357  0.00  0.00    +0.000 A 
ATOM      8  N   UNL     1       6.632  14.118  21.923  0.00  0.00    +0.000 N 
ATOM      9  C   UNL     1       5.870  13.274  22.726  0.00  0.00    +0.000 A 
ATOM     10  O   UNL     1       4.659  13.423  22.828  0.00  0.00    +0.000 OA
ATOM     11  C   UNL     1       5.204  16.213  21.583  0.00  0.00    +0.000 C 
ATOM     12  O   UNL     1       4.298  16.027  22.388  0.00  0.00    +0.000 OA
ATOM     13  N   UNL     1       5.357  17.424  20.917  0.00  0.00    +0.000 N 
ATOM     14  C   UNL     1       4.765  18.630  21.447  0.00  0.00    +0.000 C 
ATOM     15  C   UNL     1       6.183  17.509  19.730  0.00  0.00    +0.000 C 
ATOM     16  N   UNL     1       7.451  16.864  20.000  0.00  0.00    +0.000 N 
ATOM     17  C   UNL     1       8.655  17.378  19.390  0.00  0.00    +0.000 C 
ENDROOT
BRANCH   2  18
ATOM     18  O   UNL     1       8.684  11.058  23.744  0.00  0.00    +0.000 OA
ATOM     19  H   UNL     1       9.054  11.414  24.569  0.00  0.00    +0.000 HD
ENDBRANCH   2  18
BRANCH   1  20
ATOM     20  C   UNL     1       5.839  11.458  24.459  0.00  0.00    +0.000 C 
BRANCH  20  22
ATOM     21  C   UNL     1       6.699  12.347  26.997  0.00  0.00    +0.000 C 
ATOM     22  C   UNL     1       6.302  11.937  25.825  0.00  0.00    +0.000 C 
ENDBRANCH  20  22
ENDBRANCH   1  20
BRANCH   3  23
ATOM     23  C   UNL     1       9.976  12.523  21.786  0.00  0.00    +0.000 C 
BRANCH  23  24
ATOM     24  C   UNL     1      10.159  11.909  20.408  0.00  0.00    +0.000 A 
ATOM     25  C   UNL     1       9.275  10.918  19.958  0.00  0.00    +0.000 A 
ATOM     26  C   UNL     1       9.311  10.479  18.632  0.00  0.00    +0.000 A 
ATOM     27  C   UNL     1      10.245  11.007  17.743  0.00  0.00    +0.000 A 
ATOM     28  C   UNL     1      11.175  11.945  18.194  0.00  0.00    +0.000 A 
ATOM     29  C   UNL     1      11.140  12.386  19.520  0.00  0.00    +0.000 A 
ENDBRANCH  23  24
ENDBRANCH   3  23
TORSDOF 5
ENDMDL
