MODEL 1
REMARK VINA RESULT:      -7.0      0.000      0.000
REMARK  Name = 
REMARK  8 active torsions:
REMARK  status: ('A' for Active; 'I' for Inactive)
REMARK    1  A    between atoms: C_1  and  C_2
REMARK    2  A    between atoms: C_2  and  C_3
REMARK    3  A    between atoms: C_8  and  N_9
REMARK    4  A    between atoms: C_10  and  C_12
REMARK    5  A    between atoms: C_12  and  N_13
REMARK    6  A    between atoms: N_13  and  C_14
REMARK    7  A    between atoms: N_13  and  S_20
REMARK    8  A    between atoms: S_20  and  C_21
REMARK                            x       y       z     vdW  Elec       q    Type
REMARK                         _______ _______ _______ _____ _____    ______ ____
ROOT
ATOM      1  N   UNL     1       2.657   7.562  19.717  0.00  0.00    +0.000 N 
ATOM      2  C   UNL     1       2.814   6.329  19.103  0.00  0.00    +0.000 C 
ATOM      3  O   UNL     1       2.162   5.879  18.163  0.00  0.00    +0.000 OA
ATOM      4  H   UNL     1       3.223   7.712  20.549  0.00  0.00    +0.000 HD
ENDROOT
BRANCH   1  10
ATOM      5  C   UNL     1       0.840   9.034  20.483  0.00  0.00    +0.000 A 
ATOM      6  C   UNL     1      -0.150   9.988  20.164  0.00  0.00    +0.000 A 
ATOM      7  C   UNL     1      -0.387  10.383  18.847  0.00  0.00    +0.000 A 
ATOM      8  C   UNL     1       0.373   9.836  17.826  0.00  0.00    +0.000 A 
ATOM      9  C   UNL     1       1.384   8.923  18.123  0.00  0.00    +0.000 A 
ATOM     10  C   UNL     1       1.638   8.509  19.440  0.00  0.00    +0.000 A 
BRANCH   5  12
ATOM     11  C   UNL     1       0.033   9.401  22.875  0.00  0.00    +0.000 C 
ATOM     12  C   UNL     1       0.887   8.578  21.930  0.00  0.00    +0.000 C 
ENDBRANCH   5  12
ENDBRANCH   1  10
BRANCH   2  13
ATOM     13  C   UNL     1       3.932   5.500  19.682  0.00  0.00    +0.000 C 
BRANCH  13  14
ATOM     14  N   UNL     1       4.403   4.331  18.870  0.00  0.00    +0.000 NA
BRANCH  14  15
ATOM     15  C   UNL     1       5.808   4.477  18.297  0.00  0.00    +0.000 C 
ATOM     16  C   UNL     1       5.991   3.952  16.866  0.00  0.00    +0.000 C 
ATOM     17  C   UNL     1       5.047   4.632  15.874  0.00  0.00    +0.000 C 
ATOM     18  C   UNL     1       5.190   6.148  15.848  0.00  0.00    +0.000 C 
ATOM     19  C   UNL     1       5.484   6.799  17.194  0.00  0.00    +0.000 C 
ATOM     20  C   UNL     1       6.266   5.957  18.204  0.00  0.00    +0.000 C 
ENDBRANCH  14  15
BRANCH  14  21
ATOM     21  S   UNL     1       3.737   2.855  19.421  0.00  0.00    +0.000 S 
ATOM     22  C   UNL     1       3.161   1.999  17.950  0.00  0.00    +0.000 C 
ATOM     23  O   UNL     1       4.861   2.107  19.924  0.00  0.00    +0.000 OA
ATOM     24  O   UNL     1       2.565   3.062  20.243  0.00  0.00    +0.000 OA
ENDBRANCH  14  21
ENDBRANCH  13  14
ENDBRANCH   2  13
TORSDOF 6
ENDMDL
MODEL 2
REMARK VINA RESULT:      -7.0      1.328      1.653
REMARK  Name = 
REMARK  8 active torsions:
REMARK  status: ('A' for Active; 'I' for Inactive)
REMARK    1  A    between atoms: C_1  and  C_2
REMARK    2  A    between atoms: C_2  and  C_3
REMARK    3  A    between atoms: C_8  and  N_9
REMARK    4  A    between atoms: C_10  and  C_12
REMARK    5  A    between atoms: C_12  and  N_13
REMARK    6  A    between atoms: N_13  and  C_14
REMARK    7  A    between atoms: N_13  and  S_20
REMARK    8  A    between atoms: S_20  and  C_21
REMARK                            x       y       z     vdW  Elec       q    Type
REMARK                         _______ _______ _______ _____ _____    ______ ____
ROOT
ATOM      1  N   UNL     1       1.982   7.744  20.093  0.00  0.00    +0.000 N 
ATOM      2  C   UNL     1       2.548   6.995  19.073  0.00  0.00    +0.000 C 
ATOM      3  O   UNL     1       2.606   7.288  17.881  0.00  0.00    +0.000 OA
ATOM      4  H   UNL     1       1.938   7.285  21.000  0.00  0.00    +0.000 HD
ENDROOT
BRANCH   1  10
ATOM      5  C   UNL     1       0.818   9.680  21.070  0.00  0.00    +0.000 A 
ATOM      6  C   UNL     1       0.125  10.893  20.869  0.00  0.00    +0.000 A 
ATOM      7  C   UNL     1      -0.170  11.362  19.589  0.00  0.00    +0.000 A 
ATOM      8  C   UNL     1       0.237  10.630  18.485  0.00  0.00    +0.000 A 
ATOM      9  C   UNL     1       0.960   9.452  18.660  0.00  0.00    +0.000 A 
ATOM     10  C   UNL     1       1.264   8.958  19.938  0.00  0.00    +0.000 A 
BRANCH   5  12
ATOM     11  C   UNL     1      -0.257   9.552  23.379  0.00  0.00    +0.000 C 
ATOM     12  C   UNL     1       0.934   9.206  22.507  0.00  0.00    +0.000 C 
ENDBRANCH   5  12
ENDBRANCH   1  10
BRANCH   2  13
ATOM     13  C   UNL     1       3.159   5.698  19.539  0.00  0.00    +0.000 C 
BRANCH  13  14
ATOM     14  N   UNL     1       3.330   4.619  18.512  0.00  0.00    +0.000 NA
BRANCH  14  15
ATOM     15  C   UNL     1       4.760   4.114  18.350  0.00  0.00    +0.000 C 
ATOM     16  C   UNL     1       5.119   3.599  16.949  0.00  0.00    +0.000 C 
ATOM     17  C   UNL     1       4.912   4.663  15.870  0.00  0.00    +0.000 C 
ATOM     18  C   UNL     1       5.698   5.941  16.125  0.00  0.00    +0.000 C 
ATOM     19  C   UNL     1       5.824   6.350  17.587  0.00  0.00    +0.000 C 
ATOM     20  C   UNL     1       5.818   5.217  18.616  0.00  0.00    +0.000 C 
ENDBRANCH  14  15
BRANCH  14  21
ATOM     21  S   UNL     1       1.940   3.632  18.378  0.00  0.00    +0.000 S 
ATOM     22  C   UNL     1       1.048   3.832  19.925  0.00  0.00    +0.000 C 
ATOM     23  O   UNL     1       1.141   4.257  17.354  0.00  0.00    +0.000 OA
ATOM     24  O   UNL     1       2.276   2.229  18.294  0.00  0.00    +0.000 OA
ENDBRANCH  14  21
ENDBRANCH  13  14
ENDBRANCH   2  13
TORSDOF 6
ENDMDL
MODEL 3
REMARK VINA RESULT:      -6.9      1.726      3.639
REMARK  Name = 
REMARK  8 active torsions:
REMARK  status: ('A' for Active; 'I' for Inactive)
REMARK    1  A    between atoms: C_1  and  C_2
REMARK    2  A    between atoms: C_2  and  C_3
REMARK    3  A    between atoms: C_8  and  N_9
REMARK    4  A    between atoms: C_10  and  C_12
REMARK    5  A    between atoms: C_12  and  N_13
REMARK    6  A    between atoms: N_13  and  C_14
REMARK    7  A    between atoms: N_13  and  S_20
REMARK    8  A    between atoms: S_20  and  C_21
REMARK                            x       y       z     vdW  Elec       q    Type
REMARK                         _______ _______ _______ _____ _____    ______ ____
ROOT
ATOM      1  N   UNL     1       1.836   8.005  19.167  0.00  0.00    +0.000 N 
ATOM      2  C   UNL     1       2.482   6.791  19.340  0.00  0.00    +0.000 C 
ATOM      3  O   UNL     1       2.519   6.109  20.363  0.00  0.00    +0.000 OA
ATOM      4  H   UNL     1       2.009   8.470  18.277  0.00  0.00    +0.000 HD
ENDROOT
BRANCH   1  10
ATOM      5  C   UNL     1       0.240   9.757  19.831  0.00  0.00    +0.000 A 
ATOM      6  C   UNL     1      -0.411  10.459  20.868  0.00  0.00    +0.000 A 
ATOM      7  C   UNL     1      -0.119  10.217  22.210  0.00  0.00    +0.000 A 
ATOM      8  C   UNL     1       0.823   9.256  22.539  0.00  0.00    +0.000 A 
ATOM      9  C   UNL     1       1.447   8.520  21.532  0.00  0.00    +0.000 A 
ATOM     10  C   UNL     1       1.172   8.750  20.175  0.00  0.00    +0.000 A 
BRANCH   5  12
ATOM     11  C   UNL     1      -1.529  10.319  18.082  0.00  0.00    +0.000 C 
ATOM     12  C   UNL     1      -0.053  10.226  18.418  0.00  0.00    +0.000 C 
ENDBRANCH   5  12
ENDBRANCH   1  10
BRANCH   2  13
ATOM     13  C   UNL     1       3.183   6.294  18.102  0.00  0.00    +0.000 C 
BRANCH  13  14
ATOM     14  N   UNL     1       3.762   4.911  18.158  0.00  0.00    +0.000 NA
BRANCH  14  15
ATOM     15  C   UNL     1       2.963   3.855  17.401  0.00  0.00    +0.000 C 
ATOM     16  C   UNL     1       3.328   2.400  17.726  0.00  0.00    +0.000 C 
ATOM     17  C   UNL     1       3.167   2.080  19.213  0.00  0.00    +0.000 C 
ATOM     18  C   UNL     1       1.764   2.349  19.739  0.00  0.00    +0.000 C 
ATOM     19  C   UNL     1       1.062   3.560  19.137  0.00  0.00    +0.000 C 
ATOM     20  C   UNL     1       1.443   3.926  17.700  0.00  0.00    +0.000 C 
ENDBRANCH  14  15
BRANCH  14  21
ATOM     21  S   UNL     1       5.468   4.932  18.267  0.00  0.00    +0.000 S 
ATOM     22  C   UNL     1       6.067   4.270  16.708  0.00  0.00    +0.000 C 
ATOM     23  O   UNL     1       5.820   6.330  18.287  0.00  0.00    +0.000 OA
ATOM     24  O   UNL     1       5.958   4.038  19.292  0.00  0.00    +0.000 OA
ENDBRANCH  14  21
ENDBRANCH  13  14
ENDBRANCH   2  13
TORSDOF 6
ENDMDL
MODEL 4
REMARK VINA RESULT:      -6.9      0.975      1.161
REMARK  Name = 
REMARK  8 active torsions:
REMARK  status: ('A' for Active; 'I' for Inactive)
REMARK    1  A    between atoms: C_1  and  C_2
REMARK    2  A    between atoms: C_2  and  C_3
REMARK    3  A    between atoms: C_8  and  N_9
REMARK    4  A    between atoms: C_10  and  C_12
REMARK    5  A    between atoms: C_12  and  N_13
REMARK    6  A    between atoms: N_13  and  C_14
REMARK    7  A    between atoms: N_13  and  S_20
REMARK    8  A    between atoms: S_20  and  C_21
REMARK                            x       y       z     vdW  Elec       q    Type
REMARK                         _______ _______ _______ _____ _____    ______ ____
ROOT
ATOM      1  N   UNL     1       2.484   7.327  19.679  0.00  0.00    +0.000 N 
ATOM      2  C   UNL     1       2.408   6.139  18.969  0.00  0.00    +0.000 C 
ATOM      3  O   UNL     1       1.699   5.902  17.993  0.00  0.00    +0.000 OA
ATOM      4  H   UNL     1       3.052   7.296  20.523  0.00  0.00    +0.000 HD
ENDROOT
BRANCH   1  10
ATOM      5  C   UNL     1       1.002   9.083  20.560  0.00  0.00    +0.000 A 
ATOM      6  C   UNL     1       0.225  10.235  20.315  0.00  0.00    +0.000 A 
ATOM      7  C   UNL     1       0.072  10.752  19.028  0.00  0.00    +0.000 A 
ATOM      8  C   UNL     1       0.705  10.130  17.964  0.00  0.00    +0.000 A 
ATOM      9  C   UNL     1       1.511   9.015  18.191  0.00  0.00    +0.000 A 
ATOM     10  C   UNL     1       1.677   8.476  19.475  0.00  0.00    +0.000 A 
BRANCH   5  12
ATOM     11  C   UNL     1       0.089   9.334  22.928  0.00  0.00    +0.000 C 
ATOM     12  C   UNL     1       0.957   8.535  21.975  0.00  0.00    +0.000 C 
ENDBRANCH   5  12
ENDBRANCH   1  10
BRANCH   2  13
ATOM     13  C   UNL     1       3.329   5.063  19.484  0.00  0.00    +0.000 C 
BRANCH  13  14
ATOM     14  N   UNL     1       3.894   4.110  18.472  0.00  0.00    +0.000 NA
BRANCH  14  15
ATOM     15  C   UNL     1       5.390   4.266  18.217  0.00  0.00    +0.000 C 
ATOM     16  C   UNL     1       5.871   3.799  16.836  0.00  0.00    +0.000 C 
ATOM     17  C   UNL     1       5.160   4.530  15.697  0.00  0.00    +0.000 C 
ATOM     18  C   UNL     1       5.307   6.044  15.767  0.00  0.00    +0.000 C 
ATOM     19  C   UNL     1       5.310   6.635  17.172  0.00  0.00    +0.000 C 
ATOM     20  C   UNL     1       5.859   5.743  18.287  0.00  0.00    +0.000 C 
ENDBRANCH  14  15
BRANCH  14  21
ATOM     21  S   UNL     1       3.067   2.614  18.466  0.00  0.00    +0.000 S 
ATOM     22  C   UNL     1       1.947   2.668  19.870  0.00  0.00    +0.000 C 
ATOM     23  O   UNL     1       2.248   2.650  17.280  0.00  0.00    +0.000 OA
ATOM     24  O   UNL     1       3.956   1.501  18.711  0.00  0.00    +0.000 OA
ENDBRANCH  14  21
ENDBRANCH  13  14
ENDBRANCH   2  13
TORSDOF 6
ENDMDL
MODEL 5
REMARK VINA RESULT:      -6.8      1.448      2.507
REMARK  Name = 
REMARK  8 active torsions:
REMARK  status: ('A' for Active; 'I' for Inactive)
REMARK    1  A    between atoms: C_1  and  C_2
REMARK    2  A    between atoms: C_2  and  C_3
REMARK    3  A    between atoms: C_8  and  N_9
REMARK    4  A    between atoms: C_10  and  C_12
REMARK    5  A    between atoms: C_12  and  N_13
REMARK    6  A    between atoms: N_13  and  C_14
REMARK    7  A    between atoms: N_13  and  S_20
REMARK    8  A    between atoms: S_20  and  C_21
REMARK                            x       y       z     vdW  Elec       q    Type
REMARK                         _______ _______ _______ _____ _____    ______ ____
ROOT
ATOM      1  N   UNL     1       2.367   6.796  20.378  0.00  0.00    +0.000 N 
ATOM      2  C   UNL     1       1.981   5.465  20.402  0.00  0.00    +0.000 C 
ATOM      3  O   UNL     1       0.838   5.026  20.510  0.00  0.00    +0.000 OA
ATOM      4  H   UNL     1       3.372   6.961  20.389  0.00  0.00    +0.000 HD
ENDROOT
BRANCH   1  10
ATOM      5  C   UNL     1       1.274   8.831  19.528  0.00  0.00    +0.000 A 
ATOM      6  C   UNL     1       0.408   9.919  19.766  0.00  0.00    +0.000 A 
ATOM      7  C   UNL     1      -0.165  10.136  21.020  0.00  0.00    +0.000 A 
ATOM      8  C   UNL     1       0.110   9.257  22.055  0.00  0.00    +0.000 A 
ATOM      9  C   UNL     1       0.928   8.151  21.829  0.00  0.00    +0.000 A 
ATOM     10  C   UNL     1       1.519   7.916  20.579  0.00  0.00    +0.000 A 
BRANCH   5  12
ATOM     11  C   UNL     1       2.361  10.163  17.644  0.00  0.00    +0.000 C 
ATOM     12  C   UNL     1       1.952   8.800  18.171  0.00  0.00    +0.000 C 
ENDBRANCH   5  12
ENDBRANCH   1  10
BRANCH   2  13
ATOM     13  C   UNL     1       3.127   4.498  20.257  0.00  0.00    +0.000 C 
BRANCH  13  14
ATOM     14  N   UNL     1       3.517   4.108  18.861  0.00  0.00    +0.000 NA
BRANCH  14  15
ATOM     15  C   UNL     1       5.003   4.251  18.551  0.00  0.00    +0.000 C 
ATOM     16  C   UNL     1       5.396   3.990  17.091  0.00  0.00    +0.000 C 
ATOM     17  C   UNL     1       4.661   4.914  16.119  0.00  0.00    +0.000 C 
ATOM     18  C   UNL     1       4.875   6.392  16.413  0.00  0.00    +0.000 C 
ATOM     19  C   UNL     1       4.972   6.756  17.890  0.00  0.00    +0.000 C 
ATOM     20  C   UNL     1       5.537   5.682  18.822  0.00  0.00    +0.000 C 
ENDBRANCH  14  15
BRANCH  14  21
ATOM     21  S   UNL     1       2.518   2.869  18.237  0.00  0.00    +0.000 S 
ATOM     22  C   UNL     1       1.732   2.109  19.663  0.00  0.00    +0.000 C 
ATOM     23  O   UNL     1       1.481   3.560  17.511  0.00  0.00    +0.000 OA
ATOM     24  O   UNL     1       3.285   1.821  17.603  0.00  0.00    +0.000 OA
ENDBRANCH  14  21
ENDBRANCH  13  14
ENDBRANCH   2  13
TORSDOF 6
ENDMDL
MODEL 6
REMARK VINA RESULT:      -6.7      1.938      3.715
REMARK  Name = 
REMARK  8 active torsions:
REMARK  status: ('A' for Active; 'I' for Inactive)
REMARK    1  A    between atoms: C_1  and  C_2
REMARK    2  A    between atoms: C_2  and  C_3
REMARK    3  A    between atoms: C_8  and  N_9
REMARK    4  A    between atoms: C_10  and  C_12
REMARK    5  A    between atoms: C_12  and  N_13
REMARK    6  A    between atoms: N_13  and  C_14
REMARK    7  A    between atoms: N_13  and  S_20
REMARK    8  A    between atoms: S_20  and  C_21
REMARK                            x       y       z     vdW  Elec       q    Type
REMARK                         _______ _______ _______ _____ _____    ______ ____
ROOT
ATOM      1  N   UNL     1       1.867   8.005  18.960  0.00  0.00    +0.000 N 
ATOM      2  C   UNL     1       2.646   6.879  19.174  0.00  0.00    +0.000 C 
ATOM      3  O   UNL     1       2.889   6.339  20.252  0.00  0.00    +0.000 OA
ATOM      4  H   UNL     1       1.870   8.364  18.007  0.00  0.00    +0.000 HD
ENDROOT
BRANCH   1  10
ATOM      5  C   UNL     1       1.085  10.202  19.747  0.00  0.00    +0.000 A 
ATOM      6  C   UNL     1       0.477  10.967  20.765  0.00  0.00    +0.000 A 
ATOM      7  C   UNL     1       0.111  10.400  21.986  0.00  0.00    +0.000 A 
ATOM      8  C   UNL     1       0.338   9.051  22.205  0.00  0.00    +0.000 A 
ATOM      9  C   UNL     1       0.898   8.267  21.197  0.00  0.00    +0.000 A 
ATOM     10  C   UNL     1       1.278   8.817  19.962  0.00  0.00    +0.000 A 
BRANCH   5  12
ATOM     11  C   UNL     1       1.460  12.478  18.660  0.00  0.00    +0.000 C 
ATOM     12  C   UNL     1       1.576  10.971  18.535  0.00  0.00    +0.000 C 
ENDBRANCH   5  12
ENDBRANCH   1  10
BRANCH   2  13
ATOM     13  C   UNL     1       3.217   6.285  17.912  0.00  0.00    +0.000 C 
BRANCH  13  14
ATOM     14  N   UNL     1       3.743   4.883  17.998  0.00  0.00    +0.000 NA
BRANCH  14  15
ATOM     15  C   UNL     1       2.827   3.821  17.400  0.00  0.00    +0.000 C 
ATOM     16  C   UNL     1       3.206   2.370  17.725  0.00  0.00    +0.000 C 
ATOM     17  C   UNL     1       3.248   2.106  19.231  0.00  0.00    +0.000 C 
ATOM     18  C   UNL     1       1.938   2.427  19.937  0.00  0.00    +0.000 C 
ATOM     19  C   UNL     1       1.181   3.633  19.392  0.00  0.00    +0.000 C 
ATOM     20  C   UNL     1       1.365   3.939  17.904  0.00  0.00    +0.000 C 
ENDBRANCH  14  15
BRANCH  14  21
ATOM     21  S   UNL     1       5.451   4.832  17.927  0.00  0.00    +0.000 S 
ATOM     22  C   UNL     1       5.980   6.526  17.641  0.00  0.00    +0.000 C 
ATOM     23  O   UNL     1       5.866   4.487  19.263  0.00  0.00    +0.000 OA
ATOM     24  O   UNL     1       5.925   4.073  16.791  0.00  0.00    +0.000 OA
ENDBRANCH  14  21
ENDBRANCH  13  14
ENDBRANCH   2  13
TORSDOF 6
ENDMDL
MODEL 7
REMARK VINA RESULT:      -6.6      1.236      1.418
REMARK  Name = 
REMARK  8 active torsions:
REMARK  status: ('A' for Active; 'I' for Inactive)
REMARK    1  A    between atoms: C_1  and  C_2
REMARK    2  A    between atoms: C_2  and  C_3
REMARK    3  A    between atoms: C_8  and  N_9
REMARK    4  A    between atoms: C_10  and  C_12
REMARK    5  A    between atoms: C_12  and  N_13
REMARK    6  A    between atoms: N_13  and  C_14
REMARK    7  A    between atoms: N_13  and  S_20
REMARK    8  A    between atoms: S_20  and  C_21
REMARK                            x       y       z     vdW  Elec       q    Type
REMARK                         _______ _______ _______ _____ _____    ______ ____
ROOT
ATOM      1  N   UNL     1       2.055   7.792  20.274  0.00  0.00    +0.000 N 
ATOM      2  C   UNL     1       2.439   6.793  19.394  0.00  0.00    +0.000 C 
ATOM      3  O   UNL     1       2.221   6.744  18.185  0.00  0.00    +0.000 OA
ATOM      4  H   UNL     1       2.238   7.603  21.258  0.00  0.00    +0.000 HD
ENDROOT
BRANCH   1  10
ATOM      5  C   UNL     1       0.570   9.620  20.988  0.00  0.00    +0.000 A 
ATOM      6  C   UNL     1      -0.215  10.739  20.634  0.00  0.00    +0.000 A 
ATOM      7  C   UNL     1      -0.379  11.125  19.304  0.00  0.00    +0.000 A 
ATOM      8  C   UNL     1       0.250  10.403  18.303  0.00  0.00    +0.000 A 
ATOM      9  C   UNL     1       1.064   9.320  18.633  0.00  0.00    +0.000 A 
ATOM     10  C   UNL     1       1.241   8.911  19.963  0.00  0.00    +0.000 A 
BRANCH   5  12
ATOM     11  C   UNL     1      -0.596   9.833  23.246  0.00  0.00    +0.000 C 
ATOM     12  C   UNL     1       0.537   9.215  22.450  0.00  0.00    +0.000 C 
ENDBRANCH   5  12
ENDBRANCH   1  10
BRANCH   2  13
ATOM     13  C   UNL     1       3.223   5.680  20.042  0.00  0.00    +0.000 C 
BRANCH  13  14
ATOM     14  N   UNL     1       3.106   4.317  19.427  0.00  0.00    +0.000 NA
BRANCH  14  15
ATOM     15  C   UNL     1       4.434   3.680  19.032  0.00  0.00    +0.000 C 
ATOM     16  C   UNL     1       4.470   3.053  17.632  0.00  0.00    +0.000 C 
ATOM     17  C   UNL     1       4.134   4.064  16.536  0.00  0.00    +0.000 C 
ATOM     18  C   UNL     1       5.049   5.282  16.537  0.00  0.00    +0.000 C 
ATOM     19  C   UNL     1       5.491   5.764  17.914  0.00  0.00    +0.000 C 
ATOM     20  C   UNL     1       5.603   4.699  19.007  0.00  0.00    +0.000 C 
ENDBRANCH  14  15
BRANCH  14  21
ATOM     21  S   UNL     1       1.765   3.449  20.036  0.00  0.00    +0.000 S 
ATOM     22  C   UNL     1       1.036   2.617  18.621  0.00  0.00    +0.000 C 
ATOM     23  O   UNL     1       2.337   2.424  20.872  0.00  0.00    +0.000 OA
ATOM     24  O   UNL     1       0.738   4.327  20.551  0.00  0.00    +0.000 OA
ENDBRANCH  14  21
ENDBRANCH  13  14
ENDBRANCH   2  13
TORSDOF 6
ENDMDL
MODEL 8
REMARK VINA RESULT:      -6.5      3.438      7.574
REMARK  Name = 
REMARK  8 active torsions:
REMARK  status: ('A' for Active; 'I' for Inactive)
REMARK    1  A    between atoms: C_1  and  C_2
REMARK    2  A    between atoms: C_2  and  C_3
REMARK    3  A    between atoms: C_8  and  N_9
REMARK    4  A    between atoms: C_10  and  C_12
REMARK    5  A    between atoms: C_12  and  N_13
REMARK    6  A    between atoms: N_13  and  C_14
REMARK    7  A    between atoms: N_13  and  S_20
REMARK    8  A    between atoms: S_20  and  C_21
REMARK                            x       y       z     vdW  Elec       q    Type
REMARK                         _______ _______ _______ _____ _____    ______ ____
ROOT
ATOM      1  N   UNL     1       6.392   4.023  14.909  0.00  0.00    +0.000 N 
ATOM      2  C   UNL     1       5.499   4.672  15.747  0.00  0.00    +0.000 C 
ATOM      3  O   UNL     1       4.923   5.738  15.537  0.00  0.00    +0.000 OA
ATOM      4  H   UNL     1       6.846   3.202  15.304  0.00  0.00    +0.000 HD
ENDROOT
BRANCH   1  10
ATOM      5  C   UNL     1       6.414   4.021  12.448  0.00  0.00    +0.000 A 
ATOM      6  C   UNL     1       6.931   4.559  11.250  0.00  0.00    +0.000 A 
ATOM      7  C   UNL     1       7.933   5.530  11.258  0.00  0.00    +0.000 A 
ATOM      8  C   UNL     1       8.428   5.987  12.468  0.00  0.00    +0.000 A 
ATOM      9  C   UNL     1       7.902   5.500  13.663  0.00  0.00    +0.000 A 
ATOM     10  C   UNL     1       6.897   4.521  13.680  0.00  0.00    +0.000 A 
BRANCH   5  12
ATOM     11  C   UNL     1       4.263   3.150  11.392  0.00  0.00    +0.000 C 
ATOM     12  C   UNL     1       5.444   2.864  12.298  0.00  0.00    +0.000 C 
ENDBRANCH   5  12
ENDBRANCH   1  10
BRANCH   2  13
ATOM     13  C   UNL     1       5.228   3.934  17.033  0.00  0.00    +0.000 C 
BRANCH  13  14
ATOM     14  N   UNL     1       5.368   4.713  18.307  0.00  0.00    +0.000 NA
BRANCH  14  15
ATOM     15  C   UNL     1       4.359   4.351  19.391  0.00  0.00    +0.000 C 
ATOM     16  C   UNL     1       3.362   5.459  19.757  0.00  0.00    +0.000 C 
ATOM     17  C   UNL     1       2.550   5.929  18.549  0.00  0.00    +0.000 C 
ATOM     18  C   UNL     1       1.784   4.806  17.864  0.00  0.00    +0.000 C 
ATOM     19  C   UNL     1       2.493   3.457  17.832  0.00  0.00    +0.000 C 
ATOM     20  C   UNL     1       3.449   3.160  18.988  0.00  0.00    +0.000 C 
ENDBRANCH  14  15
BRANCH  14  21
ATOM     21  S   UNL     1       6.991   5.158  18.613  0.00  0.00    +0.000 S 
ATOM     22  C   UNL     1       7.198   6.785  17.880  0.00  0.00    +0.000 C 
ATOM     23  O   UNL     1       7.063   5.334  20.042  0.00  0.00    +0.000 OA
ATOM     24  O   UNL     1       7.928   4.294  17.931  0.00  0.00    +0.000 OA
ENDBRANCH  14  21
ENDBRANCH  13  14
ENDBRANCH   2  13
TORSDOF 6
ENDMDL
MODEL 9
REMARK VINA RESULT:      -6.5      1.786      3.346
REMARK  Name = 
REMARK  8 active torsions:
REMARK  status: ('A' for Active; 'I' for Inactive)
REMARK    1  A    between atoms: C_1  and  C_2
REMARK    2  A    between atoms: C_2  and  C_3
REMARK    3  A    between atoms: C_8  and  N_9
REMARK    4  A    between atoms: C_10  and  C_12
REMARK    5  A    between atoms: C_12  and  N_13
REMARK    6  A    between atoms: N_13  and  C_14
REMARK    7  A    between atoms: N_13  and  S_20
REMARK    8  A    between atoms: S_20  and  C_21
REMARK                            x       y       z     vdW  Elec       q    Type
REMARK                         _______ _______ _______ _____ _____    ______ ____
ROOT
ATOM      1  N   UNL     1       1.934   8.219  19.991  0.00  0.00    +0.000 N 
ATOM      2  C   UNL     1       2.447   7.357  19.035  0.00  0.00    +0.000 C 
ATOM      3  O   UNL     1       2.240   7.385  17.823  0.00  0.00    +0.000 OA
ATOM      4  H   UNL     1       2.136   7.970  20.958  0.00  0.00    +0.000 HD
ENDROOT
BRANCH   1  10
ATOM      5  C   UNL     1      -0.011   9.532  20.733  0.00  0.00    +0.000 A 
ATOM      6  C   UNL     1      -0.926  10.575  20.475  0.00  0.00    +0.000 A 
ATOM      7  C   UNL     1      -0.902  11.288  19.276  0.00  0.00    +0.000 A 
ATOM      8  C   UNL     1       0.049  10.977  18.318  0.00  0.00    +0.000 A 
ATOM      9  C   UNL     1       0.989   9.979  18.570  0.00  0.00    +0.000 A 
ATOM     10  C   UNL     1       0.981   9.245  19.766  0.00  0.00    +0.000 A 
BRANCH   5  12
ATOM     11  C   UNL     1      -0.146   9.547  23.279  0.00  0.00    +0.000 C 
ATOM     12  C   UNL     1      -0.246   8.735  22.002  0.00  0.00    +0.000 C 
ENDBRANCH   5  12
ENDBRANCH   1  10
BRANCH   2  13
ATOM     13  C   UNL     1       3.366   6.303  19.597  0.00  0.00    +0.000 C 
BRANCH  13  14
ATOM     14  N   UNL     1       3.245   4.921  19.027  0.00  0.00    +0.000 NA
BRANCH  14  15
ATOM     15  C   UNL     1       1.812   4.441  18.818  0.00  0.00    +0.000 C 
ATOM     16  C   UNL     1       1.670   2.990  18.341  0.00  0.00    +0.000 C 
ATOM     17  C   UNL     1       2.321   1.996  19.304  0.00  0.00    +0.000 C 
ATOM     18  C   UNL     1       1.778   2.087  20.723  0.00  0.00    +0.000 C 
ATOM     19  C   UNL     1       1.422   3.492  21.197  0.00  0.00    +0.000 C 
ATOM     20  C   UNL     1       0.971   4.481  20.121  0.00  0.00    +0.000 C 
ENDBRANCH  14  15
BRANCH  14  21
ATOM     21  S   UNL     1       4.550   4.534  17.993  0.00  0.00    +0.000 S 
ATOM     22  C   UNL     1       5.489   6.054  17.802  0.00  0.00    +0.000 C 
ATOM     23  O   UNL     1       5.373   3.631  18.757  0.00  0.00    +0.000 OA
ATOM     24  O   UNL     1       4.103   4.176  16.665  0.00  0.00    +0.000 OA
ENDBRANCH  14  21
ENDBRANCH  13  14
ENDBRANCH   2  13
TORSDOF 6
ENDMDL
