MODEL 1
REMARK VINA RESULT:      -7.6      0.000      0.000
REMARK  Name = 
REMARK  7 active torsions:
REMARK  status: ('A' for Active; 'I' for Inactive)
REMARK    1  A    between atoms: C_1  and  O_2
REMARK    2  A    between atoms: O_2  and  C_3
REMARK    3  A    between atoms: C_8  and  O_9
REMARK    4  A    between atoms: O_9  and  C_10
REMARK    5  A    between atoms: N_14  and  C_15
REMARK    6  A    between atoms: C_18  and  O_19
REMARK    7  A    between atoms: C_22  and  O_23
REMARK                            x       y       z     vdW  Elec       q    Type
REMARK                         _______ _______ _______ _____ _____    ______ ____
ROOT
ATOM      1  C   UNL     1       3.069   4.898  20.037  0.00  0.00    +0.000 A 
ATOM      2  C   UNL     1       2.476   6.121  19.675  0.00  0.00    +0.000 A 
ATOM      3  C   UNL     1       3.067   6.927  18.731  0.00  0.00    +0.000 A 
ATOM      4  C   UNL     1       4.220   6.486  18.091  0.00  0.00    +0.000 A 
ATOM      5  C   UNL     1       4.915   5.242  18.474  0.00  0.00    +0.000 A 
ATOM      6  C   UNL     1       4.326   4.484  19.516  0.00  0.00    +0.000 A 
ATOM      7  C   UNL     1       6.054   4.354  17.436  0.00  0.00    +0.000 C 
ATOM      8  C   UNL     1       7.189   4.869  18.375  0.00  0.00    +0.000 C 
ATOM      9  C   UNL     1       7.487   6.341  18.182  0.00  0.00    +0.000 C 
ATOM     10  N   UNL     1       6.879   7.037  17.010  0.00  0.00    +0.000 NA
ATOM     11  C   UNL     1       6.731   8.426  17.497  0.00  0.00    +0.000 C 
ATOM     12  C   UNL     1       5.645   6.446  16.221  0.00  0.00    +0.000 C 
ATOM     13  C   UNL     1       4.422   7.137  16.736  0.00  0.00    +0.000 C 
ATOM     14  C   UNL     1       5.130   4.814  16.305  0.00  0.00    +0.000 C 
ATOM     15  C   UNL     1       5.079   3.697  15.219  0.00  0.00    +0.000 C 
ATOM     16  C   UNL     1       5.804   4.146  14.033  0.00  0.00    +0.000 C 
ATOM     17  C   UNL     1       7.198   4.373  14.559  0.00  0.00    +0.000 C 
ATOM     18  C   UNL     1       7.363   4.311  16.146  0.00  0.00    +0.000 C 
ENDROOT
BRANCH   1  20
ATOM     19  C   UNL     1       1.037   3.796  20.348  0.00  0.00    +0.000 C 
ATOM     20  O   UNL     1       2.350   4.060  20.859  0.00  0.00    +0.000 OA
ENDBRANCH   1  20
BRANCH   6  21
ATOM     21  O   UNL     1       5.004   3.333  19.810  0.00  0.00    +0.000 OA
ATOM     22  C   UNL     1       4.339   2.097  19.615  0.00  0.00    +0.000 C 
ENDBRANCH   6  21
BRANCH  14  23
ATOM     23  O   UNL     1       3.675   4.647  16.531  0.00  0.00    +0.000 OA
ATOM     24  H   UNL     1       3.417   5.278  17.231  0.00  0.00    +0.000 HD
ENDBRANCH  14  23
BRANCH  17  25
ATOM     25  O   UNL     1       7.701   5.599  14.019  0.00  0.00    +0.000 OA
ATOM     26  H   UNL     1       7.683   5.570  13.056  0.00  0.00    +0.000 HD
ENDBRANCH  17  25
TORSDOF 4
ENDMDL
MODEL 2
REMARK VINA RESULT:      -6.2      2.035      5.594
REMARK  Name = 
REMARK  7 active torsions:
REMARK  status: ('A' for Active; 'I' for Inactive)
REMARK    1  A    between atoms: C_1  and  O_2
REMARK    2  A    between atoms: O_2  and  C_3
REMARK    3  A    between atoms: C_8  and  O_9
REMARK    4  A    between atoms: O_9  and  C_10
REMARK    5  A    between atoms: N_14  and  C_15
REMARK    6  A    between atoms: C_18  and  O_19
REMARK    7  A    between atoms: C_22  and  O_23
REMARK                            x       y       z     vdW  Elec       q    Type
REMARK                         _______ _______ _______ _____ _____    ______ ____
ROOT
ATOM      1  C   UNL     1       6.780   5.852  16.889  0.00  0.00    +0.000 A 
ATOM      2  C   UNL     1       6.184   5.412  15.694  0.00  0.00    +0.000 A 
ATOM      3  C   UNL     1       5.068   4.608  15.729  0.00  0.00    +0.000 A 
ATOM      4  C   UNL     1       4.500   4.293  16.958  0.00  0.00    +0.000 A 
ATOM      5  C   UNL     1       5.118   4.677  18.241  0.00  0.00    +0.000 A 
ATOM      6  C   UNL     1       6.318   5.426  18.165  0.00  0.00    +0.000 A 
ATOM      7  C   UNL     1       4.258   4.772  19.795  0.00  0.00    +0.000 C 
ATOM      8  C   UNL     1       5.026   3.477  20.209  0.00  0.00    +0.000 C 
ATOM      9  C   UNL     1       4.510   2.240  19.505  0.00  0.00    +0.000 C 
ATOM     10  N   UNL     1       3.237   2.344  18.734  0.00  0.00    +0.000 NA
ATOM     11  C   UNL     1       3.418   1.335  17.667  0.00  0.00    +0.000 C 
ATOM     12  C   UNL     1       2.636   3.732  18.277  0.00  0.00    +0.000 C 
ATOM     13  C   UNL     1       3.031   3.933  16.847  0.00  0.00    +0.000 C 
ATOM     14  C   UNL     1       3.087   5.249  18.933  0.00  0.00    +0.000 C 
ATOM     15  C   UNL     1       2.269   6.301  19.743  0.00  0.00    +0.000 C 
ATOM     16  C   UNL     1       0.990   5.715  20.138  0.00  0.00    +0.000 C 
ATOM     17  C   UNL     1       1.409   4.537  20.981  0.00  0.00    +0.000 C 
ATOM     18  C   UNL     1       2.964   4.182  20.961  0.00  0.00    +0.000 C 
ENDROOT
BRANCH   1  20
ATOM     19  C   UNL     1       7.412   8.046  17.360  0.00  0.00    +0.000 C 
ATOM     20  O   UNL     1       7.787   6.786  16.792  0.00  0.00    +0.000 OA
ENDBRANCH   1  20
BRANCH   6  21
ATOM     21  O   UNL     1       6.831   5.770  19.386  0.00  0.00    +0.000 OA
ATOM     22  C   UNL     1       8.147   5.350  19.702  0.00  0.00    +0.000 C 
ENDBRANCH   6  21
BRANCH  14  23
ATOM     23  O   UNL     1       3.392   6.284  17.917  0.00  0.00    +0.000 OA
ATOM     24  H   UNL     1       4.217   6.015  17.470  0.00  0.00    +0.000 HD
ENDBRANCH  14  23
BRANCH  17  25
ATOM     25  O   UNL     1       0.600   3.410  20.632  0.00  0.00    +0.000 OA
ATOM     26  H   UNL     1       1.137   2.609  20.609  0.00  0.00    +0.000 HD
ENDBRANCH  17  25
TORSDOF 4
ENDMDL
MODEL 3
REMARK VINA RESULT:      -6.2      1.873      5.638
REMARK  Name = 
REMARK  7 active torsions:
REMARK  status: ('A' for Active; 'I' for Inactive)
REMARK    1  A    between atoms: C_1  and  O_2
REMARK    2  A    between atoms: O_2  and  C_3
REMARK    3  A    between atoms: C_8  and  O_9
REMARK    4  A    between atoms: O_9  and  C_10
REMARK    5  A    between atoms: N_14  and  C_15
REMARK    6  A    between atoms: C_18  and  O_19
REMARK    7  A    between atoms: C_22  and  O_23
REMARK                            x       y       z     vdW  Elec       q    Type
REMARK                         _______ _______ _______ _____ _____    ______ ____
ROOT
ATOM      1  C   UNL     1       7.154   4.964  15.062  0.00  0.00    +0.000 A 
ATOM      2  C   UNL     1       6.310   4.163  14.272  0.00  0.00    +0.000 A 
ATOM      3  C   UNL     1       5.143   3.659  14.794  0.00  0.00    +0.000 A 
ATOM      4  C   UNL     1       4.776   4.006  16.089  0.00  0.00    +0.000 A 
ATOM      5  C   UNL     1       5.651   4.791  16.980  0.00  0.00    +0.000 A 
ATOM      6  C   UNL     1       6.889   5.215  16.436  0.00  0.00    +0.000 A 
ATOM      7  C   UNL     1       5.099   5.691  18.411  0.00  0.00    +0.000 C 
ATOM      8  C   UNL     1       5.791   4.589  19.273  0.00  0.00    +0.000 C 
ATOM      9  C   UNL     1       5.032   3.279  19.268  0.00  0.00    +0.000 C 
ATOM     10  N   UNL     1       3.659   3.260  18.685  0.00  0.00    +0.000 NA
ATOM     11  C   UNL     1       3.539   1.876  18.177  0.00  0.00    +0.000 C 
ATOM     12  C   UNL     1       3.131   4.398  17.724  0.00  0.00    +0.000 C 
ATOM     13  C   UNL     1       3.281   3.893  16.323  0.00  0.00    +0.000 C 
ATOM     14  C   UNL     1       3.848   5.946  17.567  0.00  0.00    +0.000 C 
ATOM     15  C   UNL     1       3.302   7.368  17.904  0.00  0.00    +0.000 C 
ATOM     16  C   UNL     1       2.062   7.239  18.665  0.00  0.00    +0.000 C 
ATOM     17  C   UNL     1       2.501   6.485  19.894  0.00  0.00    +0.000 C 
ATOM     18  C   UNL     1       3.983   5.893  19.858  0.00  0.00    +0.000 C 
ENDROOT
BRANCH   1  20
ATOM     19  C   UNL     1       8.138   5.479  13.011  0.00  0.00    +0.000 C 
ATOM     20  O   UNL     1       8.218   5.576  14.438  0.00  0.00    +0.000 OA
ENDBRANCH   1  20
BRANCH   6  21
ATOM     21  O   UNL     1       7.645   5.956  17.301  0.00  0.00    +0.000 OA
ATOM     22  C   UNL     1       7.528   7.368  17.253  0.00  0.00    +0.000 C 
ENDBRANCH   6  21
BRANCH  14  23
ATOM     23  O   UNL     1       4.070   6.374  16.166  0.00  0.00    +0.000 OA
ATOM     24  H   UNL     1       3.442   5.874  15.609  0.00  0.00    +0.000 HD
ENDBRANCH  14  23
BRANCH  17  25
ATOM     25  O   UNL     1       1.531   5.476  20.188  0.00  0.00    +0.000 OA
ATOM     26  H   UNL     1       0.684   5.881  20.406  0.00  0.00    +0.000 HD
ENDBRANCH  17  25
TORSDOF 4
ENDMDL
MODEL 4
REMARK VINA RESULT:      -6.1      8.471     10.529
REMARK  Name = 
REMARK  7 active torsions:
REMARK  status: ('A' for Active; 'I' for Inactive)
REMARK    1  A    between atoms: C_1  and  O_2
REMARK    2  A    between atoms: O_2  and  C_3
REMARK    3  A    between atoms: C_8  and  O_9
REMARK    4  A    between atoms: O_9  and  C_10
REMARK    5  A    between atoms: N_14  and  C_15
REMARK    6  A    between atoms: C_18  and  O_19
REMARK    7  A    between atoms: C_22  and  O_23
REMARK                            x       y       z     vdW  Elec       q    Type
REMARK                         _______ _______ _______ _____ _____    ______ ____
ROOT
ATOM      1  C   UNL     1      -4.095  11.955  18.382  0.00  0.00    +0.000 A 
ATOM      2  C   UNL     1      -4.692  12.422  19.566  0.00  0.00    +0.000 A 
ATOM      3  C   UNL     1      -3.931  12.637  20.691  0.00  0.00    +0.000 A 
ATOM      4  C   UNL     1      -2.555  12.450  20.621  0.00  0.00    +0.000 A 
ATOM      5  C   UNL     1      -1.886  11.905  19.425  0.00  0.00    +0.000 A 
ATOM      6  C   UNL     1      -2.717  11.608  18.317  0.00  0.00    +0.000 A 
ATOM      7  C   UNL     1      -0.157  12.096  19.052  0.00  0.00    +0.000 C 
ATOM      8  C   UNL     1       0.005  10.584  19.407  0.00  0.00    +0.000 C 
ATOM      9  C   UNL     1      -0.089  10.319  20.895  0.00  0.00    +0.000 C 
ATOM     10  N   UNL     1      -0.071  11.486  21.823  0.00  0.00    +0.000 NA
ATOM     11  C   UNL     1      -0.875  11.003  22.968  0.00  0.00    +0.000 C 
ATOM     12  C   UNL     1      -0.374  12.959  21.338  0.00  0.00    +0.000 C 
ATOM     13  C   UNL     1      -1.804  13.245  21.672  0.00  0.00    +0.000 C 
ATOM     14  C   UNL     1      -0.335  13.470  19.704  0.00  0.00    +0.000 C 
ATOM     15  C   UNL     1       0.587  14.491  18.970  0.00  0.00    +0.000 C 
ATOM     16  C   UNL     1       1.696  14.856  19.849  0.00  0.00    +0.000 C 
ATOM     17  C   UNL     1       2.379  13.534  20.091  0.00  0.00    +0.000 C 
ATOM     18  C   UNL     1       1.599  12.240  19.576  0.00  0.00    +0.000 C 
ENDROOT
BRANCH   1  20
ATOM     19  C   UNL     1      -6.095  12.651  17.405  0.00  0.00    +0.000 C 
ATOM     20  O   UNL     1      -4.873  11.920  17.247  0.00  0.00    +0.000 OA
ENDBRANCH   1  20
BRANCH   6  21
ATOM     21  O   UNL     1      -2.037  11.128  17.232  0.00  0.00    +0.000 OA
ATOM     22  C   UNL     1      -2.342   9.821  16.776  0.00  0.00    +0.000 C 
ENDBRANCH   6  21
BRANCH  14  23
ATOM     23  O   UNL     1      -1.521  14.253  19.284  0.00  0.00    +0.000 OA
ATOM     24  H   UNL     1      -1.489  14.324  18.310  0.00  0.00    +0.000 HD
ENDBRANCH  14  23
BRANCH  17  25
ATOM     25  O   UNL     1       2.716  13.437  21.478  0.00  0.00    +0.000 OA
ATOM     26  H   UNL     1       3.165  12.602  21.654  0.00  0.00    +0.000 HD
ENDBRANCH  17  25
TORSDOF 4
ENDMDL
MODEL 5
REMARK VINA RESULT:      -5.8      1.697      3.589
REMARK  Name = 
REMARK  7 active torsions:
REMARK  status: ('A' for Active; 'I' for Inactive)
REMARK    1  A    between atoms: C_1  and  O_2
REMARK    2  A    between atoms: O_2  and  C_3
REMARK    3  A    between atoms: C_8  and  O_9
REMARK    4  A    between atoms: O_9  and  C_10
REMARK    5  A    between atoms: N_14  and  C_15
REMARK    6  A    between atoms: C_18  and  O_19
REMARK    7  A    between atoms: C_22  and  O_23
REMARK                            x       y       z     vdW  Elec       q    Type
REMARK                         _______ _______ _______ _____ _____    ______ ____
ROOT
ATOM      1  C   UNL     1       2.026   3.483  18.546  0.00  0.00    +0.000 A 
ATOM      2  C   UNL     1       2.514   2.362  17.851  0.00  0.00    +0.000 A 
ATOM      3  C   UNL     1       3.621   2.473  17.043  0.00  0.00    +0.000 A 
ATOM      4  C   UNL     1       4.289   3.690  16.975  0.00  0.00    +0.000 A 
ATOM      5  C   UNL     1       3.787   4.911  17.634  0.00  0.00    +0.000 A 
ATOM      6  C   UNL     1       2.591   4.778  18.382  0.00  0.00    +0.000 A 
ATOM      7  C   UNL     1       4.777   6.335  18.026  0.00  0.00    +0.000 C 
ATOM      8  C   UNL     1       4.036   7.072  16.866  0.00  0.00    +0.000 C 
ATOM      9  C   UNL     1       4.479   6.602  15.497  0.00  0.00    +0.000 C 
ATOM     10  N   UNL     1       5.682   5.725  15.405  0.00  0.00    +0.000 NA
ATOM     11  C   UNL     1       5.401   4.912  14.201  0.00  0.00    +0.000 C 
ATOM     12  C   UNL     1       6.255   4.940  16.651  0.00  0.00    +0.000 C 
ATOM     13  C   UNL     1       5.740   3.538  16.561  0.00  0.00    +0.000 C 
ATOM     14  C   UNL     1       5.874   5.299  18.283  0.00  0.00    +0.000 C 
ATOM     15  C   UNL     1       6.768   5.801  19.458  0.00  0.00    +0.000 C 
ATOM     16  C   UNL     1       8.071   6.205  18.933  0.00  0.00    +0.000 C 
ATOM     17  C   UNL     1       7.716   7.306  17.967  0.00  0.00    +0.000 C 
ATOM     18  C   UNL     1       6.160   7.488  17.657  0.00  0.00    +0.000 C 
ENDROOT
BRANCH   1  20
ATOM     19  C   UNL     1       1.478   2.537  20.606  0.00  0.00    +0.000 C 
ATOM     20  O   UNL     1       1.023   3.275  19.466  0.00  0.00    +0.000 OA
ENDBRANCH   1  20
BRANCH   6  21
ATOM     21  O   UNL     1       2.188   5.937  18.986  0.00  0.00    +0.000 OA
ATOM     22  C   UNL     1       2.223   6.002  20.401  0.00  0.00    +0.000 C 
ENDBRANCH   6  21
BRANCH  14  23
ATOM     23  O   UNL     1       5.493   4.117  19.092  0.00  0.00    +0.000 OA
ATOM     24  H   UNL     1       4.706   4.366  19.613  0.00  0.00    +0.000 HD
ENDBRANCH  14  23
BRANCH  17  25
ATOM     25  O   UNL     1       8.481   7.136  16.771  0.00  0.00    +0.000 OA
ATOM     26  H   UNL     1       9.419   7.068  16.983  0.00  0.00    +0.000 HD
ENDBRANCH  17  25
TORSDOF 4
ENDMDL
MODEL 6
REMARK VINA RESULT:      -5.8      8.510     10.591
REMARK  Name = 
REMARK  7 active torsions:
REMARK  status: ('A' for Active; 'I' for Inactive)
REMARK    1  A    between atoms: C_1  and  O_2
REMARK    2  A    between atoms: O_2  and  C_3
REMARK    3  A    between atoms: C_8  and  O_9
REMARK    4  A    between atoms: O_9  and  C_10
REMARK    5  A    between atoms: N_14  and  C_15
REMARK    6  A    between atoms: C_18  and  O_19
REMARK    7  A    between atoms: C_22  and  O_23
REMARK                            x       y       z     vdW  Elec       q    Type
REMARK                         _______ _______ _______ _____ _____    ______ ____
ROOT
ATOM      1  C   UNL     1       7.403  13.473  22.625  0.00  0.00    +0.000 A 
ATOM      2  C   UNL     1       8.118  12.304  22.939  0.00  0.00    +0.000 A 
ATOM      3  C   UNL     1       9.028  11.786  22.049  0.00  0.00    +0.000 A 
ATOM      4  C   UNL     1       9.280  12.470  20.865  0.00  0.00    +0.000 A 
ATOM      5  C   UNL     1       8.517  13.665  20.459  0.00  0.00    +0.000 A 
ATOM      6  C   UNL     1       7.522  14.115  21.362  0.00  0.00    +0.000 A 
ATOM      7  C   UNL     1       9.068  14.868  19.271  0.00  0.00    +0.000 C 
ATOM      8  C   UNL     1       7.999  14.280  18.297  0.00  0.00    +0.000 C 
ATOM      9  C   UNL     1       8.389  12.923  17.750  0.00  0.00    +0.000 C 
ATOM     10  N   UNL     1       9.780  12.439  17.985  0.00  0.00    +0.000 NA
ATOM     11  C   UNL     1       9.612  10.970  18.025  0.00  0.00    +0.000 C 
ATOM     12  C   UNL     1      10.716  13.058  19.097  0.00  0.00    +0.000 C 
ATOM     13  C   UNL     1      10.645  12.151  20.285  0.00  0.00    +0.000 C 
ATOM     14  C   UNL     1      10.452  14.572  19.855  0.00  0.00    +0.000 C 
ATOM     15  C   UNL     1      11.290  15.887  19.840  0.00  0.00    +0.000 C 
ATOM     16  C   UNL     1      12.332  15.782  18.821  0.00  0.00    +0.000 C 
ATOM     17  C   UNL     1      11.540  15.588  17.552  0.00  0.00    +0.000 C 
ATOM     18  C   UNL     1       9.978  15.322  17.738  0.00  0.00    +0.000 C 
ENDROOT
BRANCH   1  20
ATOM     19  C   UNL     1       7.284  13.996  24.895  0.00  0.00    +0.000 C 
ATOM     20  O   UNL     1       6.634  14.036  23.619  0.00  0.00    +0.000 OA
ENDBRANCH   1  20
BRANCH   6  21
ATOM     21  O   UNL     1       6.865  15.238  20.941  0.00  0.00    +0.000 OA
ATOM     22  C   UNL     1       5.472  15.146  20.694  0.00  0.00    +0.000 C 
ENDBRANCH   6  21
BRANCH  14  23
ATOM     23  O   UNL     1      10.552  14.537  21.333  0.00  0.00    +0.000 OA
ATOM     24  H   UNL     1       9.642  14.480  21.683  0.00  0.00    +0.000 HD
ENDBRANCH  14  23
BRANCH  17  25
ATOM     25  O   UNL     1      12.165  14.567  16.770  0.00  0.00    +0.000 OA
ATOM     26  H   UNL     1      12.688  14.961  16.063  0.00  0.00    +0.000 HD
ENDBRANCH  17  25
TORSDOF 4
ENDMDL
MODEL 7
REMARK VINA RESULT:      -5.7      1.784      5.496
REMARK  Name = 
REMARK  7 active torsions:
REMARK  status: ('A' for Active; 'I' for Inactive)
REMARK    1  A    between atoms: C_1  and  O_2
REMARK    2  A    between atoms: O_2  and  C_3
REMARK    3  A    between atoms: C_8  and  O_9
REMARK    4  A    between atoms: O_9  and  C_10
REMARK    5  A    between atoms: N_14  and  C_15
REMARK    6  A    between atoms: C_18  and  O_19
REMARK    7  A    between atoms: C_22  and  O_23
REMARK                            x       y       z     vdW  Elec       q    Type
REMARK                         _______ _______ _______ _____ _____    ______ ____
ROOT
ATOM      1  C   UNL     1       6.811   5.134  16.034  0.00  0.00    +0.000 A 
ATOM      2  C   UNL     1       7.146   6.233  16.845  0.00  0.00    +0.000 A 
ATOM      3  C   UNL     1       6.323   6.608  17.882  0.00  0.00    +0.000 A 
ATOM      4  C   UNL     1       5.193   5.846  18.158  0.00  0.00    +0.000 A 
ATOM      5  C   UNL     1       4.764   4.722  17.303  0.00  0.00    +0.000 A 
ATOM      6  C   UNL     1       5.588   4.425  16.190  0.00  0.00    +0.000 A 
ATOM      7  C   UNL     1       3.676   3.413  17.818  0.00  0.00    +0.000 C 
ATOM      8  C   UNL     1       2.588   4.067  16.909  0.00  0.00    +0.000 C 
ATOM      9  C   UNL     1       2.029   5.347  17.494  0.00  0.00    +0.000 C 
ATOM     10  N   UNL     1       2.372   5.689  18.905  0.00  0.00    +0.000 NA
ATOM     11  C   UNL     1       2.342   7.168  18.899  0.00  0.00    +0.000 C 
ATOM     12  C   UNL     1       3.587   5.024  19.666  0.00  0.00    +0.000 C 
ATOM     13  C   UNL     1       4.729   5.989  19.594  0.00  0.00    +0.000 C 
ATOM     14  C   UNL     1       4.373   3.585  19.170  0.00  0.00    +0.000 C 
ATOM     15  C   UNL     1       4.482   2.188  19.855  0.00  0.00    +0.000 C 
ATOM     16  C   UNL     1       3.559   2.133  20.986  0.00  0.00    +0.000 C 
ATOM     17  C   UNL     1       2.218   2.351  20.334  0.00  0.00    +0.000 C 
ATOM     18  C   UNL     1       2.251   2.793  18.800  0.00  0.00    +0.000 C 
ENDROOT
BRANCH   1  20
ATOM     19  C   UNL     1       7.611   5.354  13.855  0.00  0.00    +0.000 C 
ATOM     20  O   UNL     1       7.750   4.705  15.124  0.00  0.00    +0.000 OA
ENDBRANCH   1  20
BRANCH   6  21
ATOM     21  O   UNL     1       5.150   3.361  15.450  0.00  0.00    +0.000 OA
ATOM     22  C   UNL     1       4.944   3.551  14.061  0.00  0.00    +0.000 C 
ENDBRANCH   6  21
BRANCH  14  23
ATOM     23  O   UNL     1       5.851   3.678  19.146  0.00  0.00    +0.000 OA
ATOM     24  H   UNL     1       6.145   3.845  20.062  0.00  0.00    +0.000 HD
ENDBRANCH  14  23
BRANCH  17  25
ATOM     25  O   UNL     1       1.458   3.262  21.134  0.00  0.00    +0.000 OA
ATOM     26  H   UNL     1       1.219   4.040  20.618  0.00  0.00    +0.000 HD
ENDBRANCH  17  25
TORSDOF 4
ENDMDL
MODEL 8
REMARK VINA RESULT:      -5.6      8.966     11.307
REMARK  Name = 
REMARK  7 active torsions:
REMARK  status: ('A' for Active; 'I' for Inactive)
REMARK    1  A    between atoms: C_1  and  O_2
REMARK    2  A    between atoms: O_2  and  C_3
REMARK    3  A    between atoms: C_8  and  O_9
REMARK    4  A    between atoms: O_9  and  C_10
REMARK    5  A    between atoms: N_14  and  C_15
REMARK    6  A    between atoms: C_18  and  O_19
REMARK    7  A    between atoms: C_22  and  O_23
REMARK                            x       y       z     vdW  Elec       q    Type
REMARK                         _______ _______ _______ _____ _____    ______ ____
ROOT
ATOM      1  C   UNL     1       8.213  16.554  21.893  0.00  0.00    +0.000 A 
ATOM      2  C   UNL     1       7.323  16.815  20.836  0.00  0.00    +0.000 A 
ATOM      3  C   UNL     1       7.627  16.413  19.557  0.00  0.00    +0.000 A 
ATOM      4  C   UNL     1       8.793  15.688  19.335  0.00  0.00    +0.000 A 
ATOM      5  C   UNL     1       9.789  15.440  20.395  0.00  0.00    +0.000 A 
ATOM      6  C   UNL     1       9.483  15.950  21.681  0.00  0.00    +0.000 A 
ATOM      7  C   UNL     1      11.011  14.148  20.358  0.00  0.00    +0.000 C 
ATOM      8  C   UNL     1      12.070  15.267  20.104  0.00  0.00    +0.000 C 
ATOM      9  C   UNL     1      11.999  15.833  18.702  0.00  0.00    +0.000 C 
ATOM     10  N   UNL     1      11.149  15.130  17.698  0.00  0.00    +0.000 NA
ATOM     11  C   UNL     1      10.723  16.229  16.804  0.00  0.00    +0.000 C 
ATOM     12  C   UNL     1      10.024  14.100  18.113  0.00  0.00    +0.000 C 
ATOM     13  C   UNL     1       8.722  14.837  18.081  0.00  0.00    +0.000 C 
ATOM     14  C   UNL     1       9.913  13.352  19.650  0.00  0.00    +0.000 C 
ATOM     15  C   UNL     1      10.031  11.856  20.072  0.00  0.00    +0.000 C 
ATOM     16  C   UNL     1      10.529  11.074  18.943  0.00  0.00    +0.000 C 
ATOM     17  C   UNL     1      11.871  11.703  18.667  0.00  0.00    +0.000 C 
ATOM     18  C   UNL     1      12.180  13.060  19.448  0.00  0.00    +0.000 C 
ENDROOT
BRANCH   1  20
ATOM     19  C   UNL     1       7.043  15.738  23.739  0.00  0.00    +0.000 C 
ATOM     20  O   UNL     1       7.781  16.827  23.172  0.00  0.00    +0.000 OA
ENDBRANCH   1  20
BRANCH   6  21
ATOM     21  O   UNL     1      10.432  15.670  22.624  0.00  0.00    +0.000 OA
ATOM     22  C   UNL     1      11.113  16.754  23.232  0.00  0.00    +0.000 C 
ENDBRANCH   6  21
BRANCH  14  23
ATOM     23  O   UNL     1       8.561  13.405  20.254  0.00  0.00    +0.000 OA
ATOM     24  H   UNL     1       7.927  13.114  19.571  0.00  0.00    +0.000 HD
ENDBRANCH  14  23
BRANCH  17  25
ATOM     25  O   UNL     1      12.026  11.855  17.253  0.00  0.00    +0.000 OA
ATOM     26  H   UNL     1      12.962  11.878  17.021  0.00  0.00    +0.000 HD
ENDBRANCH  17  25
TORSDOF 4
ENDMDL
MODEL 9
REMARK VINA RESULT:      -5.6      8.809     11.014
REMARK  Name = 
REMARK  7 active torsions:
REMARK  status: ('A' for Active; 'I' for Inactive)
REMARK    1  A    between atoms: C_1  and  O_2
REMARK    2  A    between atoms: O_2  and  C_3
REMARK    3  A    between atoms: C_8  and  O_9
REMARK    4  A    between atoms: O_9  and  C_10
REMARK    5  A    between atoms: N_14  and  C_15
REMARK    6  A    between atoms: C_18  and  O_19
REMARK    7  A    between atoms: C_22  and  O_23
REMARK                            x       y       z     vdW  Elec       q    Type
REMARK                         _______ _______ _______ _____ _____    ______ ____
ROOT
ATOM      1  C   UNL     1      -5.040  12.545  19.856  0.00  0.00    +0.000 A 
ATOM      2  C   UNL     1      -5.104  12.821  21.234  0.00  0.00    +0.000 A 
ATOM      3  C   UNL     1      -3.961  12.811  21.998  0.00  0.00    +0.000 A 
ATOM      4  C   UNL     1      -2.736  12.592  21.380  0.00  0.00    +0.000 A 
ATOM      5  C   UNL     1      -2.618  12.238  19.952  0.00  0.00    +0.000 A 
ATOM      6  C   UNL     1      -3.827  12.167  19.217  0.00  0.00    +0.000 A 
ATOM      7  C   UNL     1      -1.143  12.430  18.976  0.00  0.00    +0.000 C 
ATOM      8  C   UNL     1      -1.009  10.875  19.016  0.00  0.00    +0.000 C 
ATOM      9  C   UNL     1      -0.567  10.360  20.370  0.00  0.00    +0.000 C 
ATOM     10  N   UNL     1      -0.090  11.348  21.381  0.00  0.00    +0.000 NA
ATOM     11  C   UNL     1      -0.452  10.703  22.662  0.00  0.00    +0.000 C 
ATOM     12  C   UNL     1      -0.406  12.892  21.270  0.00  0.00    +0.000 C 
ATOM     13  C   UNL     1      -1.573  13.167  22.166  0.00  0.00    +0.000 C 
ATOM     14  C   UNL     1      -0.929  13.676  19.839  0.00  0.00    +0.000 C 
ATOM     15  C   UNL     1      -0.251  14.776  18.966  0.00  0.00    +0.000 C 
ATOM     16  C   UNL     1       1.135  14.944  19.395  0.00  0.00    +0.000 C 
ATOM     17  C   UNL     1       1.726  13.578  19.160  0.00  0.00    +0.000 C 
ATOM     18  C   UNL     1       0.687  12.420  18.801  0.00  0.00    +0.000 C 
ENDROOT
BRANCH   1  20
ATOM     19  C   UNL     1      -7.320  12.083  19.697  0.00  0.00    +0.000 C 
ATOM     20  O   UNL     1      -6.184  12.734  19.115  0.00  0.00    +0.000 OA
ENDBRANCH   1  20
BRANCH   6  21
ATOM     21  O   UNL     1      -3.651  11.857  17.897  0.00  0.00    +0.000 OA
ATOM     22  C   UNL     1      -4.208  10.647  17.413  0.00  0.00    +0.000 C 
ENDBRANCH   6  21
BRANCH  14  23
ATOM     23  O   UNL     1      -2.103  14.561  20.027  0.00  0.00    +0.000 OA
ATOM     24  H   UNL     1      -2.202  15.085  19.209  0.00  0.00    +0.000 HD
ENDBRANCH  14  23
BRANCH  17  25
ATOM     25  O   UNL     1       2.544  13.230  20.281  0.00  0.00    +0.000 OA
ATOM     26  H   UNL     1       3.096  12.470  20.068  0.00  0.00    +0.000 HD
ENDBRANCH  17  25
TORSDOF 4
ENDMDL
