MODEL 1
REMARK VINA RESULT:      -7.9      0.000      0.000
REMARK  Name = 
REMARK  3 active torsions:
REMARK  status: ('A' for Active; 'I' for Inactive)
REMARK    1  A    between atoms: N_1  and  C_2
REMARK    2  A    between atoms: C_5  and  C_6
REMARK    3  A    between atoms: C_11  and  O_12
REMARK                            x       y       z     vdW  Elec       q    Type
REMARK                         _______ _______ _______ _____ _____    ______ ____
ROOT
ATOM      1  C   UNL     1       4.788   4.464  16.619  0.00  0.00    +0.000 A 
ATOM      2  C   UNL     1       5.782   5.324  16.887  0.00  0.00    +0.000 A 
ATOM      3  C   UNL     1       6.800   5.581  15.865  0.00  0.00    +0.000 A 
ATOM      4  O   UNL     1       7.740   6.341  16.073  0.00  0.00    +0.000 OA
ATOM      5  C   UNL     1       6.650   4.889  14.583  0.00  0.00    +0.000 A 
ATOM      6  C   UNL     1       7.560   5.082  13.540  0.00  0.00    +0.000 A 
ATOM      7  C   UNL     1       7.378   4.420  12.331  0.00  0.00    +0.000 A 
ATOM      8  C   UNL     1       6.289   3.561  12.163  0.00  0.00    +0.000 A 
ATOM      9  C   UNL     1       5.382   3.364  13.207  0.00  0.00    +0.000 A 
ATOM     10  C   UNL     1       5.565   4.031  14.419  0.00  0.00    +0.000 A 
ATOM     11  O   UNL     1       4.640   3.803  15.407  0.00  0.00    +0.000 OA
ENDROOT
BRANCH   1  15
ATOM     12  C   UNL     1       1.735   3.610  19.537  0.00  0.00    +0.000 A 
ATOM     13  C   UNL     1       2.877   4.332  19.887  0.00  0.00    +0.000 A 
ATOM     14  C   UNL     1       3.886   4.580  18.948  0.00  0.00    +0.000 A 
ATOM     15  C   UNL     1       3.754   4.145  17.624  0.00  0.00    +0.000 A 
ATOM     16  C   UNL     1       2.583   3.457  17.269  0.00  0.00    +0.000 A 
ATOM     17  C   UNL     1       1.582   3.209  18.212  0.00  0.00    +0.000 A 
BRANCH  12  18
ATOM     18  N   UNL     1       0.660   3.511  20.425  0.00  0.00    +0.000 N 
ATOM     19  H   UNL     1       0.905   3.680  21.395  0.00  0.00    +0.000 HD
ATOM     20  H   UNL     1       0.101   2.673  20.307  0.00  0.00    +0.000 HD
ENDBRANCH  12  18
ENDBRANCH   1  15
BRANCH   6  21
ATOM     21  O   UNL     1       8.645   5.908  13.642  0.00  0.00    +0.000 OA
ATOM     22  H   UNL     1       8.331   6.836  13.557  0.00  0.00    +0.000 HD
ENDBRANCH   6  21
TORSDOF 3
ENDMDL
MODEL 2
REMARK VINA RESULT:      -7.8      0.359      1.069
REMARK  Name = 
REMARK  3 active torsions:
REMARK  status: ('A' for Active; 'I' for Inactive)
REMARK    1  A    between atoms: N_1  and  C_2
REMARK    2  A    between atoms: C_5  and  C_6
REMARK    3  A    between atoms: C_11  and  O_12
REMARK                            x       y       z     vdW  Elec       q    Type
REMARK                         _______ _______ _______ _____ _____    ______ ____
ROOT
ATOM      1  C   UNL     1       4.623   4.555  16.541  0.00  0.00    +0.000 A 
ATOM      2  C   UNL     1       5.625   5.395  16.843  0.00  0.00    +0.000 A 
ATOM      3  C   UNL     1       6.689   5.618  15.861  0.00  0.00    +0.000 A 
ATOM      4  O   UNL     1       7.637   6.359  16.100  0.00  0.00    +0.000 OA
ATOM      5  C   UNL     1       6.576   4.917  14.580  0.00  0.00    +0.000 A 
ATOM      6  C   UNL     1       7.531   5.079  13.573  0.00  0.00    +0.000 A 
ATOM      7  C   UNL     1       7.384   4.409  12.364  0.00  0.00    +0.000 A 
ATOM      8  C   UNL     1       6.283   3.573  12.159  0.00  0.00    +0.000 A 
ATOM      9  C   UNL     1       5.331   3.407  13.167  0.00  0.00    +0.000 A 
ATOM     10  C   UNL     1       5.478   4.082  14.380  0.00  0.00    +0.000 A 
ATOM     11  O   UNL     1       4.509   3.884  15.331  0.00  0.00    +0.000 OA
ENDROOT
BRANCH   1  15
ATOM     12  C   UNL     1       1.521   3.676  19.400  0.00  0.00    +0.000 A 
ATOM     13  C   UNL     1       1.822   2.780  18.373  0.00  0.00    +0.000 A 
ATOM     14  C   UNL     1       2.806   3.080  17.423  0.00  0.00    +0.000 A 
ATOM     15  C   UNL     1       3.541   4.269  17.506  0.00  0.00    +0.000 A 
ATOM     16  C   UNL     1       3.262   5.145  18.565  0.00  0.00    +0.000 A 
ATOM     17  C   UNL     1       2.276   4.843  19.508  0.00  0.00    +0.000 A 
BRANCH  12  18
ATOM     18  N   UNL     1       0.663   3.302  20.439  0.00  0.00    +0.000 N 
ATOM     19  H   UNL     1       0.320   2.349  20.371  0.00  0.00    +0.000 HD
ATOM     20  H   UNL     1      -0.078   3.969  20.625  0.00  0.00    +0.000 HD
ENDBRANCH  12  18
ENDBRANCH   1  15
BRANCH   6  21
ATOM     21  O   UNL     1       8.630   5.882  13.713  0.00  0.00    +0.000 OA
ATOM     22  H   UNL     1       8.616   6.263  14.618  0.00  0.00    +0.000 HD
ENDBRANCH   6  21
TORSDOF 3
ENDMDL
MODEL 3
REMARK VINA RESULT:      -7.4      4.981      7.569
REMARK  Name = 
REMARK  3 active torsions:
REMARK  status: ('A' for Active; 'I' for Inactive)
REMARK    1  A    between atoms: N_1  and  C_2
REMARK    2  A    between atoms: C_5  and  C_6
REMARK    3  A    between atoms: C_11  and  O_12
REMARK                            x       y       z     vdW  Elec       q    Type
REMARK                         _______ _______ _______ _____ _____    ______ ____
ROOT
ATOM      1  C   UNL     1       2.459   6.870  19.441  0.00  0.00    +0.000 A 
ATOM      2  C   UNL     1       2.577   7.623  18.336  0.00  0.00    +0.000 A 
ATOM      3  C   UNL     1       1.918   8.930  18.290  0.00  0.00    +0.000 A 
ATOM      4  O   UNL     1       1.978   9.644  17.294  0.00  0.00    +0.000 OA
ATOM      5  C   UNL     1       1.182   9.352  19.484  0.00  0.00    +0.000 A 
ATOM      6  C   UNL     1       0.536  10.589  19.544  0.00  0.00    +0.000 A 
ATOM      7  C   UNL     1      -0.141  10.963  20.699  0.00  0.00    +0.000 A 
ATOM      8  C   UNL     1      -0.176  10.100  21.797  0.00  0.00    +0.000 A 
ATOM      9  C   UNL     1       0.465   8.860  21.736  0.00  0.00    +0.000 A 
ATOM     10  C   UNL     1       1.147   8.487  20.576  0.00  0.00    +0.000 A 
ATOM     11  O   UNL     1       1.762   7.260  20.576  0.00  0.00    +0.000 OA
ENDROOT
BRANCH   1  15
ATOM     12  C   UNL     1       4.302   2.989  19.767  0.00  0.00    +0.000 A 
ATOM     13  C   UNL     1       4.955   4.038  19.119  0.00  0.00    +0.000 A 
ATOM     14  C   UNL     1       4.343   5.290  18.982  0.00  0.00    +0.000 A 
ATOM     15  C   UNL     1       3.076   5.531  19.529  0.00  0.00    +0.000 A 
ATOM     16  C   UNL     1       2.444   4.483  20.215  0.00  0.00    +0.000 A 
ATOM     17  C   UNL     1       3.058   3.235  20.345  0.00  0.00    +0.000 A 
BRANCH  12  18
ATOM     18  N   UNL     1       4.979   1.799  20.049  0.00  0.00    +0.000 N 
ATOM     19  H   UNL     1       5.939   1.780  19.720  0.00  0.00    +0.000 HD
ATOM     20  H   UNL     1       4.467   0.960  19.798  0.00  0.00    +0.000 HD
ENDBRANCH  12  18
ENDBRANCH   1  15
BRANCH   6  21
ATOM     21  O   UNL     1       0.534  11.478  18.504  0.00  0.00    +0.000 OA
ATOM     22  H   UNL     1      -0.116  11.165  17.836  0.00  0.00    +0.000 HD
ENDBRANCH   6  21
TORSDOF 3
ENDMDL
MODEL 4
REMARK VINA RESULT:      -7.4      4.993      7.610
REMARK  Name = 
REMARK  3 active torsions:
REMARK  status: ('A' for Active; 'I' for Inactive)
REMARK    1  A    between atoms: N_1  and  C_2
REMARK    2  A    between atoms: C_5  and  C_6
REMARK    3  A    between atoms: C_11  and  O_12
REMARK                            x       y       z     vdW  Elec       q    Type
REMARK                         _______ _______ _______ _____ _____    ______ ____
ROOT
ATOM      1  C   UNL     1       2.477   6.892  19.511  0.00  0.00    +0.000 A 
ATOM      2  C   UNL     1       2.589   7.623  18.391  0.00  0.00    +0.000 A 
ATOM      3  C   UNL     1       1.895   8.910  18.307  0.00  0.00    +0.000 A 
ATOM      4  O   UNL     1       1.949   9.602  17.295  0.00  0.00    +0.000 OA
ATOM      5  C   UNL     1       1.131   9.338  19.481  0.00  0.00    +0.000 A 
ATOM      6  C   UNL     1       0.451  10.558  19.503  0.00  0.00    +0.000 A 
ATOM      7  C   UNL     1      -0.252  10.938  20.641  0.00  0.00    +0.000 A 
ATOM      8  C   UNL     1      -0.279  10.099  21.758  0.00  0.00    +0.000 A 
ATOM      9  C   UNL     1       0.397   8.877  21.734  0.00  0.00    +0.000 A 
ATOM     10  C   UNL     1       1.104   8.497  20.592  0.00  0.00    +0.000 A 
ATOM     11  O   UNL     1       1.753   7.288  20.628  0.00  0.00    +0.000 OA
ENDROOT
BRANCH   1  15
ATOM     12  C   UNL     1       4.340   3.019  19.811  0.00  0.00    +0.000 A 
ATOM     13  C   UNL     1       3.053   3.233  20.307  0.00  0.00    +0.000 A 
ATOM     14  C   UNL     1       2.460   4.500  20.241  0.00  0.00    +0.000 A 
ATOM     15  C   UNL     1       3.129   5.573  19.638  0.00  0.00    +0.000 A 
ATOM     16  C   UNL     1       4.405   5.339  19.105  0.00  0.00    +0.000 A 
ATOM     17  C   UNL     1       4.994   4.073  19.178  0.00  0.00    +0.000 A 
BRANCH  12  18
ATOM     18  N   UNL     1       4.860   1.724  19.726  0.00  0.00    +0.000 N 
ATOM     19  H   UNL     1       4.168   0.990  19.843  0.00  0.00    +0.000 HD
ATOM     20  H   UNL     1       5.688   1.571  20.292  0.00  0.00    +0.000 HD
ENDBRANCH  12  18
ENDBRANCH   1  15
BRANCH   6  21
ATOM     21  O   UNL     1       0.438  11.423  18.444  0.00  0.00    +0.000 OA
ATOM     22  H   UNL     1      -0.483  11.745  18.324  0.00  0.00    +0.000 HD
ENDBRANCH   6  21
TORSDOF 3
ENDMDL
MODEL 5
REMARK VINA RESULT:      -7.2      4.873      7.428
REMARK  Name = 
REMARK  3 active torsions:
REMARK  status: ('A' for Active; 'I' for Inactive)
REMARK    1  A    between atoms: N_1  and  C_2
REMARK    2  A    between atoms: C_5  and  C_6
REMARK    3  A    between atoms: C_11  and  O_12
REMARK                            x       y       z     vdW  Elec       q    Type
REMARK                         _______ _______ _______ _____ _____    ______ ____
ROOT
ATOM      1  C   UNL     1       2.369   6.798  18.943  0.00  0.00    +0.000 A 
ATOM      2  C   UNL     1       2.432   7.726  17.976  0.00  0.00    +0.000 A 
ATOM      3  C   UNL     1       1.919   9.072  18.244  0.00  0.00    +0.000 A 
ATOM      4  O   UNL     1       1.935   9.947  17.384  0.00  0.00    +0.000 OA
ATOM      5  C   UNL     1       1.383   9.330  19.582  0.00  0.00    +0.000 A 
ATOM      6  C   UNL     1       0.886  10.586  19.939  0.00  0.00    +0.000 A 
ATOM      7  C   UNL     1       0.398  10.799  21.223  0.00  0.00    +0.000 A 
ATOM      8  C   UNL     1       0.402   9.757  22.153  0.00  0.00    +0.000 A 
ATOM      9  C   UNL     1       0.894   8.499  21.795  0.00  0.00    +0.000 A 
ATOM     10  C   UNL     1       1.386   8.287  20.506  0.00  0.00    +0.000 A 
ATOM     11  O   UNL     1       1.860   7.033  20.213  0.00  0.00    +0.000 OA
ENDROOT
BRANCH   1  15
ATOM     12  C   UNL     1       3.712   2.747  18.354  0.00  0.00    +0.000 A 
ATOM     13  C   UNL     1       4.399   3.610  19.209  0.00  0.00    +0.000 A 
ATOM     14  C   UNL     1       3.983   4.937  19.374  0.00  0.00    +0.000 A 
ATOM     15  C   UNL     1       2.843   5.417  18.717  0.00  0.00    +0.000 A 
ATOM     16  C   UNL     1       2.135   4.531  17.892  0.00  0.00    +0.000 A 
ATOM     17  C   UNL     1       2.557   3.209  17.728  0.00  0.00    +0.000 A 
BRANCH  12  18
ATOM     18  N   UNL     1       4.026   1.385  18.321  0.00  0.00    +0.000 N 
ATOM     19  H   UNL     1       3.478   0.817  18.959  0.00  0.00    +0.000 HD
ATOM     20  H   UNL     1       5.019   1.186  18.379  0.00  0.00    +0.000 HD
ENDBRANCH  12  18
ENDBRANCH   1  15
BRANCH   6  21
ATOM     21  O   UNL     1       0.855  11.647  19.075  0.00  0.00    +0.000 OA
ATOM     22  H   UNL     1       1.278  12.415  19.519  0.00  0.00    +0.000 HD
ENDBRANCH   6  21
TORSDOF 3
ENDMDL
MODEL 6
REMARK VINA RESULT:      -7.2      4.546      6.745
REMARK  Name = 
REMARK  3 active torsions:
REMARK  status: ('A' for Active; 'I' for Inactive)
REMARK    1  A    between atoms: N_1  and  C_2
REMARK    2  A    between atoms: C_5  and  C_6
REMARK    3  A    between atoms: C_11  and  O_12
REMARK                            x       y       z     vdW  Elec       q    Type
REMARK                         _______ _______ _______ _____ _____    ______ ____
ROOT
ATOM      1  C   UNL     1       2.630   6.778  19.237  0.00  0.00    +0.000 A 
ATOM      2  C   UNL     1       3.681   6.373  18.507  0.00  0.00    +0.000 A 
ATOM      3  C   UNL     1       4.227   5.031  18.726  0.00  0.00    +0.000 A 
ATOM      4  O   UNL     1       5.201   4.625  18.100  0.00  0.00    +0.000 OA
ATOM      5  C   UNL     1       3.563   4.193  19.727  0.00  0.00    +0.000 A 
ATOM      6  C   UNL     1       3.999   2.893  19.994  0.00  0.00    +0.000 A 
ATOM      7  C   UNL     1       3.336   2.120  20.941  0.00  0.00    +0.000 A 
ATOM      8  C   UNL     1       2.237   2.646  21.625  0.00  0.00    +0.000 A 
ATOM      9  C   UNL     1       1.804   3.948  21.362  0.00  0.00    +0.000 A 
ATOM     10  C   UNL     1       2.469   4.722  20.409  0.00  0.00    +0.000 A 
ATOM     11  O   UNL     1       1.996   5.991  20.189  0.00  0.00    +0.000 OA
ENDROOT
BRANCH   1  15
ATOM     12  C   UNL     1       0.899  10.692  18.737  0.00  0.00    +0.000 A 
ATOM     13  C   UNL     1       1.659  10.111  17.720  0.00  0.00    +0.000 A 
ATOM     14  C   UNL     1       2.251   8.854  17.895  0.00  0.00    +0.000 A 
ATOM     15  C   UNL     1       2.059   8.131  19.079  0.00  0.00    +0.000 A 
ATOM     16  C   UNL     1       1.259   8.704  20.079  0.00  0.00    +0.000 A 
ATOM     17  C   UNL     1       0.675   9.960  19.901  0.00  0.00    +0.000 A 
BRANCH  12  18
ATOM     18  N   UNL     1       0.174  11.863  18.498  0.00  0.00    +0.000 N 
ATOM     19  H   UNL     1      -0.616  11.742  17.872  0.00  0.00    +0.000 HD
ATOM     20  H   UNL     1       0.747  12.662  18.250  0.00  0.00    +0.000 HD
ENDBRANCH  12  18
ENDBRANCH   1  15
BRANCH   6  21
ATOM     21  O   UNL     1       5.068   2.321  19.360  0.00  0.00    +0.000 OA
ATOM     22  H   UNL     1       4.924   2.400  18.390  0.00  0.00    +0.000 HD
ENDBRANCH   6  21
TORSDOF 3
ENDMDL
MODEL 7
REMARK VINA RESULT:      -7.1      4.006      5.327
REMARK  Name = 
REMARK  3 active torsions:
REMARK  status: ('A' for Active; 'I' for Inactive)
REMARK    1  A    between atoms: N_1  and  C_2
REMARK    2  A    between atoms: C_5  and  C_6
REMARK    3  A    between atoms: C_11  and  O_12
REMARK                            x       y       z     vdW  Elec       q    Type
REMARK                         _______ _______ _______ _____ _____    ______ ____
ROOT
ATOM      1  C   UNL     1       2.659   7.010  18.603  0.00  0.00    +0.000 A 
ATOM      2  C   UNL     1       2.400   5.805  19.134  0.00  0.00    +0.000 A 
ATOM      3  C   UNL     1       3.086   4.628  18.597  0.00  0.00    +0.000 A 
ATOM      4  O   UNL     1       2.865   3.502  19.035  0.00  0.00    +0.000 OA
ATOM      5  C   UNL     1       4.046   4.847  17.514  0.00  0.00    +0.000 A 
ATOM      6  C   UNL     1       4.763   3.789  16.949  0.00  0.00    +0.000 A 
ATOM      7  C   UNL     1       5.677   4.036  15.931  0.00  0.00    +0.000 A 
ATOM      8  C   UNL     1       5.876   5.341  15.474  0.00  0.00    +0.000 A 
ATOM      9  C   UNL     1       5.157   6.399  16.035  0.00  0.00    +0.000 A 
ATOM     10  C   UNL     1       4.240   6.149  17.058  0.00  0.00    +0.000 A 
ATOM     11  O   UNL     1       3.566   7.228  17.575  0.00  0.00    +0.000 OA
ENDROOT
BRANCH   1  15
ATOM     12  C   UNL     1       0.586  10.527  19.980  0.00  0.00    +0.000 A 
ATOM     13  C   UNL     1       0.983  10.408  18.648  0.00  0.00    +0.000 A 
ATOM     14  C   UNL     1       1.688   9.281  18.207  0.00  0.00    +0.000 A 
ATOM     15  C   UNL     1       1.973   8.227  19.084  0.00  0.00    +0.000 A 
ATOM     16  C   UNL     1       1.533   8.336  20.412  0.00  0.00    +0.000 A 
ATOM     17  C   UNL     1       0.835   9.466  20.847  0.00  0.00    +0.000 A 
BRANCH  12  18
ATOM     18  N   UNL     1      -0.259  11.569  20.377  0.00  0.00    +0.000 N 
ATOM     19  H   UNL     1      -0.166  12.413  19.821  0.00  0.00    +0.000 HD
ATOM     20  H   UNL     1      -0.246  11.756  21.374  0.00  0.00    +0.000 HD
ENDBRANCH  12  18
ENDBRANCH   1  15
BRANCH   6  21
ATOM     21  O   UNL     1       4.613   2.490  17.352  0.00  0.00    +0.000 OA
ATOM     22  H   UNL     1       3.928   2.466  18.056  0.00  0.00    +0.000 HD
ENDBRANCH   6  21
TORSDOF 3
ENDMDL
MODEL 8
REMARK VINA RESULT:      -7.1      4.006      5.639
REMARK  Name = 
REMARK  3 active torsions:
REMARK  status: ('A' for Active; 'I' for Inactive)
REMARK    1  A    between atoms: N_1  and  C_2
REMARK    2  A    between atoms: C_5  and  C_6
REMARK    3  A    between atoms: C_11  and  O_12
REMARK                            x       y       z     vdW  Elec       q    Type
REMARK                         _______ _______ _______ _____ _____    ______ ____
ROOT
ATOM      1  C   UNL     1       2.624   6.986  18.467  0.00  0.00    +0.000 A 
ATOM      2  C   UNL     1       3.729   7.014  17.707  0.00  0.00    +0.000 A 
ATOM      3  C   UNL     1       4.344   5.749  17.296  0.00  0.00    +0.000 A 
ATOM      4  O   UNL     1       5.368   5.724  16.620  0.00  0.00    +0.000 OA
ATOM      5  C   UNL     1       3.686   4.513  17.727  0.00  0.00    +0.000 A 
ATOM      6  C   UNL     1       4.186   3.259  17.370  0.00  0.00    +0.000 A 
ATOM      7  C   UNL     1       3.528   2.107  17.785  0.00  0.00    +0.000 A 
ATOM      8  C   UNL     1       2.369   2.206  18.560  0.00  0.00    +0.000 A 
ATOM      9  C   UNL     1       1.872   3.460  18.921  0.00  0.00    +0.000 A 
ATOM     10  C   UNL     1       2.533   4.616  18.501  0.00  0.00    +0.000 A 
ATOM     11  O   UNL     1       1.995   5.821  18.882  0.00  0.00    +0.000 OA
ENDROOT
BRANCH   1  15
ATOM     12  C   UNL     1       0.675  10.589  19.804  0.00  0.00    +0.000 A 
ATOM     13  C   UNL     1       1.122  10.465  18.487  0.00  0.00    +0.000 A 
ATOM     14  C   UNL     1       1.786   9.308  18.061  0.00  0.00    +0.000 A 
ATOM     15  C   UNL     1       1.981   8.231  18.936  0.00  0.00    +0.000 A 
ATOM     16  C   UNL     1       1.491   8.348  20.245  0.00  0.00    +0.000 A 
ATOM     17  C   UNL     1       0.833   9.507  20.666  0.00  0.00    +0.000 A 
BRANCH  12  18
ATOM     18  N   UNL     1      -0.132  11.668  20.179  0.00  0.00    +0.000 N 
ATOM     19  H   UNL     1      -0.754  11.995  19.446  0.00  0.00    +0.000 HD
ATOM     20  H   UNL     1       0.370  12.425  20.629  0.00  0.00    +0.000 HD
ENDBRANCH  12  18
ENDBRANCH   1  15
BRANCH   6  21
ATOM     21  O   UNL     1       5.315   3.095  16.614  0.00  0.00    +0.000 OA
ATOM     22  H   UNL     1       6.076   2.973  17.225  0.00  0.00    +0.000 HD
ENDBRANCH   6  21
TORSDOF 3
ENDMDL
MODEL 9
REMARK VINA RESULT:      -7.0      3.961      5.384
REMARK  Name = 
REMARK  3 active torsions:
REMARK  status: ('A' for Active; 'I' for Inactive)
REMARK    1  A    between atoms: N_1  and  C_2
REMARK    2  A    between atoms: C_5  and  C_6
REMARK    3  A    between atoms: C_11  and  O_12
REMARK                            x       y       z     vdW  Elec       q    Type
REMARK                         _______ _______ _______ _____ _____    ______ ____
ROOT
ATOM      1  C   UNL     1       2.516   6.889  19.069  0.00  0.00    +0.000 A 
ATOM      2  C   UNL     1       2.345   5.642  19.532  0.00  0.00    +0.000 A 
ATOM      3  C   UNL     1       3.053   4.536  18.883  0.00  0.00    +0.000 A 
ATOM      4  O   UNL     1       2.910   3.376  19.256  0.00  0.00    +0.000 OA
ATOM      5  C   UNL     1       3.940   4.872  17.767  0.00  0.00    +0.000 A 
ATOM      6  C   UNL     1       4.672   3.890  17.096  0.00  0.00    +0.000 A 
ATOM      7  C   UNL     1       5.516   4.247  16.050  0.00  0.00    +0.000 A 
ATOM      8  C   UNL     1       5.627   5.587  15.670  0.00  0.00    +0.000 A 
ATOM      9  C   UNL     1       4.891   6.569  16.337  0.00  0.00    +0.000 A 
ATOM     10  C   UNL     1       4.047   6.209  17.389  0.00  0.00    +0.000 A 
ATOM     11  O   UNL     1       3.353   7.217  18.011  0.00  0.00    +0.000 OA
ENDROOT
BRANCH   1  15
ATOM     12  C   UNL     1       0.509  10.268  20.836  0.00  0.00    +0.000 A 
ATOM     13  C   UNL     1       0.843   9.152  21.606  0.00  0.00    +0.000 A 
ATOM     14  C   UNL     1       1.464   8.039  21.025  0.00  0.00    +0.000 A 
ATOM     15  C   UNL     1       1.803   8.037  19.666  0.00  0.00    +0.000 A 
ATOM     16  C   UNL     1       1.502   9.179  18.909  0.00  0.00    +0.000 A 
ATOM     17  C   UNL     1       0.878  10.285  19.493  0.00  0.00    +0.000 A 
BRANCH  12  18
ATOM     18  N   UNL     1       0.046  11.437  21.448  0.00  0.00    +0.000 N 
ATOM     19  H   UNL     1      -0.960  11.463  21.584  0.00  0.00    +0.000 HD
ATOM     20  H   UNL     1       0.405  12.291  21.035  0.00  0.00    +0.000 HD
ENDBRANCH  12  18
ENDBRANCH   1  15
BRANCH   6  21
ATOM     21  O   UNL     1       4.606   2.562  17.419  0.00  0.00    +0.000 OA
ATOM     22  H   UNL     1       4.633   2.485  18.399  0.00  0.00    +0.000 HD
ENDBRANCH   6  21
TORSDOF 3
ENDMDL
