MODEL 1
REMARK VINA RESULT:      -9.3      0.000      0.000
REMARK  Name = 
REMARK  7 active torsions:
REMARK  status: ('A' for Active; 'I' for Inactive)
REMARK    1  A    between atoms: C_2  and  C_3
REMARK    2  A    between atoms: C_3  and  N_4
REMARK    3  A    between atoms: N_4  and  C_5
REMARK    4  A    between atoms: C_5  and  C_6
REMARK    5  A    between atoms: C_13  and  C_15
REMARK    6  A    between atoms: N_20  and  C_21
REMARK    7  A    between atoms: C_21  and  C_22
REMARK                            x       y       z     vdW  Elec       q    Type
REMARK                         _______ _______ _______ _____ _____    ______ ____
ROOT
ATOM      1  N   UNL     1       6.091   5.551  17.116  0.00  0.00    +0.000 N 
ATOM      2  C   UNL     1       7.118   4.842  16.456  0.00  0.00    +0.000 C 
ATOM      3  O   UNL     1       8.088   4.427  17.091  0.00  0.00    +0.000 OA
ENDROOT
BRANCH   2   4
ATOM      4  C   UNL     1       7.014   4.601  15.028  0.00  0.00    +0.000 A 
ATOM      5  C   UNL     1       6.190   3.730  14.340  0.00  0.00    +0.000 A 
ATOM      6  C   UNL     1       6.421   3.951  12.962  0.00  0.00    +0.000 A 
ATOM      7  C   UNL     1       7.412   4.899  12.889  0.00  0.00    +0.000 A 
ATOM      8  O   UNL     1       7.803   5.275  14.133  0.00  0.00    +0.000 OA
ENDBRANCH   2   4
BRANCH   1   9
ATOM      9  C   UNL     1       6.233   5.796  18.556  0.00  0.00    +0.000 C 
BRANCH   9  11
ATOM     10  O   UNL     1       8.009   5.323  20.134  0.00  0.00    +0.000 OA
ATOM     11  C   UNL     1       7.630   6.009  19.180  0.00  0.00    +0.000 C 
ATOM     12  N   UNL     1       8.395   7.077  18.801  0.00  0.00    +0.000 N 
ATOM     13  H   UNL     1       9.265   7.165  19.315  0.00  0.00    +0.000 HD
BRANCH  12  14
ATOM     14  C   UNL     1       8.005   8.127  17.898  0.00  0.00    +0.000 C 
BRANCH  14  15
ATOM     15  C   UNL     1       8.468   9.485  18.345  0.00  0.00    +0.000 A 
ATOM     16  C   UNL     1       9.192   9.633  19.539  0.00  0.00    +0.000 A 
ATOM     17  C   UNL     1       9.705  10.880  19.902  0.00  0.00    +0.000 A 
ATOM     18  C   UNL     1       9.494  11.971  19.069  0.00  0.00    +0.000 A 
ATOM     19  F   UNL     1      10.003  13.163  19.403  0.00  0.00    +0.000 F 
ATOM     20  C   UNL     1       8.772  11.846  17.888  0.00  0.00    +0.000 A 
ATOM     21  C   UNL     1       8.254  10.605  17.523  0.00  0.00    +0.000 A 
ENDBRANCH  14  15
ENDBRANCH  12  14
ENDBRANCH   9  11
ENDBRANCH   1   9
BRANCH   1  22
ATOM     22  C   UNL     1       4.724   5.606  16.581  0.00  0.00    +0.000 C 
BRANCH  22  23
ATOM     23  C   UNL     1       3.683   4.762  17.293  0.00  0.00    +0.000 A 
ATOM     24  C   UNL     1       2.558   5.319  17.926  0.00  0.00    +0.000 A 
ATOM     25  C   UNL     1       1.643   4.506  18.597  0.00  0.00    +0.000 A 
ATOM     26  C   UNL     1       1.824   3.129  18.602  0.00  0.00    +0.000 A 
ATOM     27  F   UNL     1       0.930   2.349  19.223  0.00  0.00    +0.000 F 
ATOM     28  C   UNL     1       2.913   2.551  17.966  0.00  0.00    +0.000 A 
ATOM     29  C   UNL     1       3.843   3.364  17.315  0.00  0.00    +0.000 A 
ENDBRANCH  22  23
ENDBRANCH   1  22
TORSDOF 7
ENDMDL
MODEL 2
REMARK VINA RESULT:      -9.1      0.573      1.167
REMARK  Name = 
REMARK  7 active torsions:
REMARK  status: ('A' for Active; 'I' for Inactive)
REMARK    1  A    between atoms: C_2  and  C_3
REMARK    2  A    between atoms: C_3  and  N_4
REMARK    3  A    between atoms: N_4  and  C_5
REMARK    4  A    between atoms: C_5  and  C_6
REMARK    5  A    between atoms: C_13  and  C_15
REMARK    6  A    between atoms: N_20  and  C_21
REMARK    7  A    between atoms: C_21  and  C_22
REMARK                            x       y       z     vdW  Elec       q    Type
REMARK                         _______ _______ _______ _____ _____    ______ ____
ROOT
ATOM      1  N   UNL     1       6.152   5.526  17.065  0.00  0.00    +0.000 N 
ATOM      2  C   UNL     1       7.095   4.747  16.359  0.00  0.00    +0.000 C 
ATOM      3  O   UNL     1       8.046   4.241  16.954  0.00  0.00    +0.000 OA
ENDROOT
BRANCH   2   4
ATOM      4  C   UNL     1       6.926   4.545  14.931  0.00  0.00    +0.000 A 
ATOM      5  C   UNL     1       7.530   5.196  13.872  0.00  0.00    +0.000 A 
ATOM      6  C   UNL     1       7.087   4.555  12.692  0.00  0.00    +0.000 A 
ATOM      7  C   UNL     1       6.195   3.592  13.093  0.00  0.00    +0.000 A 
ATOM      8  O   UNL     1       6.064   3.599  14.444  0.00  0.00    +0.000 OA
ENDBRANCH   2   4
BRANCH   1   9
ATOM      9  C   UNL     1       6.359   5.729  18.504  0.00  0.00    +0.000 C 
BRANCH   9  11
ATOM     10  O   UNL     1       8.258   5.293  19.943  0.00  0.00    +0.000 OA
ATOM     11  C   UNL     1       7.772   6.006  19.060  0.00  0.00    +0.000 C 
ATOM     12  N   UNL     1       8.435   7.150  18.711  0.00  0.00    +0.000 N 
ATOM     13  H   UNL     1       9.327   7.271  19.178  0.00  0.00    +0.000 HD
BRANCH  12  14
ATOM     14  C   UNL     1       7.916   8.222  17.903  0.00  0.00    +0.000 C 
BRANCH  14  15
ATOM     15  C   UNL     1       8.440   9.570  18.313  0.00  0.00    +0.000 A 
ATOM     16  C   UNL     1       9.248   9.703  19.455  0.00  0.00    +0.000 A 
ATOM     17  C   UNL     1       9.814  10.938  19.777  0.00  0.00    +0.000 A 
ATOM     18  C   UNL     1       9.572  12.032  18.957  0.00  0.00    +0.000 A 
ATOM     19  F   UNL     1      10.131  13.213  19.251  0.00  0.00    +0.000 F 
ATOM     20  C   UNL     1       8.769  11.922  17.829  0.00  0.00    +0.000 A 
ATOM     21  C   UNL     1       8.198  10.694  17.504  0.00  0.00    +0.000 A 
ENDBRANCH  14  15
ENDBRANCH  12  14
ENDBRANCH   9  11
ENDBRANCH   1   9
BRANCH   1  22
ATOM     22  C   UNL     1       4.778   5.705  16.576  0.00  0.00    +0.000 C 
BRANCH  22  23
ATOM     23  C   UNL     1       3.706   4.862  17.242  0.00  0.00    +0.000 A 
ATOM     24  C   UNL     1       3.622   3.469  17.070  0.00  0.00    +0.000 A 
ATOM     25  C   UNL     1       2.599   2.737  17.677  0.00  0.00    +0.000 A 
ATOM     26  C   UNL     1       1.682   3.387  18.493  0.00  0.00    +0.000 A 
ATOM     27  F   UNL     1       0.718   2.679  19.095  0.00  0.00    +0.000 F 
ATOM     28  C   UNL     1       1.755   4.757  18.697  0.00  0.00    +0.000 A 
ATOM     29  C   UNL     1       2.762   5.495  18.071  0.00  0.00    +0.000 A 
ENDBRANCH  22  23
ENDBRANCH   1  22
TORSDOF 7
ENDMDL
MODEL 3
REMARK VINA RESULT:      -8.8      5.447      8.527
REMARK  Name = 
REMARK  7 active torsions:
REMARK  status: ('A' for Active; 'I' for Inactive)
REMARK    1  A    between atoms: C_2  and  C_3
REMARK    2  A    between atoms: C_3  and  N_4
REMARK    3  A    between atoms: N_4  and  C_5
REMARK    4  A    between atoms: C_5  and  C_6
REMARK    5  A    between atoms: C_13  and  C_15
REMARK    6  A    between atoms: N_20  and  C_21
REMARK    7  A    between atoms: C_21  and  C_22
REMARK                            x       y       z     vdW  Elec       q    Type
REMARK                         _______ _______ _______ _____ _____    ______ ____
ROOT
ATOM      1  N   UNL     1       2.280   6.798  19.448  0.00  0.00    +0.000 N 
ATOM      2  C   UNL     1       1.578   6.244  20.540  0.00  0.00    +0.000 C 
ATOM      3  O   UNL     1       0.941   6.974  21.299  0.00  0.00    +0.000 OA
ENDROOT
BRANCH   2   4
ATOM      4  C   UNL     1       1.611   4.807  20.754  0.00  0.00    +0.000 A 
ATOM      5  C   UNL     1       0.848   3.813  20.171  0.00  0.00    +0.000 A 
ATOM      6  C   UNL     1       1.341   2.581  20.659  0.00  0.00    +0.000 A 
ATOM      7  C   UNL     1       2.334   2.895  21.554  0.00  0.00    +0.000 A 
ATOM      8  O   UNL     1       2.483   4.241  21.645  0.00  0.00    +0.000 OA
ENDBRANCH   2   4
BRANCH   1   9
ATOM      9  C   UNL     1       2.244   8.254  19.268  0.00  0.00    +0.000 C 
BRANCH   9  11
ATOM     10  O   UNL     1       2.768   8.787  16.963  0.00  0.00    +0.000 OA
ATOM     11  C   UNL     1       1.945   8.864  17.881  0.00  0.00    +0.000 C 
ATOM     12  N   UNL     1       0.843   9.653  17.702  0.00  0.00    +0.000 N 
ATOM     13  H   UNL     1       0.770  10.058  16.774  0.00  0.00    +0.000 HD
BRANCH  12  14
ATOM     14  C   UNL     1      -0.082  10.069  18.722  0.00  0.00    +0.000 C 
BRANCH  14  15
ATOM     15  C   UNL     1      -1.418  10.478  18.169  0.00  0.00    +0.000 A 
ATOM     16  C   UNL     1      -1.930   9.861  17.015  0.00  0.00    +0.000 A 
ATOM     17  C   UNL     1      -3.213  10.173  16.560  0.00  0.00    +0.000 A 
ATOM     18  C   UNL     1      -3.978  11.096  17.261  0.00  0.00    +0.000 A 
ATOM     19  F   UNL     1      -5.216  11.381  16.840  0.00  0.00    +0.000 F 
ATOM     20  C   UNL     1      -3.485  11.723  18.399  0.00  0.00    +0.000 A 
ATOM     21  C   UNL     1      -2.204  11.419  18.856  0.00  0.00    +0.000 A 
ENDBRANCH  14  15
ENDBRANCH  12  14
ENDBRANCH   9  11
ENDBRANCH   1   9
BRANCH   1  22
ATOM     22  C   UNL     1       2.598   6.005  18.252  0.00  0.00    +0.000 C 
BRANCH  22  23
ATOM     23  C   UNL     1       4.041   5.564  18.094  0.00  0.00    +0.000 A 
ATOM     24  C   UNL     1       4.904   5.386  19.190  0.00  0.00    +0.000 A 
ATOM     25  C   UNL     1       6.234   5.010  18.995  0.00  0.00    +0.000 A 
ATOM     26  C   UNL     1       6.697   4.769  17.708  0.00  0.00    +0.000 A 
ATOM     27  F   UNL     1       7.967   4.382  17.526  0.00  0.00    +0.000 F 
ATOM     28  C   UNL     1       5.862   4.915  16.611  0.00  0.00    +0.000 A 
ATOM     29  C   UNL     1       4.537   5.315  16.801  0.00  0.00    +0.000 A 
ENDBRANCH  22  23
ENDBRANCH   1  22
TORSDOF 7
ENDMDL
MODEL 4
REMARK VINA RESULT:      -8.8      4.764      6.234
REMARK  Name = 
REMARK  7 active torsions:
REMARK  status: ('A' for Active; 'I' for Inactive)
REMARK    1  A    between atoms: C_2  and  C_3
REMARK    2  A    between atoms: C_3  and  N_4
REMARK    3  A    between atoms: N_4  and  C_5
REMARK    4  A    between atoms: C_5  and  C_6
REMARK    5  A    between atoms: C_13  and  C_15
REMARK    6  A    between atoms: N_20  and  C_21
REMARK    7  A    between atoms: C_21  and  C_22
REMARK                            x       y       z     vdW  Elec       q    Type
REMARK                         _______ _______ _______ _____ _____    ______ ____
ROOT
ATOM      1  N   UNL     1       3.481   6.059  17.700  0.00  0.00    +0.000 N 
ATOM      2  C   UNL     1       4.813   6.226  17.264  0.00  0.00    +0.000 C 
ATOM      3  O   UNL     1       5.518   7.106  17.758  0.00  0.00    +0.000 OA
ENDROOT
BRANCH   2   4
ATOM      4  C   UNL     1       5.343   5.346  16.237  0.00  0.00    +0.000 A 
ATOM      5  C   UNL     1       5.366   5.510  14.864  0.00  0.00    +0.000 A 
ATOM      6  C   UNL     1       6.076   4.408  14.334  0.00  0.00    +0.000 A 
ATOM      7  C   UNL     1       6.393   3.608  15.403  0.00  0.00    +0.000 A 
ATOM      8  O   UNL     1       5.925   4.149  16.557  0.00  0.00    +0.000 OA
ENDBRANCH   2   4
BRANCH   1   9
ATOM      9  C   UNL     1       2.967   6.974  18.726  0.00  0.00    +0.000 C 
BRANCH   9  11
ATOM     10  O   UNL     1       2.414   8.799  17.232  0.00  0.00    +0.000 OA
ATOM     11  C   UNL     1       2.208   8.256  18.322  0.00  0.00    +0.000 C 
ATOM     12  N   UNL     1       1.429   8.909  19.236  0.00  0.00    +0.000 N 
ATOM     13  H   UNL     1       1.025   9.774  18.893  0.00  0.00    +0.000 HD
BRANCH  12  14
ATOM     14  C   UNL     1       1.282   8.570  20.627  0.00  0.00    +0.000 C 
BRANCH  14  15
ATOM     15  C   UNL     1       0.549   9.622  21.411  0.00  0.00    +0.000 A 
ATOM     16  C   UNL     1       0.460  10.938  20.927  0.00  0.00    +0.000 A 
ATOM     17  C   UNL     1      -0.304  11.889  21.608  0.00  0.00    +0.000 A 
ATOM     18  C   UNL     1      -0.975  11.519  22.766  0.00  0.00    +0.000 A 
ATOM     19  F   UNL     1      -1.725  12.423  23.409  0.00  0.00    +0.000 F 
ATOM     20  C   UNL     1      -0.892  10.225  23.265  0.00  0.00    +0.000 A 
ATOM     21  C   UNL     1      -0.128   9.273  22.592  0.00  0.00    +0.000 A 
ENDBRANCH  14  15
ENDBRANCH  12  14
ENDBRANCH   9  11
ENDBRANCH   1   9
BRANCH   1  22
ATOM     22  C   UNL     1       2.781   4.773  17.571  0.00  0.00    +0.000 C 
BRANCH  22  23
ATOM     23  C   UNL     1       2.484   4.030  18.860  0.00  0.00    +0.000 A 
ATOM     24  C   UNL     1       3.488   3.430  19.639  0.00  0.00    +0.000 A 
ATOM     25  C   UNL     1       3.164   2.729  20.802  0.00  0.00    +0.000 A 
ATOM     26  C   UNL     1       1.840   2.661  21.215  0.00  0.00    +0.000 A 
ATOM     27  F   UNL     1       1.534   2.011  22.346  0.00  0.00    +0.000 F 
ATOM     28  C   UNL     1       0.831   3.263  20.478  0.00  0.00    +0.000 A 
ATOM     29  C   UNL     1       1.150   3.944  19.300  0.00  0.00    +0.000 A 
ENDBRANCH  22  23
ENDBRANCH   1  22
TORSDOF 7
ENDMDL
MODEL 5
REMARK VINA RESULT:      -8.8      3.983      6.689
REMARK  Name = 
REMARK  7 active torsions:
REMARK  status: ('A' for Active; 'I' for Inactive)
REMARK    1  A    between atoms: C_2  and  C_3
REMARK    2  A    between atoms: C_3  and  N_4
REMARK    3  A    between atoms: N_4  and  C_5
REMARK    4  A    between atoms: C_5  and  C_6
REMARK    5  A    between atoms: C_13  and  C_15
REMARK    6  A    between atoms: N_20  and  C_21
REMARK    7  A    between atoms: C_21  and  C_22
REMARK                            x       y       z     vdW  Elec       q    Type
REMARK                         _______ _______ _______ _____ _____    ______ ____
ROOT
ATOM      1  N   UNL     1       4.686   4.896  18.212  0.00  0.00    +0.000 N 
ATOM      2  C   UNL     1       4.359   3.872  19.128  0.00  0.00    +0.000 C 
ATOM      3  O   UNL     1       5.138   3.586  20.038  0.00  0.00    +0.000 OA
ENDROOT
BRANCH   2   4
ATOM      4  C   UNL     1       3.095   3.170  18.991  0.00  0.00    +0.000 A 
ATOM      5  C   UNL     1       2.705   2.237  18.049  0.00  0.00    +0.000 A 
ATOM      6  C   UNL     1       1.413   1.798  18.420  0.00  0.00    +0.000 A 
ATOM      7  C   UNL     1       1.066   2.529  19.529  0.00  0.00    +0.000 A 
ATOM      8  O   UNL     1       2.063   3.386  19.864  0.00  0.00    +0.000 OA
ENDBRANCH   2   4
BRANCH   1   9
ATOM      9  C   UNL     1       5.978   5.576  18.365  0.00  0.00    +0.000 C 
BRANCH   9  11
ATOM     10  O   UNL     1       8.101   4.437  18.619  0.00  0.00    +0.000 OA
ATOM     11  C   UNL     1       7.274   4.920  17.840  0.00  0.00    +0.000 C 
ATOM     12  N   UNL     1       7.608   5.025  16.518  0.00  0.00    +0.000 N 
ATOM     13  H   UNL     1       8.508   4.617  16.286  0.00  0.00    +0.000 HD
BRANCH  12  14
ATOM     14  C   UNL     1       6.900   5.776  15.517  0.00  0.00    +0.000 C 
BRANCH  14  15
ATOM     15  C   UNL     1       6.518   4.946  14.324  0.00  0.00    +0.000 A 
ATOM     16  C   UNL     1       7.407   4.795  13.247  0.00  0.00    +0.000 A 
ATOM     17  C   UNL     1       7.090   3.945  12.185  0.00  0.00    +0.000 A 
ATOM     18  C   UNL     1       5.889   3.248  12.207  0.00  0.00    +0.000 A 
ATOM     19  F   UNL     1       5.592   2.416  11.201  0.00  0.00    +0.000 F 
ATOM     20  C   UNL     1       4.993   3.391  13.259  0.00  0.00    +0.000 A 
ATOM     21  C   UNL     1       5.301   4.241  14.319  0.00  0.00    +0.000 A 
ENDBRANCH  14  15
ENDBRANCH  12  14
ENDBRANCH   9  11
ENDBRANCH   1   9
BRANCH   1  22
ATOM     22  C   UNL     1       3.650   5.632  17.475  0.00  0.00    +0.000 C 
BRANCH  22  23
ATOM     23  C   UNL     1       2.946   6.747  18.225  0.00  0.00    +0.000 A 
ATOM     24  C   UNL     1       2.556   6.628  19.571  0.00  0.00    +0.000 A 
ATOM     25  C   UNL     1       1.883   7.669  20.212  0.00  0.00    +0.000 A 
ATOM     26  C   UNL     1       1.633   8.850  19.525  0.00  0.00    +0.000 A 
ATOM     27  F   UNL     1       1.010   9.857  20.151  0.00  0.00    +0.000 F 
ATOM     28  C   UNL     1       2.026   9.003  18.203  0.00  0.00    +0.000 A 
ATOM     29  C   UNL     1       2.678   7.954  17.552  0.00  0.00    +0.000 A 
ENDBRANCH  22  23
ENDBRANCH   1  22
TORSDOF 7
ENDMDL
MODEL 6
REMARK VINA RESULT:      -8.7      4.691      6.232
REMARK  Name = 
REMARK  7 active torsions:
REMARK  status: ('A' for Active; 'I' for Inactive)
REMARK    1  A    between atoms: C_2  and  C_3
REMARK    2  A    between atoms: C_3  and  N_4
REMARK    3  A    between atoms: N_4  and  C_5
REMARK    4  A    between atoms: C_5  and  C_6
REMARK    5  A    between atoms: C_13  and  C_15
REMARK    6  A    between atoms: N_20  and  C_21
REMARK    7  A    between atoms: C_21  and  C_22
REMARK                            x       y       z     vdW  Elec       q    Type
REMARK                         _______ _______ _______ _____ _____    ______ ____
ROOT
ATOM      1  N   UNL     1       3.557   6.032  17.680  0.00  0.00    +0.000 N 
ATOM      2  C   UNL     1       4.900   6.209  17.282  0.00  0.00    +0.000 C 
ATOM      3  O   UNL     1       5.588   7.086  17.805  0.00  0.00    +0.000 OA
ENDROOT
BRANCH   2   4
ATOM      4  C   UNL     1       5.460   5.344  16.259  0.00  0.00    +0.000 A 
ATOM      5  C   UNL     1       6.208   4.190  16.395  0.00  0.00    +0.000 A 
ATOM      6  C   UNL     1       6.423   3.686  15.092  0.00  0.00    +0.000 A 
ATOM      7  C   UNL     1       5.845   4.588  14.234  0.00  0.00    +0.000 A 
ATOM      8  O   UNL     1       5.289   5.614  14.927  0.00  0.00    +0.000 OA
ENDBRANCH   2   4
BRANCH   1   9
ATOM      9  C   UNL     1       3.013   6.934  18.702  0.00  0.00    +0.000 C 
BRANCH   9  11
ATOM     10  O   UNL     1       2.514   8.780  17.215  0.00  0.00    +0.000 OA
ATOM     11  C   UNL     1       2.275   8.227  18.293  0.00  0.00    +0.000 C 
ATOM     12  N   UNL     1       1.477   8.876  19.194  0.00  0.00    +0.000 N 
ATOM     13  H   UNL     1       1.089   9.748  18.850  0.00  0.00    +0.000 HD
BRANCH  12  14
ATOM     14  C   UNL     1       1.291   8.523  20.576  0.00  0.00    +0.000 C 
BRANCH  14  15
ATOM     15  C   UNL     1       0.463   9.525  21.330  0.00  0.00    +0.000 A 
ATOM     16  C   UNL     1      -0.035  10.668  20.682  0.00  0.00    +0.000 A 
ATOM     17  C   UNL     1      -0.886  11.547  21.358  0.00  0.00    +0.000 A 
ATOM     18  C   UNL     1      -1.235  11.277  22.675  0.00  0.00    +0.000 A 
ATOM     19  F   UNL     1      -2.067  12.105  23.318  0.00  0.00    +0.000 F 
ATOM     20  C   UNL     1      -0.745  10.156  23.334  0.00  0.00    +0.000 A 
ATOM     21  C   UNL     1       0.106   9.279  22.667  0.00  0.00    +0.000 A 
ENDBRANCH  14  15
ENDBRANCH  12  14
ENDBRANCH   9  11
ENDBRANCH   1   9
BRANCH   1  22
ATOM     22  C   UNL     1       2.866   4.746  17.517  0.00  0.00    +0.000 C 
BRANCH  22  23
ATOM     23  C   UNL     1       2.495   4.009  18.790  0.00  0.00    +0.000 A 
ATOM     24  C   UNL     1       1.169   3.899  19.245  0.00  0.00    +0.000 A 
ATOM     25  C   UNL     1       0.878   3.239  20.439  0.00  0.00    +0.000 A 
ATOM     26  C   UNL     1       1.905   2.648  21.164  0.00  0.00    +0.000 A 
ATOM     27  F   UNL     1       1.619   1.992  22.297  0.00  0.00    +0.000 F 
ATOM     28  C   UNL     1       3.219   2.722  20.728  0.00  0.00    +0.000 A 
ATOM     29  C   UNL     1       3.516   3.403  19.546  0.00  0.00    +0.000 A 
ENDBRANCH  22  23
ENDBRANCH   1  22
TORSDOF 7
ENDMDL
MODEL 7
REMARK VINA RESULT:      -8.7      4.724      6.222
REMARK  Name = 
REMARK  7 active torsions:
REMARK  status: ('A' for Active; 'I' for Inactive)
REMARK    1  A    between atoms: C_2  and  C_3
REMARK    2  A    between atoms: C_3  and  N_4
REMARK    3  A    between atoms: N_4  and  C_5
REMARK    4  A    between atoms: C_5  and  C_6
REMARK    5  A    between atoms: C_13  and  C_15
REMARK    6  A    between atoms: N_20  and  C_21
REMARK    7  A    between atoms: C_21  and  C_22
REMARK                            x       y       z     vdW  Elec       q    Type
REMARK                         _______ _______ _______ _____ _____    ______ ____
ROOT
ATOM      1  N   UNL     1       3.486   6.086  17.664  0.00  0.00    +0.000 N 
ATOM      2  C   UNL     1       4.832   6.216  17.257  0.00  0.00    +0.000 C 
ATOM      3  O   UNL     1       5.553   7.071  17.773  0.00  0.00    +0.000 OA
ENDROOT
BRANCH   2   4
ATOM      4  C   UNL     1       5.356   5.329  16.234  0.00  0.00    +0.000 A 
ATOM      5  C   UNL     1       5.435   5.513  14.866  0.00  0.00    +0.000 A 
ATOM      6  C   UNL     1       6.112   4.388  14.341  0.00  0.00    +0.000 A 
ATOM      7  C   UNL     1       6.354   3.557  15.407  0.00  0.00    +0.000 A 
ATOM      8  O   UNL     1       5.871   4.101  16.553  0.00  0.00    +0.000 OA
ENDBRANCH   2   4
BRANCH   1   9
ATOM      9  C   UNL     1       2.979   7.008  18.688  0.00  0.00    +0.000 C 
BRANCH   9  11
ATOM     10  O   UNL     1       2.469   8.851  17.201  0.00  0.00    +0.000 OA
ATOM     11  C   UNL     1       2.234   8.297  18.279  0.00  0.00    +0.000 C 
ATOM     12  N   UNL     1       1.434   8.942  19.181  0.00  0.00    +0.000 N 
ATOM     13  H   UNL     1       1.042   9.813  18.837  0.00  0.00    +0.000 HD
BRANCH  12  14
ATOM     14  C   UNL     1       1.252   8.589  20.563  0.00  0.00    +0.000 C 
BRANCH  14  15
ATOM     15  C   UNL     1       0.314   9.515  21.285  0.00  0.00    +0.000 A 
ATOM     16  C   UNL     1      -0.036   9.272  22.624  0.00  0.00    +0.000 A 
ATOM     17  C   UNL     1      -0.829  10.187  23.321  0.00  0.00    +0.000 A 
ATOM     18  C   UNL     1      -1.266  11.338  22.679  0.00  0.00    +0.000 A 
ATOM     19  F   UNL     1      -2.008  12.226  23.351  0.00  0.00    +0.000 F 
ATOM     20  C   UNL     1      -0.937  11.590  21.352  0.00  0.00    +0.000 A 
ATOM     21  C   UNL     1      -0.150  10.680  20.650  0.00  0.00    +0.000 A 
ENDBRANCH  14  15
ENDBRANCH  12  14
ENDBRANCH   9  11
ENDBRANCH   1   9
BRANCH   1  22
ATOM     22  C   UNL     1       2.752   4.822  17.510  0.00  0.00    +0.000 C 
BRANCH  22  23
ATOM     23  C   UNL     1       2.430   4.065  18.785  0.00  0.00    +0.000 A 
ATOM     24  C   UNL     1       1.126   3.972  19.303  0.00  0.00    +0.000 A 
ATOM     25  C   UNL     1       0.882   3.291  20.497  0.00  0.00    +0.000 A 
ATOM     26  C   UNL     1       1.931   2.664  21.156  0.00  0.00    +0.000 A 
ATOM     27  F   UNL     1       1.689   1.988  22.288  0.00  0.00    +0.000 F 
ATOM     28  C   UNL     1       3.224   2.721  20.656  0.00  0.00    +0.000 A 
ATOM     29  C   UNL     1       3.475   3.423  19.475  0.00  0.00    +0.000 A 
ENDBRANCH  22  23
ENDBRANCH   1  22
TORSDOF 7
ENDMDL
MODEL 8
REMARK VINA RESULT:      -8.6      3.472      4.494
REMARK  Name = 
REMARK  7 active torsions:
REMARK  status: ('A' for Active; 'I' for Inactive)
REMARK    1  A    between atoms: C_2  and  C_3
REMARK    2  A    between atoms: C_3  and  N_4
REMARK    3  A    between atoms: N_4  and  C_5
REMARK    4  A    between atoms: C_5  and  C_6
REMARK    5  A    between atoms: C_13  and  C_15
REMARK    6  A    between atoms: N_20  and  C_21
REMARK    7  A    between atoms: C_21  and  C_22
REMARK                            x       y       z     vdW  Elec       q    Type
REMARK                         _______ _______ _______ _____ _____    ______ ____
ROOT
ATOM      1  N   UNL     1       5.944   4.631  16.030  0.00  0.00    +0.000 N 
ATOM      2  C   UNL     1       6.610   4.829  14.801  0.00  0.00    +0.000 C 
ATOM      3  O   UNL     1       7.535   5.638  14.724  0.00  0.00    +0.000 OA
ENDROOT
BRANCH   2   4
ATOM      4  C   UNL     1       6.199   4.065  13.636  0.00  0.00    +0.000 A 
ATOM      5  C   UNL     1       4.932   3.838  13.135  0.00  0.00    +0.000 A 
ATOM      6  C   UNL     1       5.092   3.110  11.934  0.00  0.00    +0.000 A 
ATOM      7  C   UNL     1       6.440   2.883  11.802  0.00  0.00    +0.000 A 
ATOM      8  O   UNL     1       7.117   3.428  12.844  0.00  0.00    +0.000 OA
ENDBRANCH   2   4
BRANCH   1   9
ATOM      9  C   UNL     1       6.369   5.431  17.185  0.00  0.00    +0.000 C 
BRANCH   9  11
ATOM     10  O   UNL     1       7.181   7.713  17.217  0.00  0.00    +0.000 OA
ATOM     11  C   UNL     1       6.199   6.965  17.180  0.00  0.00    +0.000 C 
ATOM     12  N   UNL     1       4.955   7.518  17.314  0.00  0.00    +0.000 N 
ATOM     13  H   UNL     1       4.956   8.531  17.364  0.00  0.00    +0.000 HD
BRANCH  12  14
ATOM     14  C   UNL     1       3.727   6.806  17.548  0.00  0.00    +0.000 C 
BRANCH  14  15
ATOM     15  C   UNL     1       2.728   7.606  18.335  0.00  0.00    +0.000 A 
ATOM     16  C   UNL     1       2.397   7.237  19.649  0.00  0.00    +0.000 A 
ATOM     17  C   UNL     1       1.544   8.037  20.412  0.00  0.00    +0.000 A 
ATOM     18  C   UNL     1       1.028   9.202  19.859  0.00  0.00    +0.000 A 
ATOM     19  F   UNL     1       0.227   9.983  20.594  0.00  0.00    +0.000 F 
ATOM     20  C   UNL     1       1.337   9.578  18.557  0.00  0.00    +0.000 A 
ATOM     21  C   UNL     1       2.184   8.782  17.790  0.00  0.00    +0.000 A 
ENDBRANCH  14  15
ENDBRANCH  12  14
ENDBRANCH   9  11
ENDBRANCH   1   9
BRANCH   1  22
ATOM     22  C   UNL     1       5.240   3.377  16.334  0.00  0.00    +0.000 C 
BRANCH  22  23
ATOM     23  C   UNL     1       4.098   3.465  17.328  0.00  0.00    +0.000 A 
ATOM     24  C   UNL     1       2.755   3.589  16.932  0.00  0.00    +0.000 A 
ATOM     25  C   UNL     1       1.739   3.698  17.883  0.00  0.00    +0.000 A 
ATOM     26  C   UNL     1       2.055   3.641  19.234  0.00  0.00    +0.000 A 
ATOM     27  F   UNL     1       1.075   3.719  20.145  0.00  0.00    +0.000 F 
ATOM     28  C   UNL     1       3.370   3.497  19.653  0.00  0.00    +0.000 A 
ATOM     29  C   UNL     1       4.391   3.412  18.704  0.00  0.00    +0.000 A 
ENDBRANCH  22  23
ENDBRANCH   1  22
TORSDOF 7
ENDMDL
MODEL 9
REMARK VINA RESULT:      -8.6      3.955      6.641
REMARK  Name = 
REMARK  7 active torsions:
REMARK  status: ('A' for Active; 'I' for Inactive)
REMARK    1  A    between atoms: C_2  and  C_3
REMARK    2  A    between atoms: C_3  and  N_4
REMARK    3  A    between atoms: N_4  and  C_5
REMARK    4  A    between atoms: C_5  and  C_6
REMARK    5  A    between atoms: C_13  and  C_15
REMARK    6  A    between atoms: N_20  and  C_21
REMARK    7  A    between atoms: C_21  and  C_22
REMARK                            x       y       z     vdW  Elec       q    Type
REMARK                         _______ _______ _______ _____ _____    ______ ____
ROOT
ATOM      1  N   UNL     1       4.651   5.070  18.240  0.00  0.00    +0.000 N 
ATOM      2  C   UNL     1       4.366   4.053  19.176  0.00  0.00    +0.000 C 
ATOM      3  O   UNL     1       5.165   3.801  20.077  0.00  0.00    +0.000 OA
ENDROOT
BRANCH   2   4
ATOM      4  C   UNL     1       3.119   3.315  19.068  0.00  0.00    +0.000 A 
ATOM      5  C   UNL     1       1.995   3.363  19.871  0.00  0.00    +0.000 A 
ATOM      6  C   UNL     1       1.032   2.516  19.277  0.00  0.00    +0.000 A 
ATOM      7  C   UNL     1       1.642   1.955  18.182  0.00  0.00    +0.000 A 
ATOM      8  O   UNL     1       2.916   2.405  18.065  0.00  0.00    +0.000 OA
ENDBRANCH   2   4
BRANCH   1   9
ATOM      9  C   UNL     1       5.926   5.787  18.362  0.00  0.00    +0.000 C 
BRANCH   9  11
ATOM     10  O   UNL     1       8.039   4.682  18.790  0.00  0.00    +0.000 OA
ATOM     11  C   UNL     1       7.248   5.108  17.943  0.00  0.00    +0.000 C 
ATOM     12  N   UNL     1       7.646   5.130  16.634  0.00  0.00    +0.000 N 
ATOM     13  H   UNL     1       8.557   4.715  16.472  0.00  0.00    +0.000 HD
BRANCH  12  14
ATOM     14  C   UNL     1       6.982   5.810  15.554  0.00  0.00    +0.000 C 
BRANCH  14  15
ATOM     15  C   UNL     1       6.597   4.889  14.431  0.00  0.00    +0.000 A 
ATOM     16  C   UNL     1       5.389   4.173  14.480  0.00  0.00    +0.000 A 
ATOM     17  C   UNL     1       4.987   3.394  13.393  0.00  0.00    +0.000 A 
ATOM     18  C   UNL     1       5.793   3.337  12.262  0.00  0.00    +0.000 A 
ATOM     19  F   UNL     1       5.400   2.609  11.210  0.00  0.00    +0.000 F 
ATOM     20  C   UNL     1       6.995   4.031  12.199  0.00  0.00    +0.000 A 
ATOM     21  C   UNL     1       7.403   4.806  13.283  0.00  0.00    +0.000 A 
ENDBRANCH  14  15
ENDBRANCH  12  14
ENDBRANCH   9  11
ENDBRANCH   1   9
BRANCH   1  22
ATOM     22  C   UNL     1       3.585   5.767  17.507  0.00  0.00    +0.000 C 
BRANCH  22  23
ATOM     23  C   UNL     1       2.861   6.874  18.251  0.00  0.00    +0.000 A 
ATOM     24  C   UNL     1       2.498   6.765  19.605  0.00  0.00    +0.000 A 
ATOM     25  C   UNL     1       1.805   7.797  20.241  0.00  0.00    +0.000 A 
ATOM     26  C   UNL     1       1.509   8.959  19.540  0.00  0.00    +0.000 A 
ATOM     27  F   UNL     1       0.868   9.958  20.160  0.00  0.00    +0.000 F 
ATOM     28  C   UNL     1       1.876   9.101  18.210  0.00  0.00    +0.000 A 
ATOM     29  C   UNL     1       2.547   8.061  17.564  0.00  0.00    +0.000 A 
ENDBRANCH  22  23
ENDBRANCH   1  22
TORSDOF 7
ENDMDL
