MODEL 1
REMARK VINA RESULT:      -7.6      0.000      0.000
REMARK  Name = 
REMARK  8 active torsions:
REMARK  status: ('A' for Active; 'I' for Inactive)
REMARK    1  A    between atoms: C_1  and  C_2
REMARK    2  A    between atoms: C_5  and  C_6
REMARK    3  A    between atoms: C_6  and  S_8
REMARK    4  A    between atoms: S_8  and  C_9
REMARK    5  A    between atoms: C_12  and  S_13
REMARK    6  A    between atoms: S_13  and  C_14
REMARK    7  A    between atoms: C_14  and  C_16
REMARK    8  A    between atoms: C_19  and  C_20
REMARK                            x       y       z     vdW  Elec       q    Type
REMARK                         _______ _______ _______ _____ _____    ______ ____
ROOT
ATOM      1  C   UNL     1       2.047   8.242  18.725  0.00  0.00    +0.000 A 
ATOM      2  N   UNL     1       1.694   7.893  19.945  0.00  0.00    +0.000 NA
ATOM      3  N   UNL     1       2.253   6.676  20.325  0.00  0.00    +0.000 NA
ATOM      4  C   UNL     1       3.030   6.164  19.381  0.00  0.00    +0.000 A 
ATOM      5  S   UNL     1       2.967   7.044  17.904  0.00  0.00    +0.000 S 
ENDROOT
BRANCH   1   6
ATOM      6  S   UNL     1       1.909   9.888  18.151  0.00  0.00    +0.000 S 
BRANCH   6   7
ATOM      7  C   UNL     1       0.706  10.565  19.241  0.00  0.00    +0.000 C 
ATOM      8  O   UNL     1       0.962  10.797  20.417  0.00  0.00    +0.000 OA
BRANCH   7  13
ATOM      9  C   UNL     1      -4.690  11.129  17.044  0.00  0.00    +0.000 C 
ATOM     10  C   UNL     1      -3.303  10.992  17.605  0.00  0.00    +0.000 A 
ATOM     11  C   UNL     1      -2.376  10.103  17.050  0.00  0.00    +0.000 A 
ATOM     12  C   UNL     1      -1.088   9.979  17.594  0.00  0.00    +0.000 A 
ATOM     13  C   UNL     1      -0.693  10.742  18.706  0.00  0.00    +0.000 A 
ATOM     14  C   UNL     1      -1.629  11.633  19.255  0.00  0.00    +0.000 A 
ATOM     15  C   UNL     1      -2.917  11.756  18.711  0.00  0.00    +0.000 A 
ENDBRANCH   7  13
ENDBRANCH   6   7
ENDBRANCH   1   6
BRANCH   4  16
ATOM     16  S   UNL     1       3.864   4.638  19.659  0.00  0.00    +0.000 S 
BRANCH  16  17
ATOM     17  C   UNL     1       5.467   4.913  18.974  0.00  0.00    +0.000 C 
ATOM     18  O   UNL     1       6.423   5.252  19.667  0.00  0.00    +0.000 OA
BRANCH  17  19
ATOM     19  C   UNL     1       5.665   4.735  17.493  0.00  0.00    +0.000 A 
ATOM     20  C   UNL     1       6.871   5.196  16.931  0.00  0.00    +0.000 A 
ATOM     21  C   UNL     1       7.172   4.994  15.578  0.00  0.00    +0.000 A 
ATOM     22  C   UNL     1       6.271   4.324  14.747  0.00  0.00    +0.000 A 
ATOM     23  C   UNL     1       6.621   4.002  13.322  0.00  0.00    +0.000 C 
ATOM     24  C   UNL     1       5.051   3.896  15.284  0.00  0.00    +0.000 A 
ATOM     25  C   UNL     1       4.745   4.108  16.640  0.00  0.00    +0.000 A 
ENDBRANCH  17  19
ENDBRANCH  16  17
ENDBRANCH   4  16
TORSDOF 6
ENDMDL
MODEL 2
REMARK VINA RESULT:      -7.4      4.246      5.482
REMARK  Name = 
REMARK  8 active torsions:
REMARK  status: ('A' for Active; 'I' for Inactive)
REMARK    1  A    between atoms: C_1  and  C_2
REMARK    2  A    between atoms: C_5  and  C_6
REMARK    3  A    between atoms: C_6  and  S_8
REMARK    4  A    between atoms: S_8  and  C_9
REMARK    5  A    between atoms: C_12  and  S_13
REMARK    6  A    between atoms: S_13  and  C_14
REMARK    7  A    between atoms: C_14  and  C_16
REMARK    8  A    between atoms: C_19  and  C_20
REMARK                            x       y       z     vdW  Elec       q    Type
REMARK                         _______ _______ _______ _____ _____    ______ ____
ROOT
ATOM      1  C   UNL     1       4.456   2.993  18.850  0.00  0.00    +0.000 A 
ATOM      2  N   UNL     1       5.324   3.502  19.700  0.00  0.00    +0.000 NA
ATOM      3  N   UNL     1       6.208   4.383  19.082  0.00  0.00    +0.000 NA
ATOM      4  C   UNL     1       5.956   4.522  17.788  0.00  0.00    +0.000 A 
ATOM      5  S   UNL     1       4.747   3.439  17.216  0.00  0.00    +0.000 S 
ENDROOT
BRANCH   1   6
ATOM      6  S   UNL     1       2.963   2.252  19.377  0.00  0.00    +0.000 S 
BRANCH   6   7
ATOM      7  C   UNL     1       1.751   3.345  18.722  0.00  0.00    +0.000 C 
ATOM      8  O   UNL     1       0.977   2.994  17.840  0.00  0.00    +0.000 OA
BRANCH   7  13
ATOM      9  C   UNL     1       1.779   8.836  20.751  0.00  0.00    +0.000 C 
ATOM     10  C   UNL     1       1.765   7.429  20.225  0.00  0.00    +0.000 A 
ATOM     11  C   UNL     1       1.333   6.359  21.016  0.00  0.00    +0.000 A 
ATOM     12  C   UNL     1       1.337   5.048  20.513  0.00  0.00    +0.000 A 
ATOM     13  C   UNL     1       1.773   4.775  19.205  0.00  0.00    +0.000 A 
ATOM     14  C   UNL     1       2.204   5.855  18.418  0.00  0.00    +0.000 A 
ATOM     15  C   UNL     1       2.199   7.164  18.922  0.00  0.00    +0.000 A 
ENDBRANCH   7  13
ENDBRANCH   6   7
ENDBRANCH   1   6
BRANCH   4  16
ATOM     16  S   UNL     1       6.937   5.612  16.812  0.00  0.00    +0.000 S 
BRANCH  16  17
ATOM     17  C   UNL     1       5.952   5.875  15.372  0.00  0.00    +0.000 C 
ATOM     18  O   UNL     1       5.097   6.756  15.317  0.00  0.00    +0.000 OA
BRANCH  17  19
ATOM     19  C   UNL     1       6.161   4.984  14.177  0.00  0.00    +0.000 A 
ATOM     20  C   UNL     1       7.372   5.108  13.468  0.00  0.00    +0.000 A 
ATOM     21  C   UNL     1       7.683   4.261  12.397  0.00  0.00    +0.000 A 
ATOM     22  C   UNL     1       6.788   3.264  12.003  0.00  0.00    +0.000 A 
ATOM     23  C   UNL     1       7.148   2.276  10.930  0.00  0.00    +0.000 C 
ATOM     24  C   UNL     1       5.563   3.155  12.674  0.00  0.00    +0.000 A 
ATOM     25  C   UNL     1       5.247   4.013  13.742  0.00  0.00    +0.000 A 
ENDBRANCH  17  19
ENDBRANCH  16  17
ENDBRANCH   4  16
TORSDOF 6
ENDMDL
MODEL 3
REMARK VINA RESULT:      -7.3      3.639     10.625
REMARK  Name = 
REMARK  8 active torsions:
REMARK  status: ('A' for Active; 'I' for Inactive)
REMARK    1  A    between atoms: C_1  and  C_2
REMARK    2  A    between atoms: C_5  and  C_6
REMARK    3  A    between atoms: C_6  and  S_8
REMARK    4  A    between atoms: S_8  and  C_9
REMARK    5  A    between atoms: C_12  and  S_13
REMARK    6  A    between atoms: S_13  and  C_14
REMARK    7  A    between atoms: C_14  and  C_16
REMARK    8  A    between atoms: C_19  and  C_20
REMARK                            x       y       z     vdW  Elec       q    Type
REMARK                         _______ _______ _______ _____ _____    ______ ____
ROOT
ATOM      1  C   UNL     1       0.596  10.135  19.002  0.00  0.00    +0.000 A 
ATOM      2  N   UNL     1      -0.691  10.115  18.723  0.00  0.00    +0.000 NA
ATOM      3  N   UNL     1      -1.392  11.101  19.413  0.00  0.00    +0.000 NA
ATOM      4  C   UNL     1      -0.598  11.844  20.171  0.00  0.00    +0.000 A 
ATOM      5  S   UNL     1       1.019  11.259  20.230  0.00  0.00    +0.000 S 
ENDROOT
BRANCH   1   6
ATOM      6  S   UNL     1       1.782   9.368  17.971  0.00  0.00    +0.000 S 
BRANCH   6   7
ATOM      7  C   UNL     1       2.173   7.908  18.872  0.00  0.00    +0.000 C 
ATOM      8  O   UNL     1       1.896   7.792  20.059  0.00  0.00    +0.000 OA
BRANCH   7  13
ATOM      9  C   UNL     1       5.367   3.903  16.039  0.00  0.00    +0.000 C 
ATOM     10  C   UNL     1       4.540   4.930  16.761  0.00  0.00    +0.000 A 
ATOM     11  C   UNL     1       4.858   6.292  16.706  0.00  0.00    +0.000 A 
ATOM     12  C   UNL     1       4.082   7.237  17.395  0.00  0.00    +0.000 A 
ATOM     13  C   UNL     1       2.968   6.844  18.156  0.00  0.00    +0.000 A 
ATOM     14  C   UNL     1       2.656   5.476  18.205  0.00  0.00    +0.000 A 
ATOM     15  C   UNL     1       3.432   4.532  17.515  0.00  0.00    +0.000 A 
ENDBRANCH   7  13
ENDBRANCH   6   7
ENDBRANCH   1   6
BRANCH   4  16
ATOM     16  S   UNL     1      -1.270  13.171  21.113  0.00  0.00    +0.000 S 
BRANCH  16  17
ATOM     17  C   UNL     1      -1.857  12.382  22.578  0.00  0.00    +0.000 C 
ATOM     18  O   UNL     1      -1.133  11.671  23.271  0.00  0.00    +0.000 OA
BRANCH  17  19
ATOM     19  C   UNL     1      -3.292  12.581  22.985  0.00  0.00    +0.000 A 
ATOM     20  C   UNL     1      -4.224  12.893  21.977  0.00  0.00    +0.000 A 
ATOM     21  C   UNL     1      -5.592  13.010  22.255  0.00  0.00    +0.000 A 
ATOM     22  C   UNL     1      -6.066  12.819  23.555  0.00  0.00    +0.000 A 
ATOM     23  C   UNL     1      -7.538  12.832  23.854  0.00  0.00    +0.000 C 
ATOM     24  C   UNL     1      -5.145  12.546  24.574  0.00  0.00    +0.000 A 
ATOM     25  C   UNL     1      -3.771  12.439  24.295  0.00  0.00    +0.000 A 
ENDBRANCH  17  19
ENDBRANCH  16  17
ENDBRANCH   4  16
TORSDOF 6
ENDMDL
MODEL 4
REMARK VINA RESULT:      -7.3      1.195      8.958
REMARK  Name = 
REMARK  8 active torsions:
REMARK  status: ('A' for Active; 'I' for Inactive)
REMARK    1  A    between atoms: C_1  and  C_2
REMARK    2  A    between atoms: C_5  and  C_6
REMARK    3  A    between atoms: C_6  and  S_8
REMARK    4  A    between atoms: S_8  and  C_9
REMARK    5  A    between atoms: C_12  and  S_13
REMARK    6  A    between atoms: S_13  and  C_14
REMARK    7  A    between atoms: C_14  and  C_16
REMARK    8  A    between atoms: C_19  and  C_20
REMARK                            x       y       z     vdW  Elec       q    Type
REMARK                         _______ _______ _______ _____ _____    ______ ____
ROOT
ATOM      1  C   UNL     1       2.142   5.664  19.622  0.00  0.00    +0.000 A 
ATOM      2  N   UNL     1       1.857   6.449  20.640  0.00  0.00    +0.000 NA
ATOM      3  N   UNL     1       1.788   7.788  20.267  0.00  0.00    +0.000 NA
ATOM      4  C   UNL     1       2.001   7.959  18.970  0.00  0.00    +0.000 A 
ATOM      5  S   UNL     1       2.487   6.516  18.169  0.00  0.00    +0.000 S 
ENDROOT
BRANCH   1   6
ATOM      6  S   UNL     1       1.836   3.942  19.660  0.00  0.00    +0.000 S 
BRANCH   6   7
ATOM      7  C   UNL     1       3.462   3.273  19.685  0.00  0.00    +0.000 C 
ATOM      8  O   UNL     1       3.863   2.594  20.622  0.00  0.00    +0.000 OA
BRANCH   7  13
ATOM      9  C   UNL     1       7.171   4.854  15.441  0.00  0.00    +0.000 C 
ATOM     10  C   UNL     1       6.213   4.454  16.527  0.00  0.00    +0.000 A 
ATOM     11  C   UNL     1       6.479   4.733  17.872  0.00  0.00    +0.000 A 
ATOM     12  C   UNL     1       5.579   4.343  18.876  0.00  0.00    +0.000 A 
ATOM     13  C   UNL     1       4.390   3.664  18.560  0.00  0.00    +0.000 A 
ATOM     14  C   UNL     1       4.131   3.389  17.208  0.00  0.00    +0.000 A 
ATOM     15  C   UNL     1       5.031   3.780  16.205  0.00  0.00    +0.000 A 
ENDBRANCH   7  13
ENDBRANCH   6   7
ENDBRANCH   1   6
BRANCH   4  16
ATOM     16  S   UNL     1       1.933   9.575  18.272  0.00  0.00    +0.000 S 
BRANCH  16  17
ATOM     17  C   UNL     1       0.766  10.417  19.293  0.00  0.00    +0.000 C 
ATOM     18  O   UNL     1       1.037  10.772  20.437  0.00  0.00    +0.000 OA
BRANCH  17  19
ATOM     19  C   UNL     1      -0.607  10.698  18.746  0.00  0.00    +0.000 A 
ATOM     20  C   UNL     1      -1.047   9.933  17.649  0.00  0.00    +0.000 A 
ATOM     21  C   UNL     1      -2.342  10.070  17.133  0.00  0.00    +0.000 A 
ATOM     22  C   UNL     1      -3.235  10.981  17.701  0.00  0.00    +0.000 A 
ATOM     23  C   UNL     1      -4.661  11.067  17.233  0.00  0.00    +0.000 C 
ATOM     24  C   UNL     1      -2.798  11.776  18.768  0.00  0.00    +0.000 A 
ATOM     25  C   UNL     1      -1.495  11.644  19.279  0.00  0.00    +0.000 A 
ENDBRANCH  17  19
ENDBRANCH  16  17
ENDBRANCH   4  16
TORSDOF 6
ENDMDL
MODEL 5
REMARK VINA RESULT:      -7.3      1.626      9.412
REMARK  Name = 
REMARK  8 active torsions:
REMARK  status: ('A' for Active; 'I' for Inactive)
REMARK    1  A    between atoms: C_1  and  C_2
REMARK    2  A    between atoms: C_5  and  C_6
REMARK    3  A    between atoms: C_6  and  S_8
REMARK    4  A    between atoms: S_8  and  C_9
REMARK    5  A    between atoms: C_12  and  S_13
REMARK    6  A    between atoms: S_13  and  C_14
REMARK    7  A    between atoms: C_14  and  C_16
REMARK    8  A    between atoms: C_19  and  C_20
REMARK                            x       y       z     vdW  Elec       q    Type
REMARK                         _______ _______ _______ _____ _____    ______ ____
ROOT
ATOM      1  C   UNL     1       3.001   6.056  18.812  0.00  0.00    +0.000 A 
ATOM      2  N   UNL     1       2.322   6.483  19.857  0.00  0.00    +0.000 NA
ATOM      3  N   UNL     1       1.924   7.809  19.718  0.00  0.00    +0.000 NA
ATOM      4  C   UNL     1       2.300   8.327  18.557  0.00  0.00    +0.000 A 
ATOM      5  S   UNL     1       3.325   7.282  17.652  0.00  0.00    +0.000 S 
ENDROOT
BRANCH   1   6
ATOM      6  S   UNL     1       3.219   4.353  18.476  0.00  0.00    +0.000 S 
BRANCH   6   7
ATOM      7  C   UNL     1       4.970   4.205  18.416  0.00  0.00    +0.000 C 
ATOM      8  O   UNL     1       5.637   4.044  19.430  0.00  0.00    +0.000 OA
BRANCH   7  13
ATOM      9  C   UNL     1       7.403   4.923  13.140  0.00  0.00    +0.000 C 
ATOM     10  C   UNL     1       6.784   4.731  14.496  0.00  0.00    +0.000 A 
ATOM     11  C   UNL     1       5.442   4.360  14.638  0.00  0.00    +0.000 A 
ATOM     12  C   UNL     1       4.876   4.196  15.912  0.00  0.00    +0.000 A 
ATOM     13  C   UNL     1       5.636   4.399  17.076  0.00  0.00    +0.000 A 
ATOM     14  C   UNL     1       6.982   4.771  16.923  0.00  0.00    +0.000 A 
ATOM     15  C   UNL     1       7.547   4.934  15.649  0.00  0.00    +0.000 A 
ENDBRANCH   7  13
ENDBRANCH   6   7
ENDBRANCH   1   6
BRANCH   4  16
ATOM     16  S   UNL     1       1.878   9.989  18.155  0.00  0.00    +0.000 S 
BRANCH  16  17
ATOM     17  C   UNL     1       0.138  10.053  18.441  0.00  0.00    +0.000 C 
ATOM     18  O   UNL     1      -0.674   9.622  17.625  0.00  0.00    +0.000 OA
BRANCH  17  19
ATOM     19  C   UNL     1      -0.366  10.664  19.720  0.00  0.00    +0.000 A 
ATOM     20  C   UNL     1      -1.256  11.752  19.624  0.00  0.00    +0.000 A 
ATOM     21  C   UNL     1      -1.838  12.325  20.762  0.00  0.00    +0.000 A 
ATOM     22  C   UNL     1      -1.545  11.824  22.032  0.00  0.00    +0.000 A 
ATOM     23  C   UNL     1      -2.241  12.351  23.255  0.00  0.00    +0.000 C 
ATOM     24  C   UNL     1      -0.632  10.767  22.145  0.00  0.00    +0.000 A 
ATOM     25  C   UNL     1      -0.040  10.201  21.003  0.00  0.00    +0.000 A 
ENDBRANCH  17  19
ENDBRANCH  16  17
ENDBRANCH   4  16
TORSDOF 6
ENDMDL
MODEL 6
REMARK VINA RESULT:      -7.2      2.680      9.734
REMARK  Name = 
REMARK  8 active torsions:
REMARK  status: ('A' for Active; 'I' for Inactive)
REMARK    1  A    between atoms: C_1  and  C_2
REMARK    2  A    between atoms: C_5  and  C_6
REMARK    3  A    between atoms: C_6  and  S_8
REMARK    4  A    between atoms: S_8  and  C_9
REMARK    5  A    between atoms: C_12  and  S_13
REMARK    6  A    between atoms: S_13  and  C_14
REMARK    7  A    between atoms: C_14  and  C_16
REMARK    8  A    between atoms: C_19  and  C_20
REMARK                            x       y       z     vdW  Elec       q    Type
REMARK                         _______ _______ _______ _____ _____    ______ ____
ROOT
ATOM      1  C   UNL     1       1.957   7.961  18.980  0.00  0.00    +0.000 A 
ATOM      2  N   UNL     1       2.152   8.451  17.774  0.00  0.00    +0.000 NA
ATOM      3  N   UNL     1       1.705   9.765  17.663  0.00  0.00    +0.000 NA
ATOM      4  C   UNL     1       1.209  10.224  18.803  0.00  0.00    +0.000 A 
ATOM      5  S   UNL     1       1.086   9.015  20.021  0.00  0.00    +0.000 S 
ENDROOT
BRANCH   1   6
ATOM      6  S   UNL     1       2.815   6.552  19.562  0.00  0.00    +0.000 S 
BRANCH   6   7
ATOM      7  C   UNL     1       2.608   5.415  18.237  0.00  0.00    +0.000 C 
ATOM      8  O   UNL     1       1.590   4.745  18.117  0.00  0.00    +0.000 OA
BRANCH   7  13
ATOM      9  C   UNL     1       7.199   4.777  14.660  0.00  0.00    +0.000 C 
ATOM     10  C   UNL     1       6.015   4.939  15.572  0.00  0.00    +0.000 A 
ATOM     11  C   UNL     1       5.636   6.195  16.059  0.00  0.00    +0.000 A 
ATOM     12  C   UNL     1       4.534   6.327  16.919  0.00  0.00    +0.000 A 
ATOM     13  C   UNL     1       3.783   5.206  17.313  0.00  0.00    +0.000 A 
ATOM     14  C   UNL     1       4.170   3.951  16.817  0.00  0.00    +0.000 A 
ATOM     15  C   UNL     1       5.271   3.820  15.958  0.00  0.00    +0.000 A 
ENDBRANCH   7  13
ENDBRANCH   6   7
ENDBRANCH   1   6
BRANCH   4  16
ATOM     16  S   UNL     1       0.609  11.877  18.900  0.00  0.00    +0.000 S 
BRANCH  16  17
ATOM     17  C   UNL     1       0.730  12.260  20.618  0.00  0.00    +0.000 C 
ATOM     18  O   UNL     1       1.810  12.468  21.166  0.00  0.00    +0.000 OA
BRANCH  17  19
ATOM     19  C   UNL     1      -0.530  12.325  21.438  0.00  0.00    +0.000 A 
ATOM     20  C   UNL     1      -0.727  11.335  22.421  0.00  0.00    +0.000 A 
ATOM     21  C   UNL     1      -1.829  11.369  23.284  0.00  0.00    +0.000 A 
ATOM     22  C   UNL     1      -2.768  12.398  23.188  0.00  0.00    +0.000 A 
ATOM     23  C   UNL     1      -3.897  12.514  24.173  0.00  0.00    +0.000 C 
ATOM     24  C   UNL     1      -2.606  13.367  22.191  0.00  0.00    +0.000 A 
ATOM     25  C   UNL     1      -1.505  13.326  21.317  0.00  0.00    +0.000 A 
ENDBRANCH  17  19
ENDBRANCH  16  17
ENDBRANCH   4  16
TORSDOF 6
ENDMDL
MODEL 7
REMARK VINA RESULT:      -7.2      1.173      8.979
REMARK  Name = 
REMARK  8 active torsions:
REMARK  status: ('A' for Active; 'I' for Inactive)
REMARK    1  A    between atoms: C_1  and  C_2
REMARK    2  A    between atoms: C_5  and  C_6
REMARK    3  A    between atoms: C_6  and  S_8
REMARK    4  A    between atoms: S_8  and  C_9
REMARK    5  A    between atoms: C_12  and  S_13
REMARK    6  A    between atoms: S_13  and  C_14
REMARK    7  A    between atoms: C_14  and  C_16
REMARK    8  A    between atoms: C_19  and  C_20
REMARK                            x       y       z     vdW  Elec       q    Type
REMARK                         _______ _______ _______ _____ _____    ______ ____
ROOT
ATOM      1  C   UNL     1       2.311   6.210  19.259  0.00  0.00    +0.000 A 
ATOM      2  N   UNL     1       1.892   6.029  20.494  0.00  0.00    +0.000 NA
ATOM      3  N   UNL     1       1.415   7.206  21.064  0.00  0.00    +0.000 NA
ATOM      4  C   UNL     1       1.472   8.229  20.224  0.00  0.00    +0.000 A 
ATOM      5  S   UNL     1       2.288   7.854  18.757  0.00  0.00    +0.000 S 
ENDROOT
BRANCH   1   6
ATOM      6  S   UNL     1       2.513   4.881  18.140  0.00  0.00    +0.000 S 
BRANCH   6   7
ATOM      7  C   UNL     1       4.211   4.472  18.347  0.00  0.00    +0.000 C 
ATOM      8  O   UNL     1       4.667   4.152  19.438  0.00  0.00    +0.000 OA
BRANCH   7  13
ATOM      9  C   UNL     1       7.603   5.052  13.611  0.00  0.00    +0.000 C 
ATOM     10  C   UNL     1       6.738   4.898  14.830  0.00  0.00    +0.000 A 
ATOM     11  C   UNL     1       5.506   4.237  14.771  0.00  0.00    +0.000 A 
ATOM     12  C   UNL     1       4.705   4.111  15.918  0.00  0.00    +0.000 A 
ATOM     13  C   UNL     1       5.116   4.643  17.151  0.00  0.00    +0.000 A 
ATOM     14  C   UNL     1       6.354   5.303  17.201  0.00  0.00    +0.000 A 
ATOM     15  C   UNL     1       7.154   5.428  16.055  0.00  0.00    +0.000 A 
ENDBRANCH   7  13
ENDBRANCH   6   7
ENDBRANCH   1   6
BRANCH   4  16
ATOM     16  S   UNL     1       0.893   9.815  20.727  0.00  0.00    +0.000 S 
BRANCH  16  17
ATOM     17  C   UNL     1       0.627  10.661  19.201  0.00  0.00    +0.000 C 
ATOM     18  O   UNL     1       1.537  11.232  18.605  0.00  0.00    +0.000 OA
BRANCH  17  19
ATOM     19  C   UNL     1      -0.760  10.690  18.620  0.00  0.00    +0.000 A 
ATOM     20  C   UNL     1      -1.688  11.592  19.177  0.00  0.00    +0.000 A 
ATOM     21  C   UNL     1      -2.972  11.745  18.641  0.00  0.00    +0.000 A 
ATOM     22  C   UNL     1      -3.367  10.996  17.530  0.00  0.00    +0.000 A 
ATOM     23  C   UNL     1      -4.700  11.222  16.874  0.00  0.00    +0.000 C 
ATOM     24  C   UNL     1      -2.468  10.068  16.990  0.00  0.00    +0.000 A 
ATOM     25  C   UNL     1      -1.182   9.908  17.535  0.00  0.00    +0.000 A 
ENDBRANCH  17  19
ENDBRANCH  16  17
ENDBRANCH   4  16
TORSDOF 6
ENDMDL
MODEL 8
REMARK VINA RESULT:      -7.1      1.250      8.821
REMARK  Name = 
REMARK  8 active torsions:
REMARK  status: ('A' for Active; 'I' for Inactive)
REMARK    1  A    between atoms: C_1  and  C_2
REMARK    2  A    between atoms: C_5  and  C_6
REMARK    3  A    between atoms: C_6  and  S_8
REMARK    4  A    between atoms: S_8  and  C_9
REMARK    5  A    between atoms: C_12  and  S_13
REMARK    6  A    between atoms: S_13  and  C_14
REMARK    7  A    between atoms: C_14  and  C_16
REMARK    8  A    between atoms: C_19  and  C_20
REMARK                            x       y       z     vdW  Elec       q    Type
REMARK                         _______ _______ _______ _____ _____    ______ ____
ROOT
ATOM      1  C   UNL     1       2.370   6.118  19.452  0.00  0.00    +0.000 A 
ATOM      2  N   UNL     1       2.524   7.029  18.514  0.00  0.00    +0.000 NA
ATOM      3  N   UNL     1       2.040   8.274  18.908  0.00  0.00    +0.000 NA
ATOM      4  C   UNL     1       1.560   8.257  20.144  0.00  0.00    +0.000 A 
ATOM      5  S   UNL     1       1.498   6.678  20.823  0.00  0.00    +0.000 S 
ENDROOT
BRANCH   1   6
ATOM      6  S   UNL     1       3.278   4.623  19.454  0.00  0.00    +0.000 S 
BRANCH   6   7
ATOM      7  C   UNL     1       4.855   5.142  18.873  0.00  0.00    +0.000 C 
ATOM      8  O   UNL     1       5.640   5.743  19.596  0.00  0.00    +0.000 OA
BRANCH   7  13
ATOM      9  C   UNL     1       6.050   4.116  13.236  0.00  0.00    +0.000 C 
ATOM     10  C   UNL     1       5.752   4.383  14.684  0.00  0.00    +0.000 A 
ATOM     11  C   UNL     1       5.640   3.339  15.609  0.00  0.00    +0.000 A 
ATOM     12  C   UNL     1       5.349   3.606  16.957  0.00  0.00    +0.000 A 
ATOM     13  C   UNL     1       5.163   4.922  17.412  0.00  0.00    +0.000 A 
ATOM     14  C   UNL     1       5.277   5.962  16.476  0.00  0.00    +0.000 A 
ATOM     15  C   UNL     1       5.568   5.695  15.130  0.00  0.00    +0.000 A 
ENDBRANCH   7  13
ENDBRANCH   6   7
ENDBRANCH   1   6
BRANCH   4  16
ATOM     16  S   UNL     1       0.920   9.734  20.860  0.00  0.00    +0.000 S 
BRANCH  16  17
ATOM     17  C   UNL     1       0.663  10.789  19.469  0.00  0.00    +0.000 C 
ATOM     18  O   UNL     1       1.536  11.547  19.054  0.00  0.00    +0.000 OA
BRANCH  17  19
ATOM     19  C   UNL     1      -0.673  10.765  18.777  0.00  0.00    +0.000 A 
ATOM     20  C   UNL     1      -1.671  11.643  19.242  0.00  0.00    +0.000 A 
ATOM     21  C   UNL     1      -2.912  11.746  18.602  0.00  0.00    +0.000 A 
ATOM     22  C   UNL     1      -3.191  10.969  17.475  0.00  0.00    +0.000 A 
ATOM     23  C   UNL     1      -4.473  11.143  16.710  0.00  0.00    +0.000 C 
ATOM     24  C   UNL     1      -2.222  10.064  17.024  0.00  0.00    +0.000 A 
ATOM     25  C   UNL     1      -0.981   9.954  17.674  0.00  0.00    +0.000 A 
ENDBRANCH  17  19
ENDBRANCH  16  17
ENDBRANCH   4  16
TORSDOF 6
ENDMDL
MODEL 9
REMARK VINA RESULT:      -7.1      1.836      8.692
REMARK  Name = 
REMARK  8 active torsions:
REMARK  status: ('A' for Active; 'I' for Inactive)
REMARK    1  A    between atoms: C_1  and  C_2
REMARK    2  A    between atoms: C_5  and  C_6
REMARK    3  A    between atoms: C_6  and  S_8
REMARK    4  A    between atoms: S_8  and  C_9
REMARK    5  A    between atoms: C_12  and  S_13
REMARK    6  A    between atoms: S_13  and  C_14
REMARK    7  A    between atoms: C_14  and  C_16
REMARK    8  A    between atoms: C_19  and  C_20
REMARK                            x       y       z     vdW  Elec       q    Type
REMARK                         _______ _______ _______ _____ _____    ______ ____
ROOT
ATOM      1  C   UNL     1       2.093   5.078  19.046  0.00  0.00    +0.000 A 
ATOM      2  N   UNL     1       1.704   5.129  20.303  0.00  0.00    +0.000 NA
ATOM      3  N   UNL     1       1.530   6.438  20.746  0.00  0.00    +0.000 NA
ATOM      4  C   UNL     1       1.773   7.326  19.792  0.00  0.00    +0.000 A 
ATOM      5  S   UNL     1       2.413   6.621  18.359  0.00  0.00    +0.000 S 
ENDROOT
BRANCH   1   6
ATOM      6  S   UNL     1       1.940   3.627  18.083  0.00  0.00    +0.000 S 
BRANCH   6   7
ATOM      7  C   UNL     1       3.610   3.095  17.939  0.00  0.00    +0.000 C 
ATOM      8  O   UNL     1       3.913   1.909  17.991  0.00  0.00    +0.000 OA
BRANCH   7  13
ATOM      9  C   UNL     1       7.688   7.268  17.482  0.00  0.00    +0.000 C 
ATOM     10  C   UNL     1       6.648   6.191  17.599  0.00  0.00    +0.000 A 
ATOM     11  C   UNL     1       5.819   5.857  16.522  0.00  0.00    +0.000 A 
ATOM     12  C   UNL     1       4.844   4.855  16.653  0.00  0.00    +0.000 A 
ATOM     13  C   UNL     1       4.673   4.162  17.863  0.00  0.00    +0.000 A 
ATOM     14  C   UNL     1       5.510   4.504  18.938  0.00  0.00    +0.000 A 
ATOM     15  C   UNL     1       6.484   5.505  18.807  0.00  0.00    +0.000 A 
ENDBRANCH   7  13
ENDBRANCH   6   7
ENDBRANCH   1   6
BRANCH   4  16
ATOM     16  S   UNL     1       1.587   9.046  20.124  0.00  0.00    +0.000 S 
BRANCH  16  17
ATOM     17  C   UNL     1       1.096   9.716  18.567  0.00  0.00    +0.000 C 
ATOM     18  O   UNL     1       1.893   9.881  17.647  0.00  0.00    +0.000 OA
BRANCH  17  19
ATOM     19  C   UNL     1      -0.343  10.105  18.365  0.00  0.00    +0.000 A 
ATOM     20  C   UNL     1      -0.906  11.033  19.263  0.00  0.00    +0.000 A 
ATOM     21  C   UNL     1      -2.211  11.513  19.097  0.00  0.00    +0.000 A 
ATOM     22  C   UNL     1      -2.992  11.076  18.026  0.00  0.00    +0.000 A 
ATOM     23  C   UNL     1      -4.353  11.659  17.768  0.00  0.00    +0.000 C 
ATOM     24  C   UNL     1      -2.460  10.123  17.148  0.00  0.00    +0.000 A 
ATOM     25  C   UNL     1      -1.153   9.634  17.322  0.00  0.00    +0.000 A 
ENDBRANCH  17  19
ENDBRANCH  16  17
ENDBRANCH   4  16
TORSDOF 6
ENDMDL
