MODEL 1
REMARK VINA RESULT:      -8.5      0.000      0.000
REMARK  Name = 
REMARK  4 active torsions:
REMARK  status: ('A' for Active; 'I' for Inactive)
REMARK    1  A    between atoms: C_2  and  C_3
REMARK    2  A    between atoms: C_3  and  N_4
REMARK    3  A    between atoms: C_9  and  C_10
REMARK    4  A    between atoms: C_18  and  C_19
REMARK                            x       y       z     vdW  Elec       q    Type
REMARK                         _______ _______ _______ _____ _____    ______ ____
ROOT
ATOM      1  N   UNL     1       6.184   5.007  17.564  0.00  0.00    +0.000 N 
ATOM      2  C   UNL     1       6.298   5.853  16.455  0.00  0.00    +0.000 C 
ATOM      3  O   UNL     1       7.379   6.320  16.083  0.00  0.00    +0.000 OA
ATOM      4  C   UNL     1       5.030   6.121  15.660  0.00  0.00    +0.000 C 
ATOM      5  N   UNL     1       4.185   7.038  16.412  0.00  0.00    +0.000 NA
ATOM      6  C   UNL     1       3.614   6.610  17.487  0.00  0.00    +0.000 C 
ATOM      7  C   UNL     1       3.715   5.202  17.986  0.00  0.00    +0.000 A 
ATOM      8  C   UNL     1       2.520   4.605  18.446  0.00  0.00    +0.000 A 
ATOM      9  C   UNL     1       2.512   3.329  19.022  0.00  0.00    +0.000 A 
ATOM     10  C   UNL     1       3.716   2.627  19.084  0.00  0.00    +0.000 A 
ATOM     11  C   UNL     1       4.899   3.198  18.601  0.00  0.00    +0.000 A 
ATOM     12  C   UNL     1       4.933   4.492  18.048  0.00  0.00    +0.000 A 
ENDROOT
BRANCH   6  13
ATOM     13  C   UNL     1       2.775   7.599  18.245  0.00  0.00    +0.000 A 
ATOM     14  C   UNL     1       2.378   8.781  17.604  0.00  0.00    +0.000 A 
ATOM     15  C   UNL     1       1.586   9.716  18.272  0.00  0.00    +0.000 A 
ATOM     16  C   UNL     1       1.189   9.479  19.587  0.00  0.00    +0.000 A 
ATOM     17  C   UNL     1       1.596   8.315  20.239  0.00  0.00    +0.000 A 
ATOM     18  C   UNL     1       2.397   7.380  19.577  0.00  0.00    +0.000 A 
ENDBRANCH   6  13
BRANCH   9  19
ATOM     19  C   UNL     1       1.248   2.717  19.576  0.00  0.00    +0.000 C 
ATOM     20  F   UNL     1       1.468   1.836  20.588  0.00  0.00    +0.000 F 
ATOM     21  F   UNL     1       0.389   3.652  20.067  0.00  0.00    +0.000 F 
ATOM     22  F   UNL     1       0.553   2.030  18.628  0.00  0.00    +0.000 F 
ENDBRANCH   9  19
BRANCH   1  23
ATOM     23  C   UNL     1       7.427   4.703  18.277  0.00  0.00    +0.000 C 
BRANCH  23  25
ATOM     24  C   UNL     1       8.317   6.925  19.078  0.00  0.00    +0.000 C 
ATOM     25  C   UNL     1       7.682   5.767  19.309  0.00  0.00    +0.000 C 
ENDBRANCH  23  25
ENDBRANCH   1  23
TORSDOF 4
ENDMDL
MODEL 2
REMARK VINA RESULT:      -8.5      0.061      1.223
REMARK  Name = 
REMARK  4 active torsions:
REMARK  status: ('A' for Active; 'I' for Inactive)
REMARK    1  A    between atoms: C_2  and  C_3
REMARK    2  A    between atoms: C_3  and  N_4
REMARK    3  A    between atoms: C_9  and  C_10
REMARK    4  A    between atoms: C_18  and  C_19
REMARK                            x       y       z     vdW  Elec       q    Type
REMARK                         _______ _______ _______ _____ _____    ______ ____
ROOT
ATOM      1  N   UNL     1       6.189   5.010  17.555  0.00  0.00    +0.000 N 
ATOM      2  C   UNL     1       6.305   5.857  16.448  0.00  0.00    +0.000 C 
ATOM      3  O   UNL     1       7.385   6.332  16.082  0.00  0.00    +0.000 OA
ATOM      4  C   UNL     1       5.040   6.120  15.647  0.00  0.00    +0.000 C 
ATOM      5  N   UNL     1       4.186   7.032  16.395  0.00  0.00    +0.000 NA
ATOM      6  C   UNL     1       3.612   6.599  17.467  0.00  0.00    +0.000 C 
ATOM      7  C   UNL     1       3.718   5.191  17.964  0.00  0.00    +0.000 A 
ATOM      8  C   UNL     1       2.524   4.587  18.417  0.00  0.00    +0.000 A 
ATOM      9  C   UNL     1       2.519   3.310  18.991  0.00  0.00    +0.000 A 
ATOM     10  C   UNL     1       3.726   2.615  19.058  0.00  0.00    +0.000 A 
ATOM     11  C   UNL     1       4.909   3.192  18.583  0.00  0.00    +0.000 A 
ATOM     12  C   UNL     1       4.939   4.487  18.032  0.00  0.00    +0.000 A 
ENDROOT
BRANCH   6  13
ATOM     13  C   UNL     1       2.764   7.583  18.222  0.00  0.00    +0.000 A 
ATOM     14  C   UNL     1       2.429   7.305  19.555  0.00  0.00    +0.000 A 
ATOM     15  C   UNL     1       1.656   8.204  20.292  0.00  0.00    +0.000 A 
ATOM     16  C   UNL     1       1.207   9.383  19.700  0.00  0.00    +0.000 A 
ATOM     17  C   UNL     1       1.519   9.658  18.369  0.00  0.00    +0.000 A 
ATOM     18  C   UNL     1       2.286   8.757  17.625  0.00  0.00    +0.000 A 
ENDBRANCH   6  13
BRANCH   9  19
ATOM     19  C   UNL     1       1.255   2.691  19.538  0.00  0.00    +0.000 C 
ATOM     20  F   UNL     1       0.561   1.968  18.619  0.00  0.00    +0.000 F 
ATOM     21  F   UNL     1       1.497   1.848  20.579  0.00  0.00    +0.000 F 
ATOM     22  F   UNL     1       0.388   3.629  20.008  0.00  0.00    +0.000 F 
ENDBRANCH   9  19
BRANCH   1  23
ATOM     23  C   UNL     1       7.431   4.711  18.274  0.00  0.00    +0.000 C 
BRANCH  23  25
ATOM     24  C   UNL     1       8.295   6.940  19.084  0.00  0.00    +0.000 C 
ATOM     25  C   UNL     1       7.674   5.774  19.310  0.00  0.00    +0.000 C 
ENDBRANCH  23  25
ENDBRANCH   1  23
TORSDOF 4
ENDMDL
MODEL 3
REMARK VINA RESULT:      -8.4      2.580      4.981
REMARK  Name = 
REMARK  4 active torsions:
REMARK  status: ('A' for Active; 'I' for Inactive)
REMARK    1  A    between atoms: C_2  and  C_3
REMARK    2  A    between atoms: C_3  and  N_4
REMARK    3  A    between atoms: C_9  and  C_10
REMARK    4  A    between atoms: C_18  and  C_19
REMARK                            x       y       z     vdW  Elec       q    Type
REMARK                         _______ _______ _______ _____ _____    ______ ____
ROOT
ATOM      1  N   UNL     1       6.432   5.398  16.921  0.00  0.00    +0.000 N 
ATOM      2  C   UNL     1       7.222   4.746  17.874  0.00  0.00    +0.000 C 
ATOM      3  O   UNL     1       8.196   4.050  17.568  0.00  0.00    +0.000 OA
ATOM      4  C   UNL     1       6.880   4.990  19.335  0.00  0.00    +0.000 C 
ATOM      5  N   UNL     1       5.672   4.250  19.669  0.00  0.00    +0.000 NA
ATOM      6  C   UNL     1       4.548   4.647  19.172  0.00  0.00    +0.000 C 
ATOM      7  C   UNL     1       4.395   5.865  18.315  0.00  0.00    +0.000 A 
ATOM      8  C   UNL     1       3.292   6.701  18.594  0.00  0.00    +0.000 A 
ATOM      9  C   UNL     1       2.995   7.815  17.799  0.00  0.00    +0.000 A 
ATOM     10  C   UNL     1       3.853   8.115  16.742  0.00  0.00    +0.000 A 
ATOM     11  C   UNL     1       4.968   7.311  16.477  0.00  0.00    +0.000 A 
ATOM     12  C   UNL     1       5.265   6.170  17.246  0.00  0.00    +0.000 A 
ENDROOT
BRANCH   6  13
ATOM     13  C   UNL     1       3.333   3.836  19.520  0.00  0.00    +0.000 A 
ATOM     14  C   UNL     1       2.771   3.973  20.798  0.00  0.00    +0.000 A 
ATOM     15  C   UNL     1       1.633   3.246  21.151  0.00  0.00    +0.000 A 
ATOM     16  C   UNL     1       1.051   2.374  20.232  0.00  0.00    +0.000 A 
ATOM     17  C   UNL     1       1.615   2.217  18.966  0.00  0.00    +0.000 A 
ATOM     18  C   UNL     1       2.760   2.936  18.612  0.00  0.00    +0.000 A 
ENDBRANCH   6  13
BRANCH   9  19
ATOM     19  C   UNL     1       1.777   8.670  18.054  0.00  0.00    +0.000 C 
ATOM     20  F   UNL     1       0.690   8.301  17.325  0.00  0.00    +0.000 F 
ATOM     21  F   UNL     1       1.386   8.643  19.357  0.00  0.00    +0.000 F 
ATOM     22  F   UNL     1       1.999   9.980  17.755  0.00  0.00    +0.000 F 
ENDBRANCH   9  19
BRANCH   1  23
ATOM     23  C   UNL     1       6.818   5.208  15.520  0.00  0.00    +0.000 C 
BRANCH  23  25
ATOM     24  C   UNL     1       5.959   3.809  13.603  0.00  0.00    +0.000 C 
ATOM     25  C   UNL     1       5.885   4.220  14.877  0.00  0.00    +0.000 C 
ENDBRANCH  23  25
ENDBRANCH   1  23
TORSDOF 4
ENDMDL
MODEL 4
REMARK VINA RESULT:      -8.4      2.590      4.940
REMARK  Name = 
REMARK  4 active torsions:
REMARK  status: ('A' for Active; 'I' for Inactive)
REMARK    1  A    between atoms: C_2  and  C_3
REMARK    2  A    between atoms: C_3  and  N_4
REMARK    3  A    between atoms: C_9  and  C_10
REMARK    4  A    between atoms: C_18  and  C_19
REMARK                            x       y       z     vdW  Elec       q    Type
REMARK                         _______ _______ _______ _____ _____    ______ ____
ROOT
ATOM      1  N   UNL     1       6.495   5.374  17.012  0.00  0.00    +0.000 N 
ATOM      2  C   UNL     1       7.290   4.780  17.997  0.00  0.00    +0.000 C 
ATOM      3  O   UNL     1       8.274   4.084  17.728  0.00  0.00    +0.000 OA
ATOM      4  C   UNL     1       6.938   5.087  19.443  0.00  0.00    +0.000 C 
ATOM      5  N   UNL     1       5.738   4.346  19.807  0.00  0.00    +0.000 NA
ATOM      6  C   UNL     1       4.612   4.703  19.288  0.00  0.00    +0.000 C 
ATOM      7  C   UNL     1       4.446   5.877  18.374  0.00  0.00    +0.000 A 
ATOM      8  C   UNL     1       3.329   6.710  18.609  0.00  0.00    +0.000 A 
ATOM      9  C   UNL     1       3.021   7.781  17.761  0.00  0.00    +0.000 A 
ATOM     10  C   UNL     1       3.880   8.044  16.695  0.00  0.00    +0.000 A 
ATOM     11  C   UNL     1       5.006   7.244  16.473  0.00  0.00    +0.000 A 
ATOM     12  C   UNL     1       5.316   6.144  17.296  0.00  0.00    +0.000 A 
ENDROOT
BRANCH   6  13
ATOM     13  C   UNL     1       3.406   3.892  19.669  0.00  0.00    +0.000 A 
ATOM     14  C   UNL     1       2.850   3.020  18.722  0.00  0.00    +0.000 A 
ATOM     15  C   UNL     1       1.739   2.240  19.047  0.00  0.00    +0.000 A 
ATOM     16  C   UNL     1       1.173   2.330  20.317  0.00  0.00    +0.000 A 
ATOM     17  C   UNL     1       1.708   3.208  21.259  0.00  0.00    +0.000 A 
ATOM     18  C   UNL     1       2.815   3.999  20.935  0.00  0.00    +0.000 A 
ENDBRANCH   6  13
BRANCH   9  19
ATOM     19  C   UNL     1       1.789   8.630  17.971  0.00  0.00    +0.000 C 
ATOM     20  F   UNL     1       1.939   9.916  17.557  0.00  0.00    +0.000 F 
ATOM     21  F   UNL     1       0.703   8.143  17.312  0.00  0.00    +0.000 F 
ATOM     22  F   UNL     1       1.433   8.699  19.284  0.00  0.00    +0.000 F 
ENDBRANCH   9  19
BRANCH   1  23
ATOM     23  C   UNL     1       6.891   5.125  15.623  0.00  0.00    +0.000 C 
BRANCH  23  25
ATOM     24  C   UNL     1       5.647   3.940  13.773  0.00  0.00    +0.000 C 
ATOM     25  C   UNL     1       6.036   4.026  15.053  0.00  0.00    +0.000 C 
ENDBRANCH  23  25
ENDBRANCH   1  23
TORSDOF 4
ENDMDL
MODEL 5
REMARK VINA RESULT:      -8.2      0.947      1.450
REMARK  Name = 
REMARK  4 active torsions:
REMARK  status: ('A' for Active; 'I' for Inactive)
REMARK    1  A    between atoms: C_2  and  C_3
REMARK    2  A    between atoms: C_3  and  N_4
REMARK    3  A    between atoms: C_9  and  C_10
REMARK    4  A    between atoms: C_18  and  C_19
REMARK                            x       y       z     vdW  Elec       q    Type
REMARK                         _______ _______ _______ _____ _____    ______ ____
ROOT
ATOM      1  N   UNL     1       5.791   5.940  18.194  0.00  0.00    +0.000 N 
ATOM      2  C   UNL     1       5.841   6.904  17.181  0.00  0.00    +0.000 C 
ATOM      3  O   UNL     1       6.873   7.525  16.904  0.00  0.00    +0.000 OA
ATOM      4  C   UNL     1       4.577   7.111  16.364  0.00  0.00    +0.000 C 
ATOM      5  N   UNL     1       3.609   7.845  17.167  0.00  0.00    +0.000 NA
ATOM      6  C   UNL     1       3.058   7.245  18.168  0.00  0.00    +0.000 C 
ATOM      7  C   UNL     1       3.305   5.813  18.527  0.00  0.00    +0.000 A 
ATOM      8  C   UNL     1       2.173   5.042  18.874  0.00  0.00    +0.000 A 
ATOM      9  C   UNL     1       2.294   3.720  19.318  0.00  0.00    +0.000 A 
ATOM     10  C   UNL     1       3.568   3.155  19.361  0.00  0.00    +0.000 A 
ATOM     11  C   UNL     1       4.692   3.900  18.989  0.00  0.00    +0.000 A 
ATOM     12  C   UNL     1       4.594   5.241  18.570  0.00  0.00    +0.000 A 
ENDROOT
BRANCH   6  13
ATOM     13  C   UNL     1       2.087   8.051  18.985  0.00  0.00    +0.000 A 
ATOM     14  C   UNL     1       1.396   9.104  18.369  0.00  0.00    +0.000 A 
ATOM     15  C   UNL     1       0.475   9.864  19.094  0.00  0.00    +0.000 A 
ATOM     16  C   UNL     1       0.244   9.580  20.438  0.00  0.00    +0.000 A 
ATOM     17  C   UNL     1       0.942   8.547  21.063  0.00  0.00    +0.000 A 
ATOM     18  C   UNL     1       1.871   7.790  20.345  0.00  0.00    +0.000 A 
ENDBRANCH   6  13
BRANCH   9  19
ATOM     19  C   UNL     1       1.092   2.917  19.754  0.00  0.00    +0.000 C 
ATOM     20  F   UNL     1       0.528   2.192  18.751  0.00  0.00    +0.000 F 
ATOM     21  F   UNL     1       1.389   2.030  20.742  0.00  0.00    +0.000 F 
ATOM     22  F   UNL     1       0.099   3.708  20.246  0.00  0.00    +0.000 F 
ENDBRANCH   9  19
BRANCH   1  23
ATOM     23  C   UNL     1       7.039   5.703  18.925  0.00  0.00    +0.000 C 
BRANCH  23  25
ATOM     24  C   UNL     1       7.638   4.316  16.903  0.00  0.00    +0.000 C 
ATOM     25  C   UNL     1       7.894   4.739  18.149  0.00  0.00    +0.000 C 
ENDBRANCH  23  25
ENDBRANCH   1  23
TORSDOF 4
ENDMDL
MODEL 6
REMARK VINA RESULT:      -8.2      0.940      1.700
REMARK  Name = 
REMARK  4 active torsions:
REMARK  status: ('A' for Active; 'I' for Inactive)
REMARK    1  A    between atoms: C_2  and  C_3
REMARK    2  A    between atoms: C_3  and  N_4
REMARK    3  A    between atoms: C_9  and  C_10
REMARK    4  A    between atoms: C_18  and  C_19
REMARK                            x       y       z     vdW  Elec       q    Type
REMARK                         _______ _______ _______ _____ _____    ______ ____
ROOT
ATOM      1  N   UNL     1       5.835   6.020  18.193  0.00  0.00    +0.000 N 
ATOM      2  C   UNL     1       5.919   6.923  17.128  0.00  0.00    +0.000 C 
ATOM      3  O   UNL     1       6.958   7.533  16.853  0.00  0.00    +0.000 OA
ATOM      4  C   UNL     1       4.685   7.074  16.254  0.00  0.00    +0.000 C 
ATOM      5  N   UNL     1       3.685   7.849  16.976  0.00  0.00    +0.000 NA
ATOM      6  C   UNL     1       3.099   7.306  17.990  0.00  0.00    +0.000 C 
ATOM      7  C   UNL     1       3.338   5.899  18.442  0.00  0.00    +0.000 A 
ATOM      8  C   UNL     1       2.197   5.144  18.791  0.00  0.00    +0.000 A 
ATOM      9  C   UNL     1       2.306   3.850  19.317  0.00  0.00    +0.000 A 
ATOM     10  C   UNL     1       3.579   3.296  19.440  0.00  0.00    +0.000 A 
ATOM     11  C   UNL     1       4.714   4.025  19.066  0.00  0.00    +0.000 A 
ATOM     12  C   UNL     1       4.627   5.337  18.566  0.00  0.00    +0.000 A 
ENDROOT
BRANCH   6  13
ATOM     13  C   UNL     1       2.097   8.153  18.721  0.00  0.00    +0.000 A 
ATOM     14  C   UNL     1       1.894   7.930  20.091  0.00  0.00    +0.000 A 
ATOM     15  C   UNL     1       0.981   8.708  20.805  0.00  0.00    +0.000 A 
ATOM     16  C   UNL     1       0.262   9.709  20.156  0.00  0.00    +0.000 A 
ATOM     17  C   UNL     1       0.443   9.925  18.790  0.00  0.00    +0.000 A 
ATOM     18  C   UNL     1       1.349   9.142  18.069  0.00  0.00    +0.000 A 
ENDBRANCH   6  13
BRANCH   9  19
ATOM     19  C   UNL     1       1.091   3.067  19.755  0.00  0.00    +0.000 C 
ATOM     20  F   UNL     1       0.143   3.829  20.363  0.00  0.00    +0.000 F 
ATOM     21  F   UNL     1       0.470   2.446  18.716  0.00  0.00    +0.000 F 
ATOM     22  F   UNL     1       1.409   2.086  20.644  0.00  0.00    +0.000 F 
ENDBRANCH   9  19
BRANCH   1  23
ATOM     23  C   UNL     1       7.055   5.834  18.983  0.00  0.00    +0.000 C 
BRANCH  23  25
ATOM     24  C   UNL     1       7.727   4.315  17.082  0.00  0.00    +0.000 C 
ATOM     25  C   UNL     1       7.929   4.811  18.311  0.00  0.00    +0.000 C 
ENDBRANCH  23  25
ENDBRANCH   1  23
TORSDOF 4
ENDMDL
MODEL 7
REMARK VINA RESULT:      -7.6      3.851      5.278
REMARK  Name = 
REMARK  4 active torsions:
REMARK  status: ('A' for Active; 'I' for Inactive)
REMARK    1  A    between atoms: C_2  and  C_3
REMARK    2  A    between atoms: C_3  and  N_4
REMARK    3  A    between atoms: C_9  and  C_10
REMARK    4  A    between atoms: C_18  and  C_19
REMARK                            x       y       z     vdW  Elec       q    Type
REMARK                         _______ _______ _______ _____ _____    ______ ____
ROOT
ATOM      1  N   UNL     1       3.111   3.022  19.488  0.00  0.00    +0.000 N 
ATOM      2  C   UNL     1       2.344   3.109  20.655  0.00  0.00    +0.000 C 
ATOM      3  O   UNL     1       1.470   2.283  20.939  0.00  0.00    +0.000 OA
ATOM      4  C   UNL     1       2.680   4.235  21.617  0.00  0.00    +0.000 C 
ATOM      5  N   UNL     1       2.189   5.491  21.068  0.00  0.00    +0.000 NA
ATOM      6  C   UNL     1       2.779   5.983  20.031  0.00  0.00    +0.000 C 
ATOM      7  C   UNL     1       3.985   5.374  19.386  0.00  0.00    +0.000 A 
ATOM      8  C   UNL     1       5.021   6.260  19.014  0.00  0.00    +0.000 A 
ATOM      9  C   UNL     1       6.152   5.817  18.319  0.00  0.00    +0.000 A 
ATOM     10  C   UNL     1       6.262   4.454  18.043  0.00  0.00    +0.000 A 
ATOM     11  C   UNL     1       5.256   3.564  18.436  0.00  0.00    +0.000 A 
ATOM     12  C   UNL     1       4.097   3.995  19.108  0.00  0.00    +0.000 A 
ENDROOT
BRANCH   6  13
ATOM     13  C   UNL     1       2.220   7.265  19.482  0.00  0.00    +0.000 A 
ATOM     14  C   UNL     1       1.555   8.141  20.352  0.00  0.00    +0.000 A 
ATOM     15  C   UNL     1       1.036   9.347  19.879  0.00  0.00    +0.000 A 
ATOM     16  C   UNL     1       1.173   9.685  18.534  0.00  0.00    +0.000 A 
ATOM     17  C   UNL     1       1.817   8.811  17.658  0.00  0.00    +0.000 A 
ATOM     18  C   UNL     1       2.330   7.597  18.125  0.00  0.00    +0.000 A 
ENDBRANCH   6  13
BRANCH   9  19
ATOM     19  C   UNL     1       7.227   6.773  17.861  0.00  0.00    +0.000 C 
ATOM     20  F   UNL     1       6.788   8.050  17.702  0.00  0.00    +0.000 F 
ATOM     21  F   UNL     1       8.272   6.836  18.730  0.00  0.00    +0.000 F 
ATOM     22  F   UNL     1       7.758   6.409  16.660  0.00  0.00    +0.000 F 
ENDBRANCH   9  19
BRANCH   1  23
ATOM     23  C   UNL     1       2.821   1.889  18.605  0.00  0.00    +0.000 C 
BRANCH  23  25
ATOM     24  C   UNL     1       1.574   3.617  17.252  0.00  0.00    +0.000 C 
ATOM     25  C   UNL     1       2.067   2.380  17.399  0.00  0.00    +0.000 C 
ENDBRANCH  23  25
ENDBRANCH   1  23
TORSDOF 4
ENDMDL
MODEL 8
REMARK VINA RESULT:      -7.2      3.812      5.221
REMARK  Name = 
REMARK  4 active torsions:
REMARK  status: ('A' for Active; 'I' for Inactive)
REMARK    1  A    between atoms: C_2  and  C_3
REMARK    2  A    between atoms: C_3  and  N_4
REMARK    3  A    between atoms: C_9  and  C_10
REMARK    4  A    between atoms: C_18  and  C_19
REMARK                            x       y       z     vdW  Elec       q    Type
REMARK                         _______ _______ _______ _____ _____    ______ ____
ROOT
ATOM      1  N   UNL     1       2.633   3.499  18.837  0.00  0.00    +0.000 N 
ATOM      2  C   UNL     1       1.856   3.524  20.000  0.00  0.00    +0.000 C 
ATOM      3  O   UNL     1       0.912   2.749  20.187  0.00  0.00    +0.000 OA
ATOM      4  C   UNL     1       2.268   4.508  21.082  0.00  0.00    +0.000 C 
ATOM      5  N   UNL     1       1.892   5.852  20.669  0.00  0.00    +0.000 NA
ATOM      6  C   UNL     1       2.539   6.402  19.696  0.00  0.00    +0.000 C 
ATOM      7  C   UNL     1       3.700   5.766  18.998  0.00  0.00    +0.000 A 
ATOM      8  C   UNL     1       4.812   6.597  18.733  0.00  0.00    +0.000 A 
ATOM      9  C   UNL     1       5.914   6.137  18.002  0.00  0.00    +0.000 A 
ATOM     10  C   UNL     1       5.915   4.808  17.581  0.00  0.00    +0.000 A 
ATOM     11  C   UNL     1       4.833   3.968  17.866  0.00  0.00    +0.000 A 
ATOM     12  C   UNL     1       3.702   4.421  18.572  0.00  0.00    +0.000 A 
ENDROOT
BRANCH   6  13
ATOM     13  C   UNL     1       2.097   7.777  19.285  0.00  0.00    +0.000 A 
ATOM     14  C   UNL     1       1.409   8.573  20.213  0.00  0.00    +0.000 A 
ATOM     15  C   UNL     1       0.997   9.862  19.871  0.00  0.00    +0.000 A 
ATOM     16  C   UNL     1       1.264  10.363  18.598  0.00  0.00    +0.000 A 
ATOM     17  C   UNL     1       1.930   9.571  17.663  0.00  0.00    +0.000 A 
ATOM     18  C   UNL     1       2.336   8.276  17.998  0.00  0.00    +0.000 A 
ENDBRANCH   6  13
BRANCH   9  19
ATOM     19  C   UNL     1       7.072   7.043  17.659  0.00  0.00    +0.000 C 
ATOM     20  F   UNL     1       6.710   8.340  17.467  0.00  0.00    +0.000 F 
ATOM     21  F   UNL     1       8.028   7.055  18.627  0.00  0.00    +0.000 F 
ATOM     22  F   UNL     1       7.701   6.658  16.514  0.00  0.00    +0.000 F 
ENDBRANCH   9  19
BRANCH   1  23
ATOM     23  C   UNL     1       2.265   2.496  17.834  0.00  0.00    +0.000 C 
BRANCH  23  25
ATOM     24  C   UNL     1       3.862   0.860  18.904  0.00  0.00    +0.000 C 
ATOM     25  C   UNL     1       3.303   1.407  17.815  0.00  0.00    +0.000 C 
ENDBRANCH  23  25
ENDBRANCH   1  23
TORSDOF 4
ENDMDL
MODEL 9
REMARK VINA RESULT:      -7.1      5.090      8.100
REMARK  Name = 
REMARK  4 active torsions:
REMARK  status: ('A' for Active; 'I' for Inactive)
REMARK    1  A    between atoms: C_2  and  C_3
REMARK    2  A    between atoms: C_3  and  N_4
REMARK    3  A    between atoms: C_9  and  C_10
REMARK    4  A    between atoms: C_18  and  C_19
REMARK                            x       y       z     vdW  Elec       q    Type
REMARK                         _______ _______ _______ _____ _____    ______ ____
ROOT
ATOM      1  N   UNL     1       0.731  13.246  19.730  0.00  0.00    +0.000 N 
ATOM      2  C   UNL     1       1.154  13.094  21.056  0.00  0.00    +0.000 C 
ATOM      3  O   UNL     1       1.968  13.857  21.586  0.00  0.00    +0.000 OA
ATOM      4  C   UNL     1       0.507  11.980  21.861  0.00  0.00    +0.000 C 
ATOM      5  N   UNL     1       1.051  10.701  21.424  0.00  0.00    +0.000 NA
ATOM      6  C   UNL     1       0.730  10.262  20.254  0.00  0.00    +0.000 C 
ATOM      7  C   UNL     1      -0.222  10.957  19.331  0.00  0.00    +0.000 A 
ATOM      8  C   UNL     1      -1.173  10.146  18.672  0.00  0.00    +0.000 A 
ATOM      9  C   UNL     1      -2.050  10.671  17.715  0.00  0.00    +0.000 A 
ATOM     10  C   UNL     1      -2.001  12.041  17.461  0.00  0.00    +0.000 A 
ATOM     11  C   UNL     1      -1.085  12.859  18.132  0.00  0.00    +0.000 A 
ATOM     12  C   UNL     1      -0.174  12.344  19.074  0.00  0.00    +0.000 A 
ENDROOT
BRANCH   6  13
ATOM     13  C   UNL     1       1.337   8.954  19.834  0.00  0.00    +0.000 A 
ATOM     14  C   UNL     1       1.828   8.824  18.527  0.00  0.00    +0.000 A 
ATOM     15  C   UNL     1       2.413   7.628  18.107  0.00  0.00    +0.000 A 
ATOM     16  C   UNL     1       2.507   6.553  18.989  0.00  0.00    +0.000 A 
ATOM     17  C   UNL     1       2.004   6.667  20.285  0.00  0.00    +0.000 A 
ATOM     18  C   UNL     1       1.409   7.859  20.706  0.00  0.00    +0.000 A 
ENDBRANCH   6  13
BRANCH   9  19
ATOM     19  C   UNL     1      -3.019   9.794  16.961  0.00  0.00    +0.000 C 
ATOM     20  F   UNL     1      -3.616   8.850  17.737  0.00  0.00    +0.000 F 
ATOM     21  F   UNL     1      -4.027  10.505  16.386  0.00  0.00    +0.000 F 
ATOM     22  F   UNL     1      -2.413   9.115  15.948  0.00  0.00    +0.000 F 
ENDBRANCH   9  19
BRANCH   1  23
ATOM     23  C   UNL     1       1.313  14.369  18.990  0.00  0.00    +0.000 C 
BRANCH  23  25
ATOM     24  C   UNL     1       3.695  14.457  18.160  0.00  0.00    +0.000 C 
ATOM     25  C   UNL     1       2.486  13.879  18.186  0.00  0.00    +0.000 C 
ENDBRANCH  23  25
ENDBRANCH   1  23
TORSDOF 4
ENDMDL
