MODEL 1
REMARK VINA RESULT:      -8.3      0.000      0.000
REMARK  Name = 
REMARK  2 active torsions:
REMARK  status: ('A' for Active; 'I' for Inactive)
REMARK    1  A    between atoms: N_1  and  C_2
REMARK    2  A    between atoms: C_7  and  C_8
REMARK                            x       y       z     vdW  Elec       q    Type
REMARK                         _______ _______ _______ _____ _____    ______ ____
ROOT
ATOM      1  C   UNL     1       5.378   3.989  15.951  0.00  0.00    +0.000 A 
ATOM      2  C   UNL     1       6.096   3.847  17.092  0.00  0.00    +0.000 A 
ATOM      3  N   UNL     1       5.507   3.618  18.324  0.00  0.00    +0.000 N 
ATOM      4  C   UNL     1       4.144   3.514  18.451  0.00  0.00    +0.000 A 
ATOM      5  C   UNL     1       3.322   3.287  19.474  0.00  0.00    +0.000 A 
ATOM      6  C   UNL     1       3.453   3.048  20.875  0.00  0.00    +0.000 A 
ATOM      7  C   UNL     1       2.336   2.858  21.597  0.00  0.00    +0.000 A 
ATOM      8  C   UNL     1       1.015   2.892  20.986  0.00  0.00    +0.000 A 
ATOM      9  C   UNL     1       0.821   3.108  19.674  0.00  0.00    +0.000 A 
ATOM     10  C   UNL     1       1.999   3.323  18.808  0.00  0.00    +0.000 A 
ATOM     11  N   UNL     1       2.004   3.542  17.527  0.00  0.00    +0.000 NA
ATOM     12  C   UNL     1       3.338   3.669  17.235  0.00  0.00    +0.000 A 
ATOM     13  C   UNL     1       3.914   3.897  16.046  0.00  0.00    +0.000 A 
ATOM     14  H   UNL     1       6.092   3.501  19.141  0.00  0.00    +0.000 HD
ENDROOT
BRANCH   1  20
ATOM     15  C   UNL     1       7.192   5.077  14.571  0.00  0.00    +0.000 A 
ATOM     16  C   UNL     1       7.787   5.262  13.316  0.00  0.00    +0.000 A 
ATOM     17  C   UNL     1       7.355   4.543  12.199  0.00  0.00    +0.000 A 
ATOM     18  C   UNL     1       6.288   3.657  12.314  0.00  0.00    +0.000 A 
ATOM     19  C   UNL     1       5.649   3.497  13.543  0.00  0.00    +0.000 A 
ATOM     20  C   UNL     1       6.078   4.216  14.671  0.00  0.00    +0.000 A 
BRANCH  15  21
ATOM     21  N   UNL     1       7.581   5.918  15.631  0.00  0.00    +0.000 N 
ATOM     22  H   UNL     1       6.981   5.849  16.447  0.00  0.00    +0.000 HD
ATOM     23  H   UNL     1       7.725   6.881  15.339  0.00  0.00    +0.000 HD
ENDBRANCH  15  21
ENDBRANCH   1  20
TORSDOF 2
ENDMDL
MODEL 2
REMARK VINA RESULT:      -8.2      1.227      1.312
REMARK  Name = 
REMARK  2 active torsions:
REMARK  status: ('A' for Active; 'I' for Inactive)
REMARK    1  A    between atoms: N_1  and  C_2
REMARK    2  A    between atoms: C_7  and  C_8
REMARK                            x       y       z     vdW  Elec       q    Type
REMARK                         _______ _______ _______ _____ _____    ______ ____
ROOT
ATOM      1  C   UNL     1       5.034   4.393  15.674  0.00  0.00    +0.000 A 
ATOM      2  C   UNL     1       4.805   5.578  16.292  0.00  0.00    +0.000 A 
ATOM      3  N   UNL     1       4.083   5.682  17.468  0.00  0.00    +0.000 N 
ATOM      4  C   UNL     1       3.562   4.570  18.082  0.00  0.00    +0.000 A 
ATOM      5  C   UNL     1       2.860   4.369  19.195  0.00  0.00    +0.000 A 
ATOM      6  C   UNL     1       2.335   5.175  20.249  0.00  0.00    +0.000 A 
ATOM      7  C   UNL     1       1.652   4.571  21.237  0.00  0.00    +0.000 A 
ATOM      8  C   UNL     1       1.440   3.130  21.250  0.00  0.00    +0.000 A 
ATOM      9  C   UNL     1       1.911   2.313  20.292  0.00  0.00    +0.000 A 
ATOM     10  C   UNL     1       2.676   2.899  19.171  0.00  0.00    +0.000 A 
ATOM     11  N   UNL     1       3.203   2.268  18.165  0.00  0.00    +0.000 NA
ATOM     12  C   UNL     1       3.786   3.272  17.435  0.00  0.00    +0.000 A 
ATOM     13  C   UNL     1       4.481   3.179  16.292  0.00  0.00    +0.000 A 
ATOM     14  H   UNL     1       3.959   6.590  17.897  0.00  0.00    +0.000 HD
ENDROOT
BRANCH   1  20
ATOM     15  C   UNL     1       7.105   4.950  14.341  0.00  0.00    +0.000 A 
ATOM     16  C   UNL     1       7.785   4.901  13.117  0.00  0.00    +0.000 A 
ATOM     17  C   UNL     1       7.260   4.202  12.028  0.00  0.00    +0.000 A 
ATOM     18  C   UNL     1       6.022   3.577  12.135  0.00  0.00    +0.000 A 
ATOM     19  C   UNL     1       5.305   3.659  13.329  0.00  0.00    +0.000 A 
ATOM     20  C   UNL     1       5.827   4.359  14.429  0.00  0.00    +0.000 A 
BRANCH  15  21
ATOM     21  N   UNL     1       7.618   5.773  15.363  0.00  0.00    +0.000 N 
ATOM     22  H   UNL     1       7.438   5.420  16.298  0.00  0.00    +0.000 HD
ATOM     23  H   UNL     1       7.344   6.747  15.260  0.00  0.00    +0.000 HD
ENDBRANCH  15  21
ENDBRANCH   1  20
TORSDOF 2
ENDMDL
MODEL 3
REMARK VINA RESULT:      -8.1      4.358      4.755
REMARK  Name = 
REMARK  2 active torsions:
REMARK  status: ('A' for Active; 'I' for Inactive)
REMARK    1  A    between atoms: N_1  and  C_2
REMARK    2  A    between atoms: C_7  and  C_8
REMARK                            x       y       z     vdW  Elec       q    Type
REMARK                         _______ _______ _______ _____ _____    ______ ____
ROOT
ATOM      1  C   UNL     1       4.057   6.267  17.870  0.00  0.00    +0.000 A 
ATOM      2  C   UNL     1       3.805   5.779  19.109  0.00  0.00    +0.000 A 
ATOM      3  N   UNL     1       2.928   6.388  19.991  0.00  0.00    +0.000 N 
ATOM      4  C   UNL     1       2.253   7.531  19.643  0.00  0.00    +0.000 A 
ATOM      5  C   UNL     1       1.361   8.306  20.259  0.00  0.00    +0.000 A 
ATOM      6  C   UNL     1       0.699   8.320  21.523  0.00  0.00    +0.000 A 
ATOM      7  C   UNL     1      -0.169   9.314  21.779  0.00  0.00    +0.000 A 
ATOM      8  C   UNL     1      -0.440  10.362  20.804  0.00  0.00    +0.000 A 
ATOM      9  C   UNL     1       0.145  10.406  19.595  0.00  0.00    +0.000 A 
ATOM     10  C   UNL     1       1.111   9.346  19.234  0.00  0.00    +0.000 A 
ATOM     11  N   UNL     1       1.765   9.227  18.119  0.00  0.00    +0.000 NA
ATOM     12  C   UNL     1       2.509   8.090  18.311  0.00  0.00    +0.000 A 
ATOM     13  C   UNL     1       3.365   7.499  17.464  0.00  0.00    +0.000 A 
ATOM     14  H   UNL     1       2.762   5.969  20.896  0.00  0.00    +0.000 HD
ENDROOT
BRANCH   1  20
ATOM     15  C   UNL     1       6.291   6.043  16.714  0.00  0.00    +0.000 A 
ATOM     16  C   UNL     1       7.113   5.324  15.837  0.00  0.00    +0.000 A 
ATOM     17  C   UNL     1       6.704   4.098  15.306  0.00  0.00    +0.000 A 
ATOM     18  C   UNL     1       5.444   3.595  15.612  0.00  0.00    +0.000 A 
ATOM     19  C   UNL     1       4.590   4.321  16.441  0.00  0.00    +0.000 A 
ATOM     20  C   UNL     1       4.994   5.554  16.980  0.00  0.00    +0.000 A 
BRANCH  15  21
ATOM     21  N   UNL     1       6.699   7.329  17.118  0.00  0.00    +0.000 N 
ATOM     22  H   UNL     1       6.181   7.690  17.912  0.00  0.00    +0.000 HD
ATOM     23  H   UNL     1       6.733   7.993  16.347  0.00  0.00    +0.000 HD
ENDBRANCH  15  21
ENDBRANCH   1  20
TORSDOF 2
ENDMDL
MODEL 4
REMARK VINA RESULT:      -8.0      5.503      6.634
REMARK  Name = 
REMARK  2 active torsions:
REMARK  status: ('A' for Active; 'I' for Inactive)
REMARK    1  A    between atoms: N_1  and  C_2
REMARK    2  A    between atoms: C_7  and  C_8
REMARK                            x       y       z     vdW  Elec       q    Type
REMARK                         _______ _______ _______ _____ _____    ______ ____
ROOT
ATOM      1  C   UNL     1       2.546   7.366  18.524  0.00  0.00    +0.000 A 
ATOM      2  C   UNL     1       2.023   8.406  17.828  0.00  0.00    +0.000 A 
ATOM      3  N   UNL     1       1.221   9.371  18.412  0.00  0.00    +0.000 N 
ATOM      4  C   UNL     1       0.919   9.327  19.750  0.00  0.00    +0.000 A 
ATOM      5  C   UNL     1       0.208  10.103  20.567  0.00  0.00    +0.000 A 
ATOM      6  C   UNL     1      -0.547  11.309  20.453  0.00  0.00    +0.000 A 
ATOM      7  C   UNL     1      -1.143  11.796  21.555  0.00  0.00    +0.000 A 
ATOM      8  C   UNL     1      -1.034  11.125  22.843  0.00  0.00    +0.000 A 
ATOM      9  C   UNL     1      -0.335   9.990  23.021  0.00  0.00    +0.000 A 
ATOM     10  C   UNL     1       0.353   9.391  21.858  0.00  0.00    +0.000 A 
ATOM     11  N   UNL     1       1.069   8.308  21.842  0.00  0.00    +0.000 NA
ATOM     12  C   UNL     1       1.463   8.211  20.531  0.00  0.00    +0.000 A 
ATOM     13  C   UNL     1       2.234   7.275  19.958  0.00  0.00    +0.000 A 
ATOM     14  H   UNL     1       0.874  10.137  17.849  0.00  0.00    +0.000 HD
ENDROOT
BRANCH   1  20
ATOM     15  C   UNL     1       3.035   5.027  17.708  0.00  0.00    +0.000 A 
ATOM     16  C   UNL     1       3.916   4.148  17.064  0.00  0.00    +0.000 A 
ATOM     17  C   UNL     1       5.094   4.612  16.472  0.00  0.00    +0.000 A 
ATOM     18  C   UNL     1       5.429   5.959  16.556  0.00  0.00    +0.000 A 
ATOM     19  C   UNL     1       4.591   6.841  17.238  0.00  0.00    +0.000 A 
ATOM     20  C   UNL     1       3.405   6.383  17.834  0.00  0.00    +0.000 A 
BRANCH  15  21
ATOM     21  N   UNL     1       1.930   4.489  18.395  0.00  0.00    +0.000 N 
ATOM     22  H   UNL     1       2.114   4.292  19.373  0.00  0.00    +0.000 HD
ATOM     23  H   UNL     1       1.514   3.695  17.914  0.00  0.00    +0.000 HD
ENDBRANCH  15  21
ENDBRANCH   1  20
TORSDOF 2
ENDMDL
MODEL 5
REMARK VINA RESULT:      -8.0      5.236      6.205
REMARK  Name = 
REMARK  2 active torsions:
REMARK  status: ('A' for Active; 'I' for Inactive)
REMARK    1  A    between atoms: N_1  and  C_2
REMARK    2  A    between atoms: C_7  and  C_8
REMARK                            x       y       z     vdW  Elec       q    Type
REMARK                         _______ _______ _______ _____ _____    ______ ____
ROOT
ATOM      1  C   UNL     1       2.793   6.884  18.773  0.00  0.00    +0.000 A 
ATOM      2  C   UNL     1       2.605   6.428  20.036  0.00  0.00    +0.000 A 
ATOM      3  N   UNL     1       1.869   7.123  20.981  0.00  0.00    +0.000 N 
ATOM      4  C   UNL     1       1.277   8.323  20.676  0.00  0.00    +0.000 A 
ATOM      5  C   UNL     1       0.519   9.182  21.356  0.00  0.00    +0.000 A 
ATOM      6  C   UNL     1      -0.026   9.266  22.672  0.00  0.00    +0.000 A 
ATOM      7  C   UNL     1      -0.772  10.340  22.987  0.00  0.00    +0.000 A 
ATOM      8  C   UNL     1      -1.028  11.403  22.025  0.00  0.00    +0.000 A 
ATOM      9  C   UNL     1      -0.548  11.384  20.769  0.00  0.00    +0.000 A 
ATOM     10  C   UNL     1       0.278  10.236  20.342  0.00  0.00    +0.000 A 
ATOM     11  N   UNL     1       0.820  10.048  19.176  0.00  0.00    +0.000 NA
ATOM     12  C   UNL     1       1.467   8.847  19.319  0.00  0.00    +0.000 A 
ATOM     13  C   UNL     1       2.187   8.173  18.410  0.00  0.00    +0.000 A 
ATOM     14  H   UNL     1       1.744   6.727  21.903  0.00  0.00    +0.000 HD
ENDROOT
BRANCH   1  20
ATOM     15  C   UNL     1       3.308   4.713  17.589  0.00  0.00    +0.000 A 
ATOM     16  C   UNL     1       4.115   4.009  16.685  0.00  0.00    +0.000 A 
ATOM     17  C   UNL     1       5.107   4.658  15.948  0.00  0.00    +0.000 A 
ATOM     18  C   UNL     1       5.337   6.017  16.138  0.00  0.00    +0.000 A 
ATOM     19  C   UNL     1       4.580   6.725  17.071  0.00  0.00    +0.000 A 
ATOM     20  C   UNL     1       3.579   6.079  17.816  0.00  0.00    +0.000 A 
BRANCH  15  21
ATOM     21  N   UNL     1       2.410   3.988  18.397  0.00  0.00    +0.000 N 
ATOM     22  H   UNL     1       1.466   4.358  18.390  0.00  0.00    +0.000 HD
ATOM     23  H   UNL     1       2.759   3.841  19.341  0.00  0.00    +0.000 HD
ENDBRANCH  15  21
ENDBRANCH   1  20
TORSDOF 2
ENDMDL
MODEL 6
REMARK VINA RESULT:      -7.9      4.497      5.191
REMARK  Name = 
REMARK  2 active torsions:
REMARK  status: ('A' for Active; 'I' for Inactive)
REMARK    1  A    between atoms: N_1  and  C_2
REMARK    2  A    between atoms: C_7  and  C_8
REMARK                            x       y       z     vdW  Elec       q    Type
REMARK                         _______ _______ _______ _____ _____    ______ ____
ROOT
ATOM      1  C   UNL     1       3.849   6.314  18.119  0.00  0.00    +0.000 A 
ATOM      2  C   UNL     1       3.578   5.856  19.366  0.00  0.00    +0.000 A 
ATOM      3  N   UNL     1       2.714   6.505  20.231  0.00  0.00    +0.000 N 
ATOM      4  C   UNL     1       2.072   7.659  19.859  0.00  0.00    +0.000 A 
ATOM      5  C   UNL     1       1.199   8.469  20.456  0.00  0.00    +0.000 A 
ATOM      6  C   UNL     1       0.532   8.524  21.717  0.00  0.00    +0.000 A 
ATOM      7  C   UNL     1      -0.310   9.545  21.949  0.00  0.00    +0.000 A 
ATOM      8  C   UNL     1      -0.550  10.582  20.954  0.00  0.00    +0.000 A 
ATOM      9  C   UNL     1       0.042  10.587  19.747  0.00  0.00    +0.000 A 
ATOM     10  C   UNL     1       0.980   9.496  19.411  0.00  0.00    +0.000 A 
ATOM     11  N   UNL     1       1.636   9.338  18.301  0.00  0.00    +0.000 NA
ATOM     12  C   UNL     1       2.348   8.186  18.518  0.00  0.00    +0.000 A 
ATOM     13  C   UNL     1       3.191   7.556  17.686  0.00  0.00    +0.000 A 
ATOM     14  H   UNL     1       2.534   6.108  21.144  0.00  0.00    +0.000 HD
ENDROOT
BRANCH   1  20
ATOM     15  C   UNL     1       4.418   4.312  16.689  0.00  0.00    +0.000 A 
ATOM     16  C   UNL     1       5.357   3.642  15.893  0.00  0.00    +0.000 A 
ATOM     17  C   UNL     1       6.583   4.231  15.574  0.00  0.00    +0.000 A 
ATOM     18  C   UNL     1       6.906   5.484  16.086  0.00  0.00    +0.000 A 
ATOM     19  C   UNL     1       6.006   6.144  16.923  0.00  0.00    +0.000 A 
ATOM     20  C   UNL     1       4.771   5.559  17.247  0.00  0.00    +0.000 A 
BRANCH  15  21
ATOM     21  N   UNL     1       3.255   3.622  17.083  0.00  0.00    +0.000 N 
ATOM     22  H   UNL     1       2.663   3.347  16.306  0.00  0.00    +0.000 HD
ATOM     23  H   UNL     1       2.735   4.107  17.810  0.00  0.00    +0.000 HD
ENDBRANCH  15  21
ENDBRANCH   1  20
TORSDOF 2
ENDMDL
MODEL 7
REMARK VINA RESULT:      -7.8      1.366      1.409
REMARK  Name = 
REMARK  2 active torsions:
REMARK  status: ('A' for Active; 'I' for Inactive)
REMARK    1  A    between atoms: N_1  and  C_2
REMARK    2  A    between atoms: C_7  and  C_8
REMARK                            x       y       z     vdW  Elec       q    Type
REMARK                         _______ _______ _______ _____ _____    ______ ____
ROOT
ATOM      1  C   UNL     1       5.305   4.111  15.639  0.00  0.00    +0.000 A 
ATOM      2  C   UNL     1       5.241   2.910  16.266  0.00  0.00    +0.000 A 
ATOM      3  N   UNL     1       4.576   2.725  17.466  0.00  0.00    +0.000 N 
ATOM      4  C   UNL     1       3.929   3.765  18.085  0.00  0.00    +0.000 A 
ATOM      5  C   UNL     1       3.213   3.879  19.203  0.00  0.00    +0.000 A 
ATOM      6  C   UNL     1       2.786   3.010  20.252  0.00  0.00    +0.000 A 
ATOM      7  C   UNL     1       2.045   3.527  21.247  0.00  0.00    +0.000 A 
ATOM      8  C   UNL     1       1.678   4.936  21.275  0.00  0.00    +0.000 A 
ATOM      9  C   UNL     1       2.044   5.807  20.318  0.00  0.00    +0.000 A 
ATOM     10  C   UNL     1       2.857   5.317  19.186  0.00  0.00    +0.000 A 
ATOM     11  N   UNL     1       3.297   6.008  18.177  0.00  0.00    +0.000 NA
ATOM     12  C   UNL     1       3.984   5.080  17.436  0.00  0.00    +0.000 A 
ATOM     13  C   UNL     1       4.636   5.254  16.277  0.00  0.00    +0.000 A 
ATOM     14  H   UNL     1       4.544   1.803  17.880  0.00  0.00    +0.000 HD
ENDROOT
BRANCH   1  20
ATOM     15  C   UNL     1       7.214   4.970  14.227  0.00  0.00    +0.000 A 
ATOM     16  C   UNL     1       7.822   5.056  12.967  0.00  0.00    +0.000 A 
ATOM     17  C   UNL     1       7.318   4.349  11.874  0.00  0.00    +0.000 A 
ATOM     18  C   UNL     1       6.169   3.577  12.015  0.00  0.00    +0.000 A 
ATOM     19  C   UNL     1       5.520   3.519  13.248  0.00  0.00    +0.000 A 
ATOM     20  C   UNL     1       6.021   4.227  14.353  0.00  0.00    +0.000 A 
BRANCH  15  21
ATOM     21  N   UNL     1       7.687   5.801  15.261  0.00  0.00    +0.000 N 
ATOM     22  H   UNL     1       8.686   5.723  15.422  0.00  0.00    +0.000 HD
ATOM     23  H   UNL     1       7.150   5.707  16.120  0.00  0.00    +0.000 HD
ENDBRANCH  15  21
ENDBRANCH   1  20
TORSDOF 2
ENDMDL
MODEL 8
REMARK VINA RESULT:      -7.6      5.128      5.918
REMARK  Name = 
REMARK  2 active torsions:
REMARK  status: ('A' for Active; 'I' for Inactive)
REMARK    1  A    between atoms: N_1  and  C_2
REMARK    2  A    between atoms: C_7  and  C_8
REMARK                            x       y       z     vdW  Elec       q    Type
REMARK                         _______ _______ _______ _____ _____    ______ ____
ROOT
ATOM      1  C   UNL     1       2.834   6.570  18.780  0.00  0.00    +0.000 A 
ATOM      2  C   UNL     1       2.614   6.174  20.058  0.00  0.00    +0.000 A 
ATOM      3  N   UNL     1       1.916   6.946  20.972  0.00  0.00    +0.000 N 
ATOM      4  C   UNL     1       1.395   8.165  20.619  0.00  0.00    +0.000 A 
ATOM      5  C   UNL     1       0.685   9.091  21.261  0.00  0.00    +0.000 A 
ATOM      6  C   UNL     1       0.140   9.256  22.570  0.00  0.00    +0.000 A 
ATOM      7  C   UNL     1      -0.544  10.381  22.840  0.00  0.00    +0.000 A 
ATOM      8  C   UNL     1      -0.734  11.420  21.837  0.00  0.00    +0.000 A 
ATOM      9  C   UNL     1      -0.251  11.327  20.586  0.00  0.00    +0.000 A 
ATOM     10  C   UNL     1       0.510  10.118  20.207  0.00  0.00    +0.000 A 
ATOM     11  N   UNL     1       1.044   9.856  19.052  0.00  0.00    +0.000 NA
ATOM     12  C   UNL     1       1.620   8.626  19.244  0.00  0.00    +0.000 A 
ATOM     13  C   UNL     1       2.304   7.878  18.366  0.00  0.00    +0.000 A 
ATOM     14  H   UNL     1       1.765   6.592  21.907  0.00  0.00    +0.000 HD
ENDROOT
BRANCH   1  20
ATOM     15  C   UNL     1       4.796   6.078  17.268  0.00  0.00    +0.000 A 
ATOM     16  C   UNL     1       5.427   5.195  16.382  0.00  0.00    +0.000 A 
ATOM     17  C   UNL     1       4.917   3.915  16.154  0.00  0.00    +0.000 A 
ATOM     18  C   UNL     1       3.740   3.515  16.777  0.00  0.00    +0.000 A 
ATOM     19  C   UNL     1       3.068   4.398  17.622  0.00  0.00    +0.000 A 
ATOM     20  C   UNL     1       3.575   5.687  17.858  0.00  0.00    +0.000 A 
BRANCH  15  21
ATOM     21  N   UNL     1       5.280   7.397  17.364  0.00  0.00    +0.000 N 
ATOM     22  H   UNL     1       4.825   8.045  16.730  0.00  0.00    +0.000 HD
ATOM     23  H   UNL     1       6.294   7.451  17.306  0.00  0.00    +0.000 HD
ENDBRANCH  15  21
ENDBRANCH   1  20
TORSDOF 2
ENDMDL
MODEL 9
REMARK VINA RESULT:      -7.6      2.246      2.326
REMARK  Name = 
REMARK  2 active torsions:
REMARK  status: ('A' for Active; 'I' for Inactive)
REMARK    1  A    between atoms: N_1  and  C_2
REMARK    2  A    between atoms: C_7  and  C_8
REMARK                            x       y       z     vdW  Elec       q    Type
REMARK                         _______ _______ _______ _____ _____    ______ ____
ROOT
ATOM      1  C   UNL     1       5.041   4.654  15.636  0.00  0.00    +0.000 A 
ATOM      2  C   UNL     1       4.667   3.588  16.385  0.00  0.00    +0.000 A 
ATOM      3  N   UNL     1       3.928   3.713  17.549  0.00  0.00    +0.000 N 
ATOM      4  C   UNL     1       3.525   4.943  18.005  0.00  0.00    +0.000 A 
ATOM      5  C   UNL     1       2.813   5.357  19.051  0.00  0.00    +0.000 A 
ATOM      6  C   UNL     1       2.148   4.749  20.158  0.00  0.00    +0.000 A 
ATOM      7  C   UNL     1       1.513   5.543  21.037  0.00  0.00    +0.000 A 
ATOM      8  C   UNL     1       1.493   6.991  20.884  0.00  0.00    +0.000 A 
ATOM      9  C   UNL     1       2.095   7.628  19.864  0.00  0.00    +0.000 A 
ATOM     10  C   UNL     1       2.813   6.825  18.851  0.00  0.00    +0.000 A 
ATOM     11  N   UNL     1       3.445   7.265  17.805  0.00  0.00    +0.000 NA
ATOM     12  C   UNL     1       3.919   6.119  17.220  0.00  0.00    +0.000 A 
ATOM     13  C   UNL     1       4.641   5.991  16.097  0.00  0.00    +0.000 A 
ATOM     14  H   UNL     1       3.659   2.882  18.059  0.00  0.00    +0.000 HD
ENDROOT
BRANCH   1  20
ATOM     15  C   UNL     1       7.142   4.902  14.256  0.00  0.00    +0.000 A 
ATOM     16  C   UNL     1       7.803   4.685  13.040  0.00  0.00    +0.000 A 
ATOM     17  C   UNL     1       7.206   3.946  12.016  0.00  0.00    +0.000 A 
ATOM     18  C   UNL     1       5.917   3.450  12.179  0.00  0.00    +0.000 A 
ATOM     19  C   UNL     1       5.222   3.699  13.362  0.00  0.00    +0.000 A 
ATOM     20  C   UNL     1       5.816   4.440  14.397  0.00  0.00    +0.000 A 
BRANCH  15  21
ATOM     21  N   UNL     1       7.737   5.758  15.203  0.00  0.00    +0.000 N 
ATOM     22  H   UNL     1       8.240   5.269  15.936  0.00  0.00    +0.000 HD
ATOM     23  H   UNL     1       7.087   6.447  15.576  0.00  0.00    +0.000 HD
ENDBRANCH  15  21
ENDBRANCH   1  20
TORSDOF 2
ENDMDL
