MODEL 1
REMARK VINA RESULT:      -9.0      0.000      0.000
REMARK  Name = 
REMARK  6 active torsions:
REMARK  status: ('A' for Active; 'I' for Inactive)
REMARK    1  A    between atoms: C_1  and  C_2
REMARK    2  A    between atoms: N_12  and  C_13
REMARK    3  A    between atoms: C_13  and  C_14
REMARK    4  A    between atoms: N_16  and  C_17
REMARK    5  A    between atoms: C_17  and  C_18
REMARK    6  A    between atoms: C_23  and  N_24
REMARK                            x       y       z     vdW  Elec       q    Type
REMARK                         _______ _______ _______ _____ _____    ______ ____
ROOT
ATOM      1  C   UNL     1       3.584   6.033  18.001  0.00  0.00    +0.000 C 
ATOM      2  O   UNL     1       2.522   5.413  18.077  0.00  0.00    +0.000 OA
ATOM      3  N   UNL     1       3.616   7.395  17.738  0.00  0.00    +0.000 N 
ATOM      4  H   UNL     1       4.448   7.788  17.297  0.00  0.00    +0.000 HD
ENDROOT
BRANCH   1   5
ATOM      5  C   UNL     1       4.929   5.317  18.210  0.00  0.00    +0.000 C 
BRANCH   5  17
ATOM      6  C   UNL     1       7.383   6.953  17.729  0.00  0.00    +0.000 C 
ATOM      7  C   UNL     1       6.870   5.949  16.724  0.00  0.00    +0.000 A 
ATOM      8  N   UNL     1       7.520   5.893  15.604  0.00  0.00    +0.000 NA
ATOM      9  C   UNL     1       7.057   5.056  14.590  0.00  0.00    +0.000 A 
ATOM     10  C   UNL     1       7.714   5.063  13.356  0.00  0.00    +0.000 A 
ATOM     11  C   UNL     1       7.234   4.294  12.294  0.00  0.00    +0.000 A 
ATOM     12  C   UNL     1       6.095   3.505  12.461  0.00  0.00    +0.000 A 
ATOM     13  C   UNL     1       5.444   3.477  13.695  0.00  0.00    +0.000 A 
ATOM     14  C   UNL     1       5.930   4.257  14.750  0.00  0.00    +0.000 A 
ATOM     15  C   UNL     1       5.242   4.302  16.051  0.00  0.00    +0.000 A 
ATOM     16  O   UNL     1       4.252   3.599  16.248  0.00  0.00    +0.000 OA
ATOM     17  N   UNL     1       5.752   5.184  17.004  0.00  0.00    +0.000 N 
ENDBRANCH   5  17
ENDBRANCH   1   5
BRANCH   3  18
ATOM     18  C   UNL     1       2.345   8.086  17.568  0.00  0.00    +0.000 C 
BRANCH  18  19
ATOM     19  C   UNL     1       1.785   8.733  18.810  0.00  0.00    +0.000 A 
ATOM     20  N   UNL     1       1.693   8.210  20.014  0.00  0.00    +0.000 NA
ATOM     21  C   UNL     1       1.017   9.080  20.865  0.00  0.00    +0.000 A 
ATOM     22  C   UNL     1       0.649   8.804  22.200  0.00  0.00    +0.000 A 
ATOM     23  C   UNL     1      -0.127   9.716  22.922  0.00  0.00    +0.000 A 
ATOM     24  C   UNL     1      -0.483  10.940  22.346  0.00  0.00    +0.000 A 
ATOM     25  C   UNL     1      -0.066  11.284  21.044  0.00  0.00    +0.000 A 
ATOM     26  C   UNL     1       0.649  10.310  20.313  0.00  0.00    +0.000 A 
ATOM     27  S   UNL     1       1.182  10.352  18.676  0.00  0.00    +0.000 S 
BRANCH  24  28
ATOM     28  N   UNL     1      -1.340  11.870  23.094  0.00  0.00    +0.000 N 
ATOM     29  O   UNL     1      -0.881  12.997  23.345  0.00  0.00    +0.000 OA
ATOM     30  O   UNL     1      -2.461  11.476  23.438  0.00  0.00    +0.000 OA
ENDBRANCH  24  28
ENDBRANCH  18  19
ENDBRANCH   3  18
TORSDOF 5
ENDMDL
MODEL 2
REMARK VINA RESULT:      -8.3      2.643     10.805
REMARK  Name = 
REMARK  6 active torsions:
REMARK  status: ('A' for Active; 'I' for Inactive)
REMARK    1  A    between atoms: C_1  and  C_2
REMARK    2  A    between atoms: N_12  and  C_13
REMARK    3  A    between atoms: C_13  and  C_14
REMARK    4  A    between atoms: N_16  and  C_17
REMARK    5  A    between atoms: C_17  and  C_18
REMARK    6  A    between atoms: C_23  and  N_24
REMARK                            x       y       z     vdW  Elec       q    Type
REMARK                         _______ _______ _______ _____ _____    ______ ____
ROOT
ATOM      1  C   UNL     1       0.763   8.599  21.151  0.00  0.00    +0.000 C 
ATOM      2  O   UNL     1      -0.330   8.040  21.250  0.00  0.00    +0.000 OA
ATOM      3  N   UNL     1       1.905   7.908  20.771  0.00  0.00    +0.000 N 
ATOM      4  H   UNL     1       2.813   8.261  21.074  0.00  0.00    +0.000 HD
ENDROOT
BRANCH   1   5
ATOM      5  C   UNL     1       0.904  10.105  21.433  0.00  0.00    +0.000 C 
BRANCH   5  17
ATOM      6  C   UNL     1       0.072  11.288  18.817  0.00  0.00    +0.000 C 
ATOM      7  C   UNL     1      -0.727  11.482  20.084  0.00  0.00    +0.000 A 
ATOM      8  N   UNL     1      -1.762  12.256  19.982  0.00  0.00    +0.000 NA
ATOM      9  C   UNL     1      -2.501  12.557  21.125  0.00  0.00    +0.000 A 
ATOM     10  C   UNL     1      -3.565  13.458  21.024  0.00  0.00    +0.000 A 
ATOM     11  C   UNL     1      -4.280  13.841  22.160  0.00  0.00    +0.000 A 
ATOM     12  C   UNL     1      -3.941  13.317  23.408  0.00  0.00    +0.000 A 
ATOM     13  C   UNL     1      -2.893  12.402  23.517  0.00  0.00    +0.000 A 
ATOM     14  C   UNL     1      -2.179  12.031  22.372  0.00  0.00    +0.000 A 
ATOM     15  C   UNL     1      -1.031  11.112  22.448  0.00  0.00    +0.000 A 
ATOM     16  O   UNL     1      -0.719  10.606  23.525  0.00  0.00    +0.000 OA
ATOM     17  N   UNL     1      -0.327  10.883  21.265  0.00  0.00    +0.000 N 
ENDBRANCH   5  17
ENDBRANCH   1   5
BRANCH   3  18
ATOM     18  C   UNL     1       1.773   6.487  20.474  0.00  0.00    +0.000 C 
BRANCH  18  19
ATOM     19  C   UNL     1       2.582   5.991  19.302  0.00  0.00    +0.000 A 
ATOM     20  N   UNL     1       2.823   4.741  18.967  0.00  0.00    +0.000 NA
ATOM     21  C   UNL     1       3.701   4.695  17.887  0.00  0.00    +0.000 A 
ATOM     22  C   UNL     1       4.257   3.522  17.329  0.00  0.00    +0.000 A 
ATOM     23  C   UNL     1       5.216   3.609  16.314  0.00  0.00    +0.000 A 
ATOM     24  C   UNL     1       5.576   4.858  15.799  0.00  0.00    +0.000 A 
ATOM     25  C   UNL     1       4.983   6.045  16.276  0.00  0.00    +0.000 A 
ATOM     26  C   UNL     1       4.078   5.930  17.354  0.00  0.00    +0.000 A 
ATOM     27  S   UNL     1       3.291   7.172  18.250  0.00  0.00    +0.000 S 
BRANCH  24  28
ATOM     28  N   UNL     1       6.620   4.943  14.768  0.00  0.00    +0.000 N 
ATOM     29  O   UNL     1       6.463   4.266  13.737  0.00  0.00    +0.000 OA
ATOM     30  O   UNL     1       7.594   5.670  14.989  0.00  0.00    +0.000 OA
ENDBRANCH  24  28
ENDBRANCH  18  19
ENDBRANCH   3  18
TORSDOF 5
ENDMDL
MODEL 3
REMARK VINA RESULT:      -8.2      3.135      9.975
REMARK  Name = 
REMARK  6 active torsions:
REMARK  status: ('A' for Active; 'I' for Inactive)
REMARK    1  A    between atoms: C_1  and  C_2
REMARK    2  A    between atoms: N_12  and  C_13
REMARK    3  A    between atoms: C_13  and  C_14
REMARK    4  A    between atoms: N_16  and  C_17
REMARK    5  A    between atoms: C_17  and  C_18
REMARK    6  A    between atoms: C_23  and  N_24
REMARK                            x       y       z     vdW  Elec       q    Type
REMARK                         _______ _______ _______ _____ _____    ______ ____
ROOT
ATOM      1  C   UNL     1       0.922  10.236  21.096  0.00  0.00    +0.000 C 
ATOM      2  O   UNL     1       0.996   9.940  22.289  0.00  0.00    +0.000 OA
ATOM      3  N   UNL     1       1.092   9.288  20.097  0.00  0.00    +0.000 N 
ATOM      4  H   UNL     1       1.419   9.596  19.181  0.00  0.00    +0.000 HD
ENDROOT
BRANCH   1   5
ATOM      5  C   UNL     1       0.623  11.682  20.662  0.00  0.00    +0.000 C 
BRANCH   5  17
ATOM      6  C   UNL     1      -1.631  12.602  22.396  0.00  0.00    +0.000 C 
ATOM      7  C   UNL     1      -1.813  12.290  20.929  0.00  0.00    +0.000 A 
ATOM      8  N   UNL     1      -3.027  12.377  20.483  0.00  0.00    +0.000 NA
ATOM      9  C   UNL     1      -3.294  12.020  19.162  0.00  0.00    +0.000 A 
ATOM     10  C   UNL     1      -4.617  12.036  18.713  0.00  0.00    +0.000 A 
ATOM     11  C   UNL     1      -4.931  11.613  17.419  0.00  0.00    +0.000 A 
ATOM     12  C   UNL     1      -3.919  11.178  16.562  0.00  0.00    +0.000 A 
ATOM     13  C   UNL     1      -2.594  11.176  16.996  0.00  0.00    +0.000 A 
ATOM     14  C   UNL     1      -2.292  11.596  18.296  0.00  0.00    +0.000 A 
ATOM     15  C   UNL     1      -0.914  11.558  18.814  0.00  0.00    +0.000 A 
ATOM     16  O   UNL     1       0.010  11.209  18.081  0.00  0.00    +0.000 OA
ATOM     17  N   UNL     1      -0.735  11.906  20.154  0.00  0.00    +0.000 N 
ENDBRANCH   5  17
ENDBRANCH   1   5
BRANCH   3  18
ATOM     18  C   UNL     1       1.347   7.912  20.501  0.00  0.00    +0.000 C 
BRANCH  18  19
ATOM     19  C   UNL     1       2.313   7.148  19.631  0.00  0.00    +0.000 A 
ATOM     20  N   UNL     1       2.872   5.983  19.886  0.00  0.00    +0.000 NA
ATOM     21  C   UNL     1       3.790   5.664  18.890  0.00  0.00    +0.000 A 
ATOM     22  C   UNL     1       4.645   4.539  18.890  0.00  0.00    +0.000 A 
ATOM     23  C   UNL     1       5.606   4.382  17.885  0.00  0.00    +0.000 A 
ATOM     24  C   UNL     1       5.676   5.305  16.836  0.00  0.00    +0.000 A 
ATOM     25  C   UNL     1       4.786   6.395  16.760  0.00  0.00    +0.000 A 
ATOM     26  C   UNL     1       3.881   6.569  17.830  0.00  0.00    +0.000 A 
ATOM     27  S   UNL     1       2.767   7.851  18.114  0.00  0.00    +0.000 S 
BRANCH  24  28
ATOM     28  N   UNL     1       6.721   5.159  15.812  0.00  0.00    +0.000 N 
ATOM     29  O   UNL     1       7.786   4.617  16.153  0.00  0.00    +0.000 OA
ATOM     30  O   UNL     1       6.485   5.593  14.679  0.00  0.00    +0.000 OA
ENDBRANCH  24  28
ENDBRANCH  18  19
ENDBRANCH   3  18
TORSDOF 5
ENDMDL
MODEL 4
REMARK VINA RESULT:      -8.2      5.785      7.958
REMARK  Name = 
REMARK  6 active torsions:
REMARK  status: ('A' for Active; 'I' for Inactive)
REMARK    1  A    between atoms: C_1  and  C_2
REMARK    2  A    between atoms: N_12  and  C_13
REMARK    3  A    between atoms: C_13  and  C_14
REMARK    4  A    between atoms: N_16  and  C_17
REMARK    5  A    between atoms: C_17  and  C_18
REMARK    6  A    between atoms: C_23  and  N_24
REMARK                            x       y       z     vdW  Elec       q    Type
REMARK                         _______ _______ _______ _____ _____    ______ ____
ROOT
ATOM      1  C   UNL     1       6.677   7.017  17.551  0.00  0.00    +0.000 C 
ATOM      2  O   UNL     1       7.140   6.207  18.356  0.00  0.00    +0.000 OA
ATOM      3  N   UNL     1       7.252   8.265  17.359  0.00  0.00    +0.000 N 
ATOM      4  H   UNL     1       6.664   9.028  17.023  0.00  0.00    +0.000 HD
ENDROOT
BRANCH   1   5
ATOM      5  C   UNL     1       5.439   6.667  16.708  0.00  0.00    +0.000 C 
BRANCH   5  17
ATOM      6  C   UNL     1       6.025   3.977  15.544  0.00  0.00    +0.000 C 
ATOM      7  C   UNL     1       4.946   4.193  16.579  0.00  0.00    +0.000 A 
ATOM      8  N   UNL     1       4.238   3.150  16.879  0.00  0.00    +0.000 NA
ATOM      9  C   UNL     1       3.166   3.285  17.760  0.00  0.00    +0.000 A 
ATOM     10  C   UNL     1       2.356   2.175  18.014  0.00  0.00    +0.000 A 
ATOM     11  C   UNL     1       1.231   2.291  18.832  0.00  0.00    +0.000 A 
ATOM     12  C   UNL     1       0.910   3.521  19.408  0.00  0.00    +0.000 A 
ATOM     13  C   UNL     1       1.723   4.631  19.175  0.00  0.00    +0.000 A 
ATOM     14  C   UNL     1       2.845   4.504  18.349  0.00  0.00    +0.000 A 
ATOM     15  C   UNL     1       3.698   5.661  18.031  0.00  0.00    +0.000 A 
ATOM     16  O   UNL     1       3.467   6.755  18.542  0.00  0.00    +0.000 OA
ATOM     17  N   UNL     1       4.735   5.448  17.121  0.00  0.00    +0.000 N 
ENDBRANCH   5  17
ENDBRANCH   1   5
BRANCH   3  18
ATOM     18  C   UNL     1       8.443   8.592  18.133  0.00  0.00    +0.000 C 
BRANCH  18  19
ATOM     19  C   UNL     1       8.669  10.062  18.387  0.00  0.00    +0.000 A 
ATOM     20  N   UNL     1       8.296  11.073  17.630  0.00  0.00    +0.000 NA
ATOM     21  C   UNL     1       8.788  12.267  18.149  0.00  0.00    +0.000 A 
ATOM     22  C   UNL     1       8.668  13.538  17.543  0.00  0.00    +0.000 A 
ATOM     23  C   UNL     1       9.301  14.651  18.107  0.00  0.00    +0.000 A 
ATOM     24  C   UNL     1       9.997  14.522  19.313  0.00  0.00    +0.000 A 
ATOM     25  C   UNL     1      10.069  13.287  19.988  0.00  0.00    +0.000 A 
ATOM     26  C   UNL     1       9.488  12.167  19.354  0.00  0.00    +0.000 A 
ATOM     27  S   UNL     1       9.514  10.512  19.831  0.00  0.00    +0.000 S 
BRANCH  24  28
ATOM     28  N   UNL     1      10.699  15.686  19.871  0.00  0.00    +0.000 N 
ATOM     29  O   UNL     1      11.918  15.783  19.646  0.00  0.00    +0.000 OA
ATOM     30  O   UNL     1      10.042  16.493  20.539  0.00  0.00    +0.000 OA
ENDBRANCH  24  28
ENDBRANCH  18  19
ENDBRANCH   3  18
TORSDOF 5
ENDMDL
MODEL 5
REMARK VINA RESULT:      -8.1      6.105      8.241
REMARK  Name = 
REMARK  6 active torsions:
REMARK  status: ('A' for Active; 'I' for Inactive)
REMARK    1  A    between atoms: C_1  and  C_2
REMARK    2  A    between atoms: N_12  and  C_13
REMARK    3  A    between atoms: C_13  and  C_14
REMARK    4  A    between atoms: N_16  and  C_17
REMARK    5  A    between atoms: C_17  and  C_18
REMARK    6  A    between atoms: C_23  and  N_24
REMARK                            x       y       z     vdW  Elec       q    Type
REMARK                         _______ _______ _______ _____ _____    ______ ____
ROOT
ATOM      1  C   UNL     1       7.395   7.424  17.722  0.00  0.00    +0.000 C 
ATOM      2  O   UNL     1       7.875   6.548  18.443  0.00  0.00    +0.000 OA
ATOM      3  N   UNL     1       7.822   8.742  17.792  0.00  0.00    +0.000 N 
ATOM      4  H   UNL     1       7.178   9.481  17.509  0.00  0.00    +0.000 HD
ENDROOT
BRANCH   1   5
ATOM      5  C   UNL     1       6.300   7.084  16.696  0.00  0.00    +0.000 C 
BRANCH   5  17
ATOM      6  C   UNL     1       7.103   4.372  15.728  0.00  0.00    +0.000 C 
ATOM      7  C   UNL     1       5.844   4.606  16.530  0.00  0.00    +0.000 A 
ATOM      8  N   UNL     1       5.092   3.565  16.711  0.00  0.00    +0.000 NA
ATOM      9  C   UNL     1       3.869   3.715  17.364  0.00  0.00    +0.000 A 
ATOM     10  C   UNL     1       3.027   2.606  17.482  0.00  0.00    +0.000 A 
ATOM     11  C   UNL     1       1.764   2.735  18.063  0.00  0.00    +0.000 A 
ATOM     12  C   UNL     1       1.337   3.975  18.538  0.00  0.00    +0.000 A 
ATOM     13  C   UNL     1       2.178   5.084  18.442  0.00  0.00    +0.000 A 
ATOM     14  C   UNL     1       3.440   4.944  17.852  0.00  0.00    +0.000 A 
ATOM     15  C   UNL     1       4.338   6.098  17.679  0.00  0.00    +0.000 A 
ATOM     16  O   UNL     1       4.011   7.203  18.111  0.00  0.00    +0.000 OA
ATOM     17  N   UNL     1       5.531   5.871  16.992  0.00  0.00    +0.000 N 
ENDBRANCH   5  17
ENDBRANCH   1   5
BRANCH   3  18
ATOM     18  C   UNL     1       8.879   9.066  18.741  0.00  0.00    +0.000 C 
BRANCH  18  19
ATOM     19  C   UNL     1       9.222  10.530  18.857  0.00  0.00    +0.000 A 
ATOM     20  N   UNL     1       9.386  11.395  17.877  0.00  0.00    +0.000 NA
ATOM     21  C   UNL     1       9.806  12.621  18.386  0.00  0.00    +0.000 A 
ATOM     22  C   UNL     1      10.175  13.747  17.616  0.00  0.00    +0.000 A 
ATOM     23  C   UNL     1      10.687  14.890  18.238  0.00  0.00    +0.000 A 
ATOM     24  C   UNL     1      10.769  14.948  19.633  0.00  0.00    +0.000 A 
ATOM     25  C   UNL     1      10.335  13.875  20.437  0.00  0.00    +0.000 A 
ATOM     26  C   UNL     1       9.897  12.706  19.777  0.00  0.00    +0.000 A 
ATOM     27  S   UNL     1       9.435  11.188  20.446  0.00  0.00    +0.000 S 
BRANCH  24  28
ATOM     28  N   UNL     1      11.354  16.134  20.275  0.00  0.00    +0.000 N 
ATOM     29  O   UNL     1      11.317  16.191  21.516  0.00  0.00    +0.000 OA
ATOM     30  O   UNL     1      11.837  17.008  19.546  0.00  0.00    +0.000 OA
ENDBRANCH  24  28
ENDBRANCH  18  19
ENDBRANCH   3  18
TORSDOF 5
ENDMDL
MODEL 6
REMARK VINA RESULT:      -8.1      5.762      7.970
REMARK  Name = 
REMARK  6 active torsions:
REMARK  status: ('A' for Active; 'I' for Inactive)
REMARK    1  A    between atoms: C_1  and  C_2
REMARK    2  A    between atoms: N_12  and  C_13
REMARK    3  A    between atoms: C_13  and  C_14
REMARK    4  A    between atoms: N_16  and  C_17
REMARK    5  A    between atoms: C_17  and  C_18
REMARK    6  A    between atoms: C_23  and  N_24
REMARK                            x       y       z     vdW  Elec       q    Type
REMARK                         _______ _______ _______ _____ _____    ______ ____
ROOT
ATOM      1  C   UNL     1       6.614   6.921  17.450  0.00  0.00    +0.000 C 
ATOM      2  O   UNL     1       6.890   6.139  18.361  0.00  0.00    +0.000 OA
ATOM      3  N   UNL     1       7.292   8.120  17.286  0.00  0.00    +0.000 N 
ATOM      4  H   UNL     1       6.815   8.892  16.819  0.00  0.00    +0.000 HD
ENDROOT
BRANCH   1   5
ATOM      5  C   UNL     1       5.504   6.588  16.438  0.00  0.00    +0.000 C 
BRANCH   5  17
ATOM      6  C   UNL     1       3.230   8.019  17.747  0.00  0.00    +0.000 C 
ATOM      7  C   UNL     1       3.291   6.513  17.652  0.00  0.00    +0.000 A 
ATOM      8  N   UNL     1       2.328   5.874  18.239  0.00  0.00    +0.000 NA
ATOM      9  C   UNL     1       2.359   4.480  18.274  0.00  0.00    +0.000 A 
ATOM     10  C   UNL     1       1.363   3.800  18.980  0.00  0.00    +0.000 A 
ATOM     11  C   UNL     1       1.402   2.409  19.098  0.00  0.00    +0.000 A 
ATOM     12  C   UNL     1       2.437   1.687  18.504  0.00  0.00    +0.000 A 
ATOM     13  C   UNL     1       3.425   2.355  17.781  0.00  0.00    +0.000 A 
ATOM     14  C   UNL     1       3.379   3.750  17.674  0.00  0.00    +0.000 A 
ATOM     15  C   UNL     1       4.431   4.500  16.968  0.00  0.00    +0.000 A 
ATOM     16  O   UNL     1       5.344   3.898  16.405  0.00  0.00    +0.000 OA
ATOM     17  N   UNL     1       4.342   5.893  17.002  0.00  0.00    +0.000 N 
ENDBRANCH   5  17
ENDBRANCH   1   5
BRANCH   3  18
ATOM     18  C   UNL     1       8.364   8.429  18.223  0.00  0.00    +0.000 C 
BRANCH  18  19
ATOM     19  C   UNL     1       8.652   9.897  18.421  0.00  0.00    +0.000 A 
ATOM     20  N   UNL     1       8.265  10.899  17.660  0.00  0.00    +0.000 NA
ATOM     21  C   UNL     1       8.826  12.089  18.113  0.00  0.00    +0.000 A 
ATOM     22  C   UNL     1       8.709  13.347  17.479  0.00  0.00    +0.000 A 
ATOM     23  C   UNL     1       9.410  14.453  17.970  0.00  0.00    +0.000 A 
ATOM     24  C   UNL     1      10.177  14.333  19.134  0.00  0.00    +0.000 A 
ATOM     25  C   UNL     1      10.252  13.115  19.838  0.00  0.00    +0.000 A 
ATOM     26  C   UNL     1       9.597  11.998  19.274  0.00  0.00    +0.000 A 
ATOM     27  S   UNL     1       9.601  10.357  19.796  0.00  0.00    +0.000 S 
BRANCH  24  28
ATOM     28  N   UNL     1      10.950  15.488  19.613  0.00  0.00    +0.000 N 
ATOM     29  O   UNL     1      10.331  16.546  19.820  0.00  0.00    +0.000 OA
ATOM     30  O   UNL     1      12.167  15.343  19.772  0.00  0.00    +0.000 OA
ENDBRANCH  24  28
ENDBRANCH  18  19
ENDBRANCH   3  18
TORSDOF 5
ENDMDL
MODEL 7
REMARK VINA RESULT:      -8.1      3.913     10.856
REMARK  Name = 
REMARK  6 active torsions:
REMARK  status: ('A' for Active; 'I' for Inactive)
REMARK    1  A    between atoms: C_1  and  C_2
REMARK    2  A    between atoms: N_12  and  C_13
REMARK    3  A    between atoms: C_13  and  C_14
REMARK    4  A    between atoms: N_16  and  C_17
REMARK    5  A    between atoms: C_17  and  C_18
REMARK    6  A    between atoms: C_23  and  N_24
REMARK                            x       y       z     vdW  Elec       q    Type
REMARK                         _______ _______ _______ _____ _____    ______ ____
ROOT
ATOM      1  C   UNL     1      -0.359  10.560  19.926  0.00  0.00    +0.000 C 
ATOM      2  O   UNL     1      -0.638  10.459  21.121  0.00  0.00    +0.000 OA
ATOM      3  N   UNL     1       0.535   9.696  19.310  0.00  0.00    +0.000 N 
ATOM      4  H   UNL     1       1.040  10.021  18.485  0.00  0.00    +0.000 HD
ENDROOT
BRANCH   1   5
ATOM      5  C   UNL     1      -1.006  11.652  19.057  0.00  0.00    +0.000 C 
BRANCH   5  17
ATOM      6  C   UNL     1      -2.145   9.975  16.861  0.00  0.00    +0.000 C 
ATOM      7  C   UNL     1      -3.015  10.763  17.812  0.00  0.00    +0.000 A 
ATOM      8  N   UNL     1      -4.288  10.725  17.571  0.00  0.00    +0.000 NA
ATOM      9  C   UNL     1      -5.151  11.497  18.348  0.00  0.00    +0.000 A 
ATOM     10  C   UNL     1      -6.511  11.516  18.030  0.00  0.00    +0.000 A 
ATOM     11  C   UNL     1      -7.393  12.334  18.739  0.00  0.00    +0.000 A 
ATOM     12  C   UNL     1      -6.920  13.136  19.779  0.00  0.00    +0.000 A 
ATOM     13  C   UNL     1      -5.566  13.109  20.116  0.00  0.00    +0.000 A 
ATOM     14  C   UNL     1      -4.691  12.289  19.395  0.00  0.00    +0.000 A 
ATOM     15  C   UNL     1      -3.246  12.272  19.679  0.00  0.00    +0.000 A 
ATOM     16  O   UNL     1      -2.794  12.941  20.607  0.00  0.00    +0.000 OA
ATOM     17  N   UNL     1      -2.448  11.495  18.839  0.00  0.00    +0.000 N 
ENDBRANCH   5  17
ENDBRANCH   1   5
BRANCH   3  18
ATOM     18  C   UNL     1       1.130   8.641  20.120  0.00  0.00    +0.000 C 
BRANCH  18  19
ATOM     19  C   UNL     1       2.117   7.752  19.406  0.00  0.00    +0.000 A 
ATOM     20  N   UNL     1       2.627   6.616  19.833  0.00  0.00    +0.000 NA
ATOM     21  C   UNL     1       3.586   6.153  18.936  0.00  0.00    +0.000 A 
ATOM     22  C   UNL     1       4.407   5.018  19.123  0.00  0.00    +0.000 A 
ATOM     23  C   UNL     1       5.413   4.715  18.199  0.00  0.00    +0.000 A 
ATOM     24  C   UNL     1       5.564   5.497  17.049  0.00  0.00    +0.000 A 
ATOM     25  C   UNL     1       4.711   6.589  16.790  0.00  0.00    +0.000 A 
ATOM     26  C   UNL     1       3.757   6.917  17.778  0.00  0.00    +0.000 A 
ATOM     27  S   UNL     1       2.669   8.249  17.840  0.00  0.00    +0.000 S 
BRANCH  24  28
ATOM     28  N   UNL     1       6.655   5.200  16.110  0.00  0.00    +0.000 N 
ATOM     29  O   UNL     1       6.528   5.598  14.940  0.00  0.00    +0.000 OA
ATOM     30  O   UNL     1       7.627   4.565  16.535  0.00  0.00    +0.000 OA
ENDBRANCH  24  28
ENDBRANCH  18  19
ENDBRANCH   3  18
TORSDOF 5
ENDMDL
MODEL 8
REMARK VINA RESULT:      -8.1      6.107      8.288
REMARK  Name = 
REMARK  6 active torsions:
REMARK  status: ('A' for Active; 'I' for Inactive)
REMARK    1  A    between atoms: C_1  and  C_2
REMARK    2  A    between atoms: N_12  and  C_13
REMARK    3  A    between atoms: C_13  and  C_14
REMARK    4  A    between atoms: N_16  and  C_17
REMARK    5  A    between atoms: C_17  and  C_18
REMARK    6  A    between atoms: C_23  and  N_24
REMARK                            x       y       z     vdW  Elec       q    Type
REMARK                         _______ _______ _______ _____ _____    ______ ____
ROOT
ATOM      1  C   UNL     1       7.433   7.604  17.754  0.00  0.00    +0.000 C 
ATOM      2  O   UNL     1       7.875   6.755  18.531  0.00  0.00    +0.000 OA
ATOM      3  N   UNL     1       7.854   8.925  17.801  0.00  0.00    +0.000 N 
ATOM      4  H   UNL     1       7.225   9.651  17.458  0.00  0.00    +0.000 HD
ENDROOT
BRANCH   1   5
ATOM      5  C   UNL     1       6.397   7.225  16.683  0.00  0.00    +0.000 C 
BRANCH   5  17
ATOM      6  C   UNL     1       7.270   4.495  15.834  0.00  0.00    +0.000 C 
ATOM      7  C   UNL     1       5.970   4.739  16.563  0.00  0.00    +0.000 A 
ATOM      8  N   UNL     1       5.218   3.697  16.734  0.00  0.00    +0.000 NA
ATOM      9  C   UNL     1       3.962   3.853  17.319  0.00  0.00    +0.000 A 
ATOM     10  C   UNL     1       3.123   2.740  17.425  0.00  0.00    +0.000 A 
ATOM     11  C   UNL     1       1.831   2.872  17.936  0.00  0.00    +0.000 A 
ATOM     12  C   UNL     1       1.370   4.122  18.353  0.00  0.00    +0.000 A 
ATOM     13  C   UNL     1       2.206   5.235  18.270  0.00  0.00    +0.000 A 
ATOM     14  C   UNL     1       3.498   5.091  17.749  0.00  0.00    +0.000 A 
ATOM     15  C   UNL     1       4.394   6.248  17.591  0.00  0.00    +0.000 A 
ATOM     16  O   UNL     1       4.036   7.361  17.974  0.00  0.00    +0.000 OA
ATOM     17  N   UNL     1       5.623   6.013  16.973  0.00  0.00    +0.000 N 
ENDBRANCH   5  17
ENDBRANCH   1   5
BRANCH   3  18
ATOM     18  C   UNL     1       8.857   9.285  18.795  0.00  0.00    +0.000 C 
BRANCH  18  19
ATOM     19  C   UNL     1       9.413  10.683  18.680  0.00  0.00    +0.000 A 
ATOM     20  N   UNL     1      10.526  11.148  19.207  0.00  0.00    +0.000 NA
ATOM     21  C   UNL     1      10.634  12.515  18.969  0.00  0.00    +0.000 A 
ATOM     22  C   UNL     1      11.648  13.360  19.473  0.00  0.00    +0.000 A 
ATOM     23  C   UNL     1      11.590  14.741  19.256  0.00  0.00    +0.000 A 
ATOM     24  C   UNL     1      10.563  15.282  18.477  0.00  0.00    +0.000 A 
ATOM     25  C   UNL     1       9.579  14.461  17.890  0.00  0.00    +0.000 A 
ATOM     26  C   UNL     1       9.620  13.082  18.193  0.00  0.00    +0.000 A 
ATOM     27  S   UNL     1       8.510  11.840  17.759  0.00  0.00    +0.000 S 
BRANCH  24  28
ATOM     28  N   UNL     1      10.482  16.739  18.296  0.00  0.00    +0.000 N 
ATOM     29  O   UNL     1      10.470  17.444  19.319  0.00  0.00    +0.000 OA
ATOM     30  O   UNL     1      10.420  17.176  17.141  0.00  0.00    +0.000 OA
ENDBRANCH  24  28
ENDBRANCH  18  19
ENDBRANCH   3  18
TORSDOF 5
ENDMDL
MODEL 9
REMARK VINA RESULT:      -7.9      2.727     10.830
REMARK  Name = 
REMARK  6 active torsions:
REMARK  status: ('A' for Active; 'I' for Inactive)
REMARK    1  A    between atoms: C_1  and  C_2
REMARK    2  A    between atoms: N_12  and  C_13
REMARK    3  A    between atoms: C_13  and  C_14
REMARK    4  A    between atoms: N_16  and  C_17
REMARK    5  A    between atoms: C_17  and  C_18
REMARK    6  A    between atoms: C_23  and  N_24
REMARK                            x       y       z     vdW  Elec       q    Type
REMARK                         _______ _______ _______ _____ _____    ______ ____
ROOT
ATOM      1  C   UNL     1       1.170   9.924  21.341  0.00  0.00    +0.000 C 
ATOM      2  O   UNL     1       1.605   9.631  22.456  0.00  0.00    +0.000 OA
ATOM      3  N   UNL     1       0.974   8.964  20.359  0.00  0.00    +0.000 N 
ATOM      4  H   UNL     1       1.006   9.252  19.381  0.00  0.00    +0.000 HD
ENDROOT
BRANCH   1   5
ATOM      5  C   UNL     1       0.810  11.379  20.996  0.00  0.00    +0.000 C 
BRANCH   5  17
ATOM      6  C   UNL     1      -0.732  11.645  18.449  0.00  0.00    +0.000 C 
ATOM      7  C   UNL     1      -1.369  11.840  19.805  0.00  0.00    +0.000 A 
ATOM      8  N   UNL     1      -2.613  12.203  19.793  0.00  0.00    +0.000 NA
ATOM      9  C   UNL     1      -3.249  12.489  21.001  0.00  0.00    +0.000 A 
ATOM     10  C   UNL     1      -4.565  12.960  20.976  0.00  0.00    +0.000 A 
ATOM     11  C   UNL     1      -5.208  13.328  22.159  0.00  0.00    +0.000 A 
ATOM     12  C   UNL     1      -4.540  13.220  23.380  0.00  0.00    +0.000 A 
ATOM     13  C   UNL     1      -3.233  12.734  23.417  0.00  0.00    +0.000 A 
ATOM     14  C   UNL     1      -2.596  12.374  22.223  0.00  0.00    +0.000 A 
ATOM     15  C   UNL     1      -1.199  11.909  22.210  0.00  0.00    +0.000 A 
ATOM     16  O   UNL     1      -0.586  11.772  23.267  0.00  0.00    +0.000 OA
ATOM     17  N   UNL     1      -0.627  11.668  20.959  0.00  0.00    +0.000 N 
ENDBRANCH   5  17
ENDBRANCH   1   5
BRANCH   3  18
ATOM     18  C   UNL     1       1.285   7.580  20.688  0.00  0.00    +0.000 C 
BRANCH  18  19
ATOM     19  C   UNL     1       2.284   6.905  19.781  0.00  0.00    +0.000 A 
ATOM     20  N   UNL     1       2.959   5.798  20.015  0.00  0.00    +0.000 NA
ATOM     21  C   UNL     1       3.863   5.562  18.983  0.00  0.00    +0.000 A 
ATOM     22  C   UNL     1       4.819   4.522  18.951  0.00  0.00    +0.000 A 
ATOM     23  C   UNL     1       5.749   4.451  17.909  0.00  0.00    +0.000 A 
ATOM     24  C   UNL     1       5.690   5.370  16.856  0.00  0.00    +0.000 A 
ATOM     25  C   UNL     1       4.699   6.371  16.814  0.00  0.00    +0.000 A 
ATOM     26  C   UNL     1       3.825   6.466  17.919  0.00  0.00    +0.000 A 
ATOM     27  S   UNL     1       2.608   7.639  18.246  0.00  0.00    +0.000 S 
BRANCH  24  28
ATOM     28  N   UNL     1       6.702   5.318  15.792  0.00  0.00    +0.000 N 
ATOM     29  O   UNL     1       6.585   4.427  14.933  0.00  0.00    +0.000 OA
ATOM     30  O   UNL     1       7.614   6.152  15.818  0.00  0.00    +0.000 OA
ENDBRANCH  24  28
ENDBRANCH  18  19
ENDBRANCH   3  18
TORSDOF 5
ENDMDL
