MODEL 1
REMARK VINA RESULT:      -7.0      0.000      0.000
REMARK  Name = 
REMARK  4 active torsions:
REMARK  status: ('A' for Active; 'I' for Inactive)
REMARK    1  A    between atoms: C_2  and  C_3
REMARK    2  A    between atoms: C_3  and  C_4
REMARK    3  A    between atoms: C_9  and  S_10
REMARK    4  A    between atoms: S_10  and  N_13
REMARK                            x       y       z     vdW  Elec       q    Type
REMARK                         _______ _______ _______ _____ _____    ______ ____
ROOT
ATOM      1  C   UNL     1       0.552  10.110  20.533  0.00  0.00    +0.000 A 
ATOM      2  N   UNL     1       0.785  10.091  19.242  0.00  0.00    +0.000 NA
ATOM      3  C   UNL     1       1.562   8.999  18.933  0.00  0.00    +0.000 A 
ATOM      4  C   UNL     1       2.228   8.824  17.709  0.00  0.00    +0.000 A 
ATOM      5  C   UNL     1       3.061   7.724  17.528  0.00  0.00    +0.000 A 
ATOM      6  C   UNL     1       3.123   6.726  18.500  0.00  0.00    +0.000 A 
ATOM      7  C   UNL     1       2.486   6.882  19.748  0.00  0.00    +0.000 A 
ATOM      8  C   UNL     1       1.729   8.056  19.949  0.00  0.00    +0.000 A 
ATOM      9  S   UNL     1       0.919   8.645  21.362  0.00  0.00    +0.000 S 
ENDROOT
BRANCH   6  10
ATOM     10  S   UNL     1       4.121   5.279  18.157  0.00  0.00    +0.000 S 
ATOM     11  O   UNL     1       4.588   4.779  19.430  0.00  0.00    +0.000 OA
ATOM     12  O   UNL     1       3.344   4.445  17.264  0.00  0.00    +0.000 OA
BRANCH  10  13
ATOM     13  N   UNL     1       5.464   5.844  17.294  0.00  0.00    +0.000 NA
ATOM     14  C   UNL     1       5.645   5.496  15.863  0.00  0.00    +0.000 C 
ATOM     15  C   UNL     1       6.519   4.246  15.708  0.00  0.00    +0.000 C 
ATOM     16  O   UNL     1       7.771   4.385  16.392  0.00  0.00    +0.000 OA
ATOM     17  C   UNL     1       7.600   4.705  17.780  0.00  0.00    +0.000 C 
ATOM     18  C   UNL     1       6.774   5.978  17.970  0.00  0.00    +0.000 C 
ENDBRANCH  10  13
ENDBRANCH   6  10
BRANCH   1  19
ATOM     19  C   UNL     1       0.088  11.342  21.239  0.00  0.00    +0.000 C 
BRANCH  19  21
ATOM     20  N   UNL     1      -1.183  10.647  23.437  0.00  0.00    +0.000 NA
ATOM     21  C   UNL     1      -0.621  10.952  22.468  0.00  0.00    +0.000 C 
ENDBRANCH  19  21
ENDBRANCH   1  19
TORSDOF 4
ENDMDL
MODEL 2
REMARK VINA RESULT:      -6.9      1.133      1.633
REMARK  Name = 
REMARK  4 active torsions:
REMARK  status: ('A' for Active; 'I' for Inactive)
REMARK    1  A    between atoms: C_2  and  C_3
REMARK    2  A    between atoms: C_3  and  C_4
REMARK    3  A    between atoms: C_9  and  S_10
REMARK    4  A    between atoms: S_10  and  N_13
REMARK                            x       y       z     vdW  Elec       q    Type
REMARK                         _______ _______ _______ _____ _____    ______ ____
ROOT
ATOM      1  C   UNL     1       0.650   9.652  20.034  0.00  0.00    +0.000 A 
ATOM      2  N   UNL     1       0.948   8.708  20.895  0.00  0.00    +0.000 NA
ATOM      3  C   UNL     1       1.656   7.715  20.260  0.00  0.00    +0.000 A 
ATOM      4  C   UNL     1       1.889   6.440  20.802  0.00  0.00    +0.000 A 
ATOM      5  C   UNL     1       2.542   5.476  20.040  0.00  0.00    +0.000 A 
ATOM      6  C   UNL     1       3.089   5.814  18.803  0.00  0.00    +0.000 A 
ATOM      7  C   UNL     1       2.854   7.076  18.221  0.00  0.00    +0.000 A 
ATOM      8  C   UNL     1       2.099   8.006  18.968  0.00  0.00    +0.000 A 
ATOM      9  S   UNL     1       1.515   9.580  18.545  0.00  0.00    +0.000 S 
ENDROOT
BRANCH   6  10
ATOM     10  S   UNL     1       4.020   4.561  17.925  0.00  0.00    +0.000 S 
ATOM     11  O   UNL     1       4.673   3.746  18.924  0.00  0.00    +0.000 OA
ATOM     12  O   UNL     1       3.116   3.978  16.957  0.00  0.00    +0.000 OA
BRANCH  10  13
ATOM     13  N   UNL     1       5.219   5.397  17.070  0.00  0.00    +0.000 NA
ATOM     14  C   UNL     1       5.455   5.120  15.631  0.00  0.00    +0.000 C 
ATOM     15  C   UNL     1       6.558   4.071  15.449  0.00  0.00    +0.000 C 
ATOM     16  O   UNL     1       7.763   4.442  16.131  0.00  0.00    +0.000 OA
ATOM     17  C   UNL     1       7.541   4.695  17.526  0.00  0.00    +0.000 C 
ATOM     18  C   UNL     1       6.481   5.775  17.745  0.00  0.00    +0.000 C 
ENDBRANCH  10  13
ENDBRANCH   6  10
BRANCH   1  19
ATOM     19  C   UNL     1      -0.425  10.656  20.296  0.00  0.00    +0.000 C 
BRANCH  19  21
ATOM     20  N   UNL     1      -0.424  11.259  22.858  0.00  0.00    +0.000 NA
ATOM     21  C   UNL     1      -0.425  10.995  21.728  0.00  0.00    +0.000 C 
ENDBRANCH  19  21
ENDBRANCH   1  19
TORSDOF 4
ENDMDL
MODEL 3
REMARK VINA RESULT:      -6.8      1.501      2.198
REMARK  Name = 
REMARK  4 active torsions:
REMARK  status: ('A' for Active; 'I' for Inactive)
REMARK    1  A    between atoms: C_2  and  C_3
REMARK    2  A    between atoms: C_3  and  C_4
REMARK    3  A    between atoms: C_9  and  S_10
REMARK    4  A    between atoms: S_10  and  N_13
REMARK                            x       y       z     vdW  Elec       q    Type
REMARK                         _______ _______ _______ _____ _____    ______ ____
ROOT
ATOM      1  C   UNL     1       0.627   9.856  19.677  0.00  0.00    +0.000 A 
ATOM      2  N   UNL     1       0.867   8.951  20.596  0.00  0.00    +0.000 NA
ATOM      3  C   UNL     1       1.595   7.922  20.046  0.00  0.00    +0.000 A 
ATOM      4  C   UNL     1       1.782   6.671  20.658  0.00  0.00    +0.000 A 
ATOM      5  C   UNL     1       2.463   5.665  19.978  0.00  0.00    +0.000 A 
ATOM      6  C   UNL     1       3.079   5.940  18.758  0.00  0.00    +0.000 A 
ATOM      7  C   UNL     1       2.892   7.176  18.107  0.00  0.00    +0.000 A 
ATOM      8  C   UNL     1       2.110   8.147  18.769  0.00  0.00    +0.000 A 
ATOM      9  S   UNL     1       1.570   9.706  18.242  0.00  0.00    +0.000 S 
ENDROOT
BRANCH   6  10
ATOM     10  S   UNL     1       4.040   4.638  17.990  0.00  0.00    +0.000 S 
ATOM     11  O   UNL     1       4.665   3.892  19.058  0.00  0.00    +0.000 OA
ATOM     12  O   UNL     1       3.166   3.989  17.036  0.00  0.00    +0.000 OA
BRANCH  10  13
ATOM     13  N   UNL     1       5.260   5.423  17.118  0.00  0.00    +0.000 NA
ATOM     14  C   UNL     1       5.548   5.048  15.711  0.00  0.00    +0.000 C 
ATOM     15  C   UNL     1       6.664   3.999  15.640  0.00  0.00    +0.000 C 
ATOM     16  O   UNL     1       7.842   4.429  16.335  0.00  0.00    +0.000 OA
ATOM     17  C   UNL     1       7.571   4.777  17.700  0.00  0.00    +0.000 C 
ATOM     18  C   UNL     1       6.497   5.859  17.807  0.00  0.00    +0.000 C 
ENDBRANCH  10  13
ENDBRANCH   6  10
BRANCH   1  19
ATOM     19  C   UNL     1      -0.446  10.883  19.834  0.00  0.00    +0.000 C 
BRANCH  19  21
ATOM     20  N   UNL     1      -1.879  10.974  17.627  0.00  0.00    +0.000 NA
ATOM     21  C   UNL     1      -1.247  10.932  18.600  0.00  0.00    +0.000 C 
ENDBRANCH  19  21
ENDBRANCH   1  19
TORSDOF 4
ENDMDL
MODEL 4
REMARK VINA RESULT:      -6.8      2.258      3.108
REMARK  Name = 
REMARK  4 active torsions:
REMARK  status: ('A' for Active; 'I' for Inactive)
REMARK    1  A    between atoms: C_2  and  C_3
REMARK    2  A    between atoms: C_3  and  C_4
REMARK    3  A    between atoms: C_9  and  S_10
REMARK    4  A    between atoms: S_10  and  N_13
REMARK                            x       y       z     vdW  Elec       q    Type
REMARK                         _______ _______ _______ _____ _____    ______ ____
ROOT
ATOM      1  C   UNL     1       0.981   9.237  20.190  0.00  0.00    +0.000 A 
ATOM      2  N   UNL     1       1.339   9.196  18.929  0.00  0.00    +0.000 NA
ATOM      3  C   UNL     1       2.175   8.125  18.724  0.00  0.00    +0.000 A 
ATOM      4  C   UNL     1       2.962   7.944  17.574  0.00  0.00    +0.000 A 
ATOM      5  C   UNL     1       3.842   6.868  17.503  0.00  0.00    +0.000 A 
ATOM      6  C   UNL     1       3.840   5.896  18.502  0.00  0.00    +0.000 A 
ATOM      7  C   UNL     1       3.081   6.058  19.678  0.00  0.00    +0.000 A 
ATOM      8  C   UNL     1       2.272   7.211  19.775  0.00  0.00    +0.000 A 
ATOM      9  S   UNL     1       1.311   7.804  21.088  0.00  0.00    +0.000 S 
ENDROOT
BRANCH   6  10
ATOM     10  S   UNL     1       4.912   4.475  18.294  0.00  0.00    +0.000 S 
ATOM     11  O   UNL     1       5.716   4.724  17.119  0.00  0.00    +0.000 OA
ATOM     12  O   UNL     1       5.524   4.228  19.582  0.00  0.00    +0.000 OA
BRANCH  10  13
ATOM     13  N   UNL     1       3.883   3.173  17.956  0.00  0.00    +0.000 NA
ATOM     14  C   UNL     1       2.662   3.365  17.135  0.00  0.00    +0.000 C 
ATOM     15  C   UNL     1       1.442   3.637  18.023  0.00  0.00    +0.000 C 
ATOM     16  O   UNL     1       1.269   2.617  19.016  0.00  0.00    +0.000 OA
ATOM     17  C   UNL     1       2.443   2.439  19.822  0.00  0.00    +0.000 C 
ATOM     18  C   UNL     1       3.671   2.116  18.971  0.00  0.00    +0.000 C 
ENDBRANCH  10  13
ENDBRANCH   6  10
BRANCH   1  19
ATOM     19  C   UNL     1       0.412  10.469  20.816  0.00  0.00    +0.000 C 
BRANCH  19  21
ATOM     20  N   UNL     1      -0.028  10.005  23.370  0.00  0.00    +0.000 NA
ATOM     21  C   UNL     1       0.167  10.211  22.244  0.00  0.00    +0.000 C 
ENDBRANCH  19  21
ENDBRANCH   1  19
TORSDOF 4
ENDMDL
MODEL 5
REMARK VINA RESULT:      -6.8      1.033      1.192
REMARK  Name = 
REMARK  4 active torsions:
REMARK  status: ('A' for Active; 'I' for Inactive)
REMARK    1  A    between atoms: C_2  and  C_3
REMARK    2  A    between atoms: C_3  and  C_4
REMARK    3  A    between atoms: C_9  and  S_10
REMARK    4  A    between atoms: S_10  and  N_13
REMARK                            x       y       z     vdW  Elec       q    Type
REMARK                         _______ _______ _______ _____ _____    ______ ____
ROOT
ATOM      1  C   UNL     1       0.450  10.141  20.659  0.00  0.00    +0.000 A 
ATOM      2  N   UNL     1       0.685  10.144  19.368  0.00  0.00    +0.000 NA
ATOM      3  C   UNL     1       1.464   9.059  19.042  0.00  0.00    +0.000 A 
ATOM      4  C   UNL     1       2.132   8.905  17.816  0.00  0.00    +0.000 A 
ATOM      5  C   UNL     1       2.967   7.809  17.618  0.00  0.00    +0.000 A 
ATOM      6  C   UNL     1       3.030   6.797  18.574  0.00  0.00    +0.000 A 
ATOM      7  C   UNL     1       2.392   6.930  19.823  0.00  0.00    +0.000 A 
ATOM      8  C   UNL     1       1.632   8.100  20.043  0.00  0.00    +0.000 A 
ATOM      9  S   UNL     1       0.820   8.664  21.464  0.00  0.00    +0.000 S 
ENDROOT
BRANCH   6  10
ATOM     10  S   UNL     1       4.032   5.357  18.208  0.00  0.00    +0.000 S 
ATOM     11  O   UNL     1       4.512   4.847  19.472  0.00  0.00    +0.000 OA
ATOM     12  O   UNL     1       3.251   4.528  17.315  0.00  0.00    +0.000 OA
BRANCH  10  13
ATOM     13  N   UNL     1       5.364   5.936  17.339  0.00  0.00    +0.000 NA
ATOM     14  C   UNL     1       5.541   5.593  15.906  0.00  0.00    +0.000 C 
ATOM     15  C   UNL     1       6.426   4.352  15.744  0.00  0.00    +0.000 C 
ATOM     16  O   UNL     1       7.680   4.501  16.421  0.00  0.00    +0.000 OA
ATOM     17  C   UNL     1       7.514   4.816  17.811  0.00  0.00    +0.000 C 
ATOM     18  C   UNL     1       6.677   6.081  18.008  0.00  0.00    +0.000 C 
ENDBRANCH  10  13
ENDBRANCH   6  10
BRANCH   1  19
ATOM     19  C   UNL     1      -0.017  11.361  21.384  0.00  0.00    +0.000 C 
BRANCH  19  21
ATOM     20  N   UNL     1       1.371  13.437  20.551  0.00  0.00    +0.000 NA
ATOM     21  C   UNL     1       0.757  12.522  20.917  0.00  0.00    +0.000 C 
ENDBRANCH  19  21
ENDBRANCH   1  19
TORSDOF 4
ENDMDL
MODEL 6
REMARK VINA RESULT:      -6.7      2.509      3.182
REMARK  Name = 
REMARK  4 active torsions:
REMARK  status: ('A' for Active; 'I' for Inactive)
REMARK    1  A    between atoms: C_2  and  C_3
REMARK    2  A    between atoms: C_3  and  C_4
REMARK    3  A    between atoms: C_9  and  S_10
REMARK    4  A    between atoms: S_10  and  N_13
REMARK                            x       y       z     vdW  Elec       q    Type
REMARK                         _______ _______ _______ _____ _____    ______ ____
ROOT
ATOM      1  C   UNL     1       0.312  11.086  19.940  0.00  0.00    +0.000 A 
ATOM      2  N   UNL     1       0.669  10.677  18.745  0.00  0.00    +0.000 NA
ATOM      3  C   UNL     1       1.308   9.464  18.849  0.00  0.00    +0.000 A 
ATOM      4  C   UNL     1       2.062   8.877  17.819  0.00  0.00    +0.000 A 
ATOM      5  C   UNL     1       2.742   7.686  18.055  0.00  0.00    +0.000 A 
ATOM      6  C   UNL     1       2.562   7.004  19.257  0.00  0.00    +0.000 A 
ATOM      7  C   UNL     1       1.831   7.575  20.319  0.00  0.00    +0.000 A 
ATOM      8  C   UNL     1       1.235   8.834  20.093  0.00  0.00    +0.000 A 
ATOM      9  S   UNL     1       0.380   9.884  21.172  0.00  0.00    +0.000 S 
ENDROOT
BRANCH   6  10
ATOM     10  S   UNL     1       3.371   5.418  19.453  0.00  0.00    +0.000 S 
ATOM     11  O   UNL     1       4.792   5.654  19.332  0.00  0.00    +0.000 OA
ATOM     12  O   UNL     1       2.812   4.813  20.643  0.00  0.00    +0.000 OA
BRANCH  10  13
ATOM     13  N   UNL     1       2.882   4.488  18.125  0.00  0.00    +0.000 NA
ATOM     14  C   UNL     1       1.462   4.089  17.962  0.00  0.00    +0.000 C 
ATOM     15  C   UNL     1       1.208   2.705  18.572  0.00  0.00    +0.000 C 
ATOM     16  O   UNL     1       2.108   1.720  18.050  0.00  0.00    +0.000 OA
ATOM     17  C   UNL     1       3.483   2.095  18.221  0.00  0.00    +0.000 C 
ATOM     18  C   UNL     1       3.784   3.449  17.578  0.00  0.00    +0.000 C 
ENDBRANCH  10  13
ENDBRANCH   6  10
BRANCH   1  19
ATOM     19  C   UNL     1      -0.039  12.511  20.220  0.00  0.00    +0.000 C 
BRANCH  19  21
ATOM     20  N   UNL     1       2.017  13.697  21.357  0.00  0.00    +0.000 NA
ATOM     21  C   UNL     1       1.112  13.172  20.856  0.00  0.00    +0.000 C 
ENDBRANCH  19  21
ENDBRANCH   1  19
TORSDOF 4
ENDMDL
MODEL 7
REMARK VINA RESULT:      -6.5      2.491      3.066
REMARK  Name = 
REMARK  4 active torsions:
REMARK  status: ('A' for Active; 'I' for Inactive)
REMARK    1  A    between atoms: C_2  and  C_3
REMARK    2  A    between atoms: C_3  and  C_4
REMARK    3  A    between atoms: C_9  and  S_10
REMARK    4  A    between atoms: S_10  and  N_13
REMARK                            x       y       z     vdW  Elec       q    Type
REMARK                         _______ _______ _______ _____ _____    ______ ____
ROOT
ATOM      1  C   UNL     1       0.278  10.900  20.584  0.00  0.00    +0.000 A 
ATOM      2  N   UNL     1       0.499  10.772  19.297  0.00  0.00    +0.000 NA
ATOM      3  C   UNL     1       1.204   9.614  19.067  0.00  0.00    +0.000 A 
ATOM      4  C   UNL     1       1.849   9.309  17.856  0.00  0.00    +0.000 A 
ATOM      5  C   UNL     1       2.611   8.148  17.754  0.00  0.00    +0.000 A 
ATOM      6  C   UNL     1       2.618   7.223  18.797  0.00  0.00    +0.000 A 
ATOM      7  C   UNL     1       2.001   7.508  20.032  0.00  0.00    +0.000 A 
ATOM      8  C   UNL     1       1.320   8.739  20.149  0.00  0.00    +0.000 A 
ATOM      9  S   UNL     1       0.559   9.479  21.517  0.00  0.00    +0.000 S 
ENDROOT
BRANCH   6  10
ATOM     10  S   UNL     1       3.522   5.695  18.557  0.00  0.00    +0.000 S 
ATOM     11  O   UNL     1       3.907   5.649  17.165  0.00  0.00    +0.000 OA
ATOM     12  O   UNL     1       4.512   5.632  19.611  0.00  0.00    +0.000 OA
BRANCH  10  13
ATOM     13  N   UNL     1       2.402   4.454  18.830  0.00  0.00    +0.000 NA
ATOM     14  C   UNL     1       2.376   3.729  20.125  0.00  0.00    +0.000 C 
ATOM     15  C   UNL     1       3.231   2.458  20.059  0.00  0.00    +0.000 C 
ATOM     16  O   UNL     1       2.851   1.617  18.963  0.00  0.00    +0.000 OA
ATOM     17  C   UNL     1       2.892   2.311  17.707  0.00  0.00    +0.000 C 
ATOM     18  C   UNL     1       2.007   3.558  17.720  0.00  0.00    +0.000 C 
ENDBRANCH  10  13
ENDBRANCH   6  10
BRANCH   1  19
ATOM     19  C   UNL     1      -0.104  12.207  21.199  0.00  0.00    +0.000 C 
BRANCH  19  21
ATOM     20  N   UNL     1      -1.424  11.749  23.430  0.00  0.00    +0.000 NA
ATOM     21  C   UNL     1      -0.841  11.952  22.448  0.00  0.00    +0.000 C 
ENDBRANCH  19  21
ENDBRANCH   1  19
TORSDOF 4
ENDMDL
MODEL 8
REMARK VINA RESULT:      -6.5      2.356      3.320
REMARK  Name = 
REMARK  4 active torsions:
REMARK  status: ('A' for Active; 'I' for Inactive)
REMARK    1  A    between atoms: C_2  and  C_3
REMARK    2  A    between atoms: C_3  and  C_4
REMARK    3  A    between atoms: C_9  and  S_10
REMARK    4  A    between atoms: S_10  and  N_13
REMARK                            x       y       z     vdW  Elec       q    Type
REMARK                         _______ _______ _______ _____ _____    ______ ____
ROOT
ATOM      1  C   UNL     1       1.033   9.281  20.071  0.00  0.00    +0.000 A 
ATOM      2  N   UNL     1       1.409   9.210  18.816  0.00  0.00    +0.000 NA
ATOM      3  C   UNL     1       2.222   8.116  18.643  0.00  0.00    +0.000 A 
ATOM      4  C   UNL     1       3.022   7.897  17.509  0.00  0.00    +0.000 A 
ATOM      5  C   UNL     1       3.877   6.799  17.469  0.00  0.00    +0.000 A 
ATOM      6  C   UNL     1       3.836   5.844  18.484  0.00  0.00    +0.000 A 
ATOM      7  C   UNL     1       3.063   6.045  19.645  0.00  0.00    +0.000 A 
ATOM      8  C   UNL     1       2.281   7.218  19.710  0.00  0.00    +0.000 A 
ATOM      9  S   UNL     1       1.314   7.856  20.998  0.00  0.00    +0.000 S 
ENDROOT
BRANCH   6  10
ATOM     10  S   UNL     1       4.876   4.395  18.317  0.00  0.00    +0.000 S 
ATOM     11  O   UNL     1       5.692   4.597  17.141  0.00  0.00    +0.000 OA
ATOM     12  O   UNL     1       5.476   4.165  19.614  0.00  0.00    +0.000 OA
BRANCH  10  13
ATOM     13  N   UNL     1       3.820   3.109  18.004  0.00  0.00    +0.000 NA
ATOM     14  C   UNL     1       2.596   3.314  17.191  0.00  0.00    +0.000 C 
ATOM     15  C   UNL     1       1.389   3.620  18.085  0.00  0.00    +0.000 C 
ATOM     16  O   UNL     1       1.204   2.618  19.092  0.00  0.00    +0.000 OA
ATOM     17  C   UNL     1       2.381   2.428  19.891  0.00  0.00    +0.000 C 
ATOM     18  C   UNL     1       3.596   2.069  19.035  0.00  0.00    +0.000 C 
ENDBRANCH  10  13
ENDBRANCH   6  10
BRANCH   1  19
ATOM     19  C   UNL     1       0.484  10.536  20.667  0.00  0.00    +0.000 C 
BRANCH  19  21
ATOM     20  N   UNL     1      -1.538  11.371  19.202  0.00  0.00    +0.000 NA
ATOM     21  C   UNL     1      -0.648  11.001  19.848  0.00  0.00    +0.000 C 
ENDBRANCH  19  21
ENDBRANCH   1  19
TORSDOF 4
ENDMDL
MODEL 9
REMARK VINA RESULT:      -6.5      2.696      3.923
REMARK  Name = 
REMARK  4 active torsions:
REMARK  status: ('A' for Active; 'I' for Inactive)
REMARK    1  A    between atoms: C_2  and  C_3
REMARK    2  A    between atoms: C_3  and  C_4
REMARK    3  A    between atoms: C_9  and  S_10
REMARK    4  A    between atoms: S_10  and  N_13
REMARK                            x       y       z     vdW  Elec       q    Type
REMARK                         _______ _______ _______ _____ _____    ______ ____
ROOT
ATOM      1  C   UNL     1       0.910   9.483  19.205  0.00  0.00    +0.000 A 
ATOM      2  N   UNL     1       1.152   8.711  20.238  0.00  0.00    +0.000 NA
ATOM      3  C   UNL     1       1.958   7.667  19.851  0.00  0.00    +0.000 A 
ATOM      4  C   UNL     1       2.180   6.512  20.620  0.00  0.00    +0.000 A 
ATOM      5  C   UNL     1       2.945   5.472  20.099  0.00  0.00    +0.000 A 
ATOM      6  C   UNL     1       3.605   5.632  18.881  0.00  0.00    +0.000 A 
ATOM      7  C   UNL     1       3.386   6.767  18.075  0.00  0.00    +0.000 A 
ATOM      8  C   UNL     1       2.523   7.765  18.578  0.00  0.00    +0.000 A 
ATOM      9  S   UNL     1       1.928   9.214  17.841  0.00  0.00    +0.000 S 
ENDROOT
BRANCH   6  10
ATOM     10  S   UNL     1       4.669   4.304  18.321  0.00  0.00    +0.000 S 
ATOM     11  O   UNL     1       5.383   4.797  17.166  0.00  0.00    +0.000 OA
ATOM     12  O   UNL     1       5.376   3.822  19.488  0.00  0.00    +0.000 OA
BRANCH  10  13
ATOM     13  N   UNL     1       3.628   3.072  17.805  0.00  0.00    +0.000 NA
ATOM     14  C   UNL     1       2.384   3.393  17.063  0.00  0.00    +0.000 C 
ATOM     15  C   UNL     1       1.191   3.512  18.019  0.00  0.00    +0.000 C 
ATOM     16  O   UNL     1       1.045   2.343  18.836  0.00  0.00    +0.000 OA
ATOM     17  C   UNL     1       2.242   2.039  19.568  0.00  0.00    +0.000 C 
ATOM     18  C   UNL     1       3.444   1.863  18.639  0.00  0.00    +0.000 C 
ENDBRANCH  10  13
ENDBRANCH   6  10
BRANCH   1  19
ATOM     19  C   UNL     1      -0.222  10.457  19.188  0.00  0.00    +0.000 C 
BRANCH  19  21
ATOM     20  N   UNL     1      -1.753   9.954  17.106  0.00  0.00    +0.000 NA
ATOM     21  C   UNL     1      -1.078  10.178  18.024  0.00  0.00    +0.000 C 
ENDBRANCH  19  21
ENDBRANCH   1  19
TORSDOF 4
ENDMDL
