MODEL 1
REMARK VINA RESULT:      -8.6      0.000      0.000
REMARK  Name = 
REMARK  10 active torsions:
REMARK  status: ('A' for Active; 'I' for Inactive)
REMARK    1  A    between atoms: C_1  and  O_2
REMARK    2  A    between atoms: O_2  and  C_3
REMARK    3  A    between atoms: C_3  and  C_4
REMARK    4  A    between atoms: C_4  and  N_5
REMARK    5  A    between atoms: N_5  and  C_6
REMARK    6  A    between atoms: C_6  and  C_7
REMARK    7  A    between atoms: C_11  and  C_12
REMARK    8  A    between atoms: C_16  and  N_17
REMARK    9  A    between atoms: N_17  and  C_18
REMARK   10  A    between atoms: C_20  and  O_21
REMARK                            x       y       z     vdW  Elec       q    Type
REMARK                         _______ _______ _______ _____ _____    ______ ____
ROOT
ATOM      1  C   UNL     1       2.501   7.720  18.464  0.00  0.00    +0.000 A 
ATOM      2  C   UNL     1       2.013   8.804  17.721  0.00  0.00    +0.000 A 
ATOM      3  C   UNL     1       1.170   9.750  18.298  0.00  0.00    +0.000 A 
ATOM      4  C   UNL     1       0.762   9.611  19.640  0.00  0.00    +0.000 A 
ATOM      5  C   UNL     1      -0.246  10.418  20.228  0.00  0.00    +0.000 A 
ATOM      6  C   UNL     1      -0.636  10.145  21.539  0.00  0.00    +0.000 A 
ATOM      7  C   UNL     1       0.095   9.230  22.265  0.00  0.00    +0.000 A 
ATOM      8  N   UNL     1       1.072   8.470  21.740  0.00  0.00    +0.000 NA
ATOM      9  C   UNL     1       1.346   8.611  20.432  0.00  0.00    +0.000 A 
ATOM     10  C   UNL     1       2.201   7.694  19.835  0.00  0.00    +0.000 A 
ENDROOT
BRANCH   1  15
ATOM     11  C   UNL     1       3.593   4.230  17.389  0.00  0.00    +0.000 A 
ATOM     12  C   UNL     1       4.747   4.519  16.656  0.00  0.00    +0.000 A 
ATOM     13  C   UNL     1       5.171   5.837  16.506  0.00  0.00    +0.000 A 
ATOM     14  C   UNL     1       4.436   6.883  17.079  0.00  0.00    +0.000 A 
ATOM     15  C   UNL     1       3.260   6.633  17.812  0.00  0.00    +0.000 A 
ATOM     16  C   UNL     1       2.863   5.295  17.950  0.00  0.00    +0.000 A 
BRANCH  11  17
ATOM     17  C   UNL     1       3.124   2.804  17.589  0.00  0.00    +0.000 C 
BRANCH  17  18
ATOM     18  N   UNL     1       1.672   2.772  17.750  0.00  0.00    +0.000 NA
ATOM     19  H   UNL     1       1.313   3.721  17.780  0.00  0.00    +0.000 HD
BRANCH  18  20
ATOM     20  C   UNL     1       1.284   2.073  18.976  0.00  0.00    +0.000 C 
BRANCH  20  21
ATOM     21  C   UNL     1       0.705   3.069  19.986  0.00  0.00    +0.000 C 
BRANCH  21  23
ATOM     22  C   UNL     1       2.238   3.979  21.514  0.00  0.00    +0.000 C 
ATOM     23  O   UNL     1       1.354   2.899  21.246  0.00  0.00    +0.000 OA
ENDBRANCH  21  23
ENDBRANCH  20  21
ENDBRANCH  18  20
ENDBRANCH  17  18
ENDBRANCH  11  17
ENDBRANCH   1  15
BRANCH   5  24
ATOM     24  N   UNL     1      -0.899  11.429  19.480  0.00  0.00    +0.000 N 
ATOM     25  H   UNL     1      -0.296  11.826  18.748  0.00  0.00    +0.000 HD
BRANCH  24  26
ATOM     26  C   UNL     1      -2.275  11.511  19.152  0.00  0.00    +0.000 A 
ATOM     27  C   UNL     1      -3.149  12.390  19.811  0.00  0.00    +0.000 A 
ATOM     28  C   UNL     1      -4.484  12.501  19.414  0.00  0.00    +0.000 A 
ATOM     29  C   UNL     1      -4.952  11.782  18.312  0.00  0.00    +0.000 A 
ATOM     30 CL   UNL     1      -6.574  11.953  17.753  0.00  0.00    +0.000 Cl
ATOM     31  C   UNL     1      -4.098  10.918  17.632  0.00  0.00    +0.000 A 
ATOM     32  C   UNL     1      -2.776  10.798  18.057  0.00  0.00    +0.000 A 
ATOM     33  F   UNL     1      -1.961   9.960  17.390  0.00  0.00    +0.000 F 
BRANCH  28  34
ATOM     34  O   UNL     1      -5.328  13.327  20.104  0.00  0.00    +0.000 OA
ATOM     35  H   UNL     1      -5.102  13.314  21.049  0.00  0.00    +0.000 HD
ENDBRANCH  28  34
ENDBRANCH  24  26
ENDBRANCH   5  24
TORSDOF 9
ENDMDL
MODEL 2
REMARK VINA RESULT:      -8.6      1.490      1.778
REMARK  Name = 
REMARK  10 active torsions:
REMARK  status: ('A' for Active; 'I' for Inactive)
REMARK    1  A    between atoms: C_1  and  O_2
REMARK    2  A    between atoms: O_2  and  C_3
REMARK    3  A    between atoms: C_3  and  C_4
REMARK    4  A    between atoms: C_4  and  N_5
REMARK    5  A    between atoms: N_5  and  C_6
REMARK    6  A    between atoms: C_6  and  C_7
REMARK    7  A    between atoms: C_11  and  C_12
REMARK    8  A    between atoms: C_16  and  N_17
REMARK    9  A    between atoms: N_17  and  C_18
REMARK   10  A    between atoms: C_20  and  O_21
REMARK                            x       y       z     vdW  Elec       q    Type
REMARK                         _______ _______ _______ _____ _____    ______ ____
ROOT
ATOM      1  C   UNL     1       2.609   7.528  18.371  0.00  0.00    +0.000 A 
ATOM      2  C   UNL     1       2.231   8.655  17.626  0.00  0.00    +0.000 A 
ATOM      3  C   UNL     1       1.444   9.657  18.187  0.00  0.00    +0.000 A 
ATOM      4  C   UNL     1       0.980   9.537  19.512  0.00  0.00    +0.000 A 
ATOM      5  C   UNL     1       0.018  10.412  20.076  0.00  0.00    +0.000 A 
ATOM      6  C   UNL     1      -0.437  10.157  21.369  0.00  0.00    +0.000 A 
ATOM      7  C   UNL     1       0.195   9.181  22.108  0.00  0.00    +0.000 A 
ATOM      8  N   UNL     1       1.129   8.354  21.606  0.00  0.00    +0.000 NA
ATOM      9  C   UNL     1       1.458   8.486  20.311  0.00  0.00    +0.000 A 
ATOM     10  C   UNL     1       2.260   7.512  19.731  0.00  0.00    +0.000 A 
ENDROOT
BRANCH   1  15
ATOM     11  C   UNL     1       3.572   3.963  17.425  0.00  0.00    +0.000 A 
ATOM     12  C   UNL     1       4.674   4.189  16.597  0.00  0.00    +0.000 A 
ATOM     13  C   UNL     1       5.105   5.489  16.342  0.00  0.00    +0.000 A 
ATOM     14  C   UNL     1       4.428   6.579  16.904  0.00  0.00    +0.000 A 
ATOM     15  C   UNL     1       3.303   6.393  17.731  0.00  0.00    +0.000 A 
ATOM     16  C   UNL     1       2.899   5.071  17.974  0.00  0.00    +0.000 A 
BRANCH  11  17
ATOM     17  C   UNL     1       3.098   2.560  17.739  0.00  0.00    +0.000 C 
BRANCH  17  18
ATOM     18  N   UNL     1       4.102   1.857  18.535  0.00  0.00    +0.000 NA
ATOM     19  H   UNL     1       3.780   0.915  18.731  0.00  0.00    +0.000 HD
BRANCH  18  20
ATOM     20  C   UNL     1       4.364   2.548  19.798  0.00  0.00    +0.000 C 
BRANCH  20  21
ATOM     21  C   UNL     1       3.204   2.316  20.772  0.00  0.00    +0.000 C 
BRANCH  21  23
ATOM     22  C   UNL     1       1.173   3.488  20.891  0.00  0.00    +0.000 C 
ATOM     23  O   UNL     1       2.580   3.564  21.073  0.00  0.00    +0.000 OA
ENDBRANCH  21  23
ENDBRANCH  20  21
ENDBRANCH  18  20
ENDBRANCH  17  18
ENDBRANCH  11  17
ENDBRANCH   1  15
BRANCH   5  24
ATOM     24  N   UNL     1      -0.529  11.479  19.319  0.00  0.00    +0.000 N 
ATOM     25  H   UNL     1       0.164  11.913  18.696  0.00  0.00    +0.000 HD
BRANCH  24  26
ATOM     26  C   UNL     1      -1.853  11.602  18.828  0.00  0.00    +0.000 A 
ATOM     27  C   UNL     1      -2.246  11.054  17.598  0.00  0.00    +0.000 A 
ATOM     28  C   UNL     1      -3.576  11.127  17.176  0.00  0.00    +0.000 A 
ATOM     29  C   UNL     1      -4.546  11.695  18.005  0.00  0.00    +0.000 A 
ATOM     30 CL   UNL     1      -6.208  11.735  17.545  0.00  0.00    +0.000 Cl
ATOM     31  C   UNL     1      -4.182  12.228  19.238  0.00  0.00    +0.000 A 
ATOM     32  C   UNL     1      -2.846  12.172  19.633  0.00  0.00    +0.000 A 
ATOM     33  F   UNL     1      -2.507  12.690  20.828  0.00  0.00    +0.000 F 
BRANCH  28  34
ATOM     34  O   UNL     1      -3.926  10.630  15.951  0.00  0.00    +0.000 OA
ATOM     35  H   UNL     1      -4.142  11.362  15.349  0.00  0.00    +0.000 HD
ENDBRANCH  28  34
ENDBRANCH  24  26
ENDBRANCH   5  24
TORSDOF 9
ENDMDL
MODEL 3
REMARK VINA RESULT:      -8.5      4.020      5.147
REMARK  Name = 
REMARK  10 active torsions:
REMARK  status: ('A' for Active; 'I' for Inactive)
REMARK    1  A    between atoms: C_1  and  O_2
REMARK    2  A    between atoms: O_2  and  C_3
REMARK    3  A    between atoms: C_3  and  C_4
REMARK    4  A    between atoms: C_4  and  N_5
REMARK    5  A    between atoms: N_5  and  C_6
REMARK    6  A    between atoms: C_6  and  C_7
REMARK    7  A    between atoms: C_11  and  C_12
REMARK    8  A    between atoms: C_16  and  N_17
REMARK    9  A    between atoms: N_17  and  C_18
REMARK   10  A    between atoms: C_20  and  O_21
REMARK                            x       y       z     vdW  Elec       q    Type
REMARK                         _______ _______ _______ _____ _____    ______ ____
ROOT
ATOM      1  C   UNL     1       2.335   6.980  18.588  0.00  0.00    +0.000 A 
ATOM      2  C   UNL     1       2.362   8.042  17.672  0.00  0.00    +0.000 A 
ATOM      3  C   UNL     1       1.885   9.303  18.019  0.00  0.00    +0.000 A 
ATOM      4  C   UNL     1       1.329   9.525  19.296  0.00  0.00    +0.000 A 
ATOM      5  C   UNL     1       0.647  10.718  19.644  0.00  0.00    +0.000 A 
ATOM      6  C   UNL     1       0.060  10.805  20.906  0.00  0.00    +0.000 A 
ATOM      7  C   UNL     1       0.321   9.810  21.822  0.00  0.00    +0.000 A 
ATOM      8  N   UNL     1       0.987   8.680  21.526  0.00  0.00    +0.000 NA
ATOM      9  C   UNL     1       1.417   8.513  20.264  0.00  0.00    +0.000 A 
ATOM     10  C   UNL     1       1.918   7.271  19.896  0.00  0.00    +0.000 A 
ENDROOT
BRANCH   1  15
ATOM     11  C   UNL     1       4.172   4.076  16.937  0.00  0.00    +0.000 A 
ATOM     12  C   UNL     1       3.340   3.004  17.269  0.00  0.00    +0.000 A 
ATOM     13  C   UNL     1       2.190   3.216  18.025  0.00  0.00    +0.000 A 
ATOM     14  C   UNL     1       1.866   4.505  18.470  0.00  0.00    +0.000 A 
ATOM     15  C   UNL     1       2.688   5.608  18.169  0.00  0.00    +0.000 A 
ATOM     16  C   UNL     1       3.835   5.363  17.400  0.00  0.00    +0.000 A 
BRANCH  11  17
ATOM     17  C   UNL     1       5.414   3.878  16.095  0.00  0.00    +0.000 C 
BRANCH  17  18
ATOM     18  N   UNL     1       6.610   4.076  16.911  0.00  0.00    +0.000 NA
ATOM     19  H   UNL     1       6.344   4.166  17.886  0.00  0.00    +0.000 HD
BRANCH  18  20
ATOM     20  C   UNL     1       7.346   5.272  16.501  0.00  0.00    +0.000 C 
BRANCH  20  21
ATOM     21  C   UNL     1       7.323   6.313  17.626  0.00  0.00    +0.000 C 
BRANCH  21  23
ATOM     22  C   UNL     1       7.927   8.579  17.731  0.00  0.00    +0.000 C 
ATOM     23  O   UNL     1       7.126   7.611  17.066  0.00  0.00    +0.000 OA
ENDBRANCH  21  23
ENDBRANCH  20  21
ENDBRANCH  18  20
ENDBRANCH  17  18
ENDBRANCH  11  17
ENDBRANCH   1  15
BRANCH   5  24
ATOM     24  N   UNL     1       0.495  11.771  18.708  0.00  0.00    +0.000 N 
ATOM     25  H   UNL     1      -0.480  11.885  18.401  0.00  0.00    +0.000 HD
BRANCH  24  26
ATOM     26  C   UNL     1       1.230  12.981  18.639  0.00  0.00    +0.000 A 
ATOM     27  C   UNL     1       2.565  13.020  18.209  0.00  0.00    +0.000 A 
ATOM     28  C   UNL     1       3.239  14.237  18.081  0.00  0.00    +0.000 A 
ATOM     29  C   UNL     1       2.569  15.440  18.319  0.00  0.00    +0.000 A 
ATOM     30 CL   UNL     1       3.351  16.961  18.099  0.00  0.00    +0.000 Cl
ATOM     31  C   UNL     1       1.238  15.426  18.728  0.00  0.00    +0.000 A 
ATOM     32  C   UNL     1       0.589  14.202  18.878  0.00  0.00    +0.000 A 
ATOM     33  F   UNL     1      -0.698  14.202  19.273  0.00  0.00    +0.000 F 
BRANCH  28  34
ATOM     34  O   UNL     1       4.555  14.247  17.709  0.00  0.00    +0.000 OA
ATOM     35  H   UNL     1       4.728  15.007  17.130  0.00  0.00    +0.000 HD
ENDBRANCH  28  34
ENDBRANCH  24  26
ENDBRANCH   5  24
TORSDOF 9
ENDMDL
MODEL 4
REMARK VINA RESULT:      -8.3      2.600      3.727
REMARK  Name = 
REMARK  10 active torsions:
REMARK  status: ('A' for Active; 'I' for Inactive)
REMARK    1  A    between atoms: C_1  and  O_2
REMARK    2  A    between atoms: O_2  and  C_3
REMARK    3  A    between atoms: C_3  and  C_4
REMARK    4  A    between atoms: C_4  and  N_5
REMARK    5  A    between atoms: N_5  and  C_6
REMARK    6  A    between atoms: C_6  and  C_7
REMARK    7  A    between atoms: C_11  and  C_12
REMARK    8  A    between atoms: C_16  and  N_17
REMARK    9  A    between atoms: N_17  and  C_18
REMARK   10  A    between atoms: C_20  and  O_21
REMARK                            x       y       z     vdW  Elec       q    Type
REMARK                         _______ _______ _______ _____ _____    ______ ____
ROOT
ATOM      1  C   UNL     1       2.202   7.072  18.633  0.00  0.00    +0.000 A 
ATOM      2  C   UNL     1       1.846   8.111  17.761  0.00  0.00    +0.000 A 
ATOM      3  C   UNL     1       1.278   9.289  18.241  0.00  0.00    +0.000 A 
ATOM      4  C   UNL     1       1.015   9.440  19.617  0.00  0.00    +0.000 A 
ATOM      5  C   UNL     1       0.261  10.518  20.145  0.00  0.00    +0.000 A 
ATOM      6  C   UNL     1      -0.015  10.532  21.512  0.00  0.00    +0.000 A 
ATOM      7  C   UNL     1       0.607   9.603  22.317  0.00  0.00    +0.000 A 
ATOM      8  N   UNL     1       1.349   8.585  21.846  0.00  0.00    +0.000 NA
ATOM      9  C   UNL     1       1.486   8.469  20.514  0.00  0.00    +0.000 A 
ATOM     10  C   UNL     1       2.069   7.314  20.009  0.00  0.00    +0.000 A 
ENDROOT
BRANCH   1  15
ATOM     11  C   UNL     1       4.377   4.394  17.011  0.00  0.00    +0.000 A 
ATOM     12  C   UNL     1       3.510   3.299  17.015  0.00  0.00    +0.000 A 
ATOM     13  C   UNL     1       2.227   3.423  17.542  0.00  0.00    +0.000 A 
ATOM     14  C   UNL     1       1.801   4.643  18.083  0.00  0.00    +0.000 A 
ATOM     15  C   UNL     1       2.652   5.765  18.111  0.00  0.00    +0.000 A 
ATOM     16  C   UNL     1       3.935   5.610  17.567  0.00  0.00    +0.000 A 
BRANCH  11  17
ATOM     17  C   UNL     1       5.768   4.295  16.423  0.00  0.00    +0.000 C 
BRANCH  17  18
ATOM     18  N   UNL     1       6.742   4.899  17.330  0.00  0.00    +0.000 NA
ATOM     19  H   UNL     1       6.290   5.125  18.210  0.00  0.00    +0.000 HD
BRANCH  18  20
ATOM     20  C   UNL     1       7.321   6.116  16.760  0.00  0.00    +0.000 C 
BRANCH  20  21
ATOM     21  C   UNL     1       7.557   7.150  17.866  0.00  0.00    +0.000 C 
BRANCH  21  23
ATOM     22  C   UNL     1       8.401   9.319  18.179  0.00  0.00    +0.000 C 
ATOM     23  O   UNL     1       7.741   8.439  17.279  0.00  0.00    +0.000 OA
ENDBRANCH  21  23
ENDBRANCH  20  21
ENDBRANCH  18  20
ENDBRANCH  17  18
ENDBRANCH  11  17
ENDBRANCH   1  15
BRANCH   5  24
ATOM     24  N   UNL     1      -0.270  11.522  19.296  0.00  0.00    +0.000 N 
ATOM     25  H   UNL     1       0.432  11.892  18.641  0.00  0.00    +0.000 HD
BRANCH  24  26
ATOM     26  C   UNL     1      -1.590  11.618  18.788  0.00  0.00    +0.000 A 
ATOM     27  C   UNL     1      -1.961  11.046  17.562  0.00  0.00    +0.000 A 
ATOM     28  C   UNL     1      -3.287  11.093  17.124  0.00  0.00    +0.000 A 
ATOM     29  C   UNL     1      -4.275  11.658  17.934  0.00  0.00    +0.000 A 
ATOM     30 CL   UNL     1      -5.932  11.666  17.455  0.00  0.00    +0.000 Cl
ATOM     31  C   UNL     1      -3.932  12.215  19.163  0.00  0.00    +0.000 A 
ATOM     32  C   UNL     1      -2.600  12.184  19.573  0.00  0.00    +0.000 A 
ATOM     33  F   UNL     1      -2.283  12.725  20.765  0.00  0.00    +0.000 F 
BRANCH  28  34
ATOM     34  O   UNL     1      -3.615  10.573  15.902  0.00  0.00    +0.000 OA
ATOM     35  H   UNL     1      -2.860  10.080  15.541  0.00  0.00    +0.000 HD
ENDBRANCH  28  34
ENDBRANCH  24  26
ENDBRANCH   5  24
TORSDOF 9
ENDMDL
MODEL 5
REMARK VINA RESULT:      -8.2      3.862      9.566
REMARK  Name = 
REMARK  10 active torsions:
REMARK  status: ('A' for Active; 'I' for Inactive)
REMARK    1  A    between atoms: C_1  and  O_2
REMARK    2  A    between atoms: O_2  and  C_3
REMARK    3  A    between atoms: C_3  and  C_4
REMARK    4  A    between atoms: C_4  and  N_5
REMARK    5  A    between atoms: N_5  and  C_6
REMARK    6  A    between atoms: C_6  and  C_7
REMARK    7  A    between atoms: C_11  and  C_12
REMARK    8  A    between atoms: C_16  and  N_17
REMARK    9  A    between atoms: N_17  and  C_18
REMARK   10  A    between atoms: C_20  and  O_21
REMARK                            x       y       z     vdW  Elec       q    Type
REMARK                         _______ _______ _______ _____ _____    ______ ____
ROOT
ATOM      1  C   UNL     1      -0.405  10.863  21.468  0.00  0.00    +0.000 A 
ATOM      2  C   UNL     1       0.018   9.793  22.269  0.00  0.00    +0.000 A 
ATOM      3  C   UNL     1       0.857   8.804  21.763  0.00  0.00    +0.000 A 
ATOM      4  C   UNL     1       1.268   8.844  20.415  0.00  0.00    +0.000 A 
ATOM      5  C   UNL     1       1.950   7.773  19.785  0.00  0.00    +0.000 A 
ATOM      6  C   UNL     1       2.238   7.876  18.424  0.00  0.00    +0.000 A 
ATOM      7  C   UNL     1       2.014   9.082  17.795  0.00  0.00    +0.000 A 
ATOM      8  N   UNL     1       1.393  10.122  18.377  0.00  0.00    +0.000 NA
ATOM      9  C   UNL     1       0.964   9.974  19.641  0.00  0.00    +0.000 A 
ATOM     10  C   UNL     1       0.143  10.956  20.179  0.00  0.00    +0.000 A 
ENDROOT
BRANCH   1  15
ATOM     11  C   UNL     1      -3.590  12.950  21.661  0.00  0.00    +0.000 A 
ATOM     12  C   UNL     1      -3.345  13.716  22.804  0.00  0.00    +0.000 A 
ATOM     13  C   UNL     1      -2.157  13.558  23.512  0.00  0.00    +0.000 A 
ATOM     14  C   UNL     1      -1.204  12.621  23.091  0.00  0.00    +0.000 A 
ATOM     15  C   UNL     1      -1.421  11.820  21.954  0.00  0.00    +0.000 A 
ATOM     16  C   UNL     1      -2.625  12.008  21.258  0.00  0.00    +0.000 A 
BRANCH  11  17
ATOM     17  C   UNL     1      -4.862  13.119  20.858  0.00  0.00    +0.000 C 
BRANCH  17  18
ATOM     18  N   UNL     1      -5.883  12.187  21.333  0.00  0.00    +0.000 NA
ATOM     19  H   UNL     1      -5.444  11.455  21.882  0.00  0.00    +0.000 HD
BRANCH  18  20
ATOM     20  C   UNL     1      -6.615  11.581  20.220  0.00  0.00    +0.000 C 
BRANCH  20  21
ATOM     21  C   UNL     1      -7.656  10.593  20.755  0.00  0.00    +0.000 C 
BRANCH  21  23
ATOM     22  C   UNL     1      -7.915   8.313  21.255  0.00  0.00    +0.000 C 
ATOM     23  O   UNL     1      -7.260   9.261  20.424  0.00  0.00    +0.000 OA
ENDBRANCH  21  23
ENDBRANCH  20  21
ENDBRANCH  18  20
ENDBRANCH  17  18
ENDBRANCH  11  17
ENDBRANCH   1  15
BRANCH   5  24
ATOM     24  N   UNL     1       2.266   6.589  20.497  0.00  0.00    +0.000 N 
ATOM     25  H   UNL     1       1.729   6.502  21.370  0.00  0.00    +0.000 HD
BRANCH  24  26
ATOM     26  C   UNL     1       2.638   5.330  19.963  0.00  0.00    +0.000 A 
ATOM     27  C   UNL     1       3.956   5.046  19.572  0.00  0.00    +0.000 A 
ATOM     28  C   UNL     1       4.307   3.772  19.119  0.00  0.00    +0.000 A 
ATOM     29  C   UNL     1       3.362   2.744  19.108  0.00  0.00    +0.000 A 
ATOM     30 CL   UNL     1       3.782   1.143  18.624  0.00  0.00    +0.000 Cl
ATOM     31  C   UNL     1       2.053   2.999  19.509  0.00  0.00    +0.000 A 
ATOM     32  C   UNL     1       1.712   4.282  19.932  0.00  0.00    +0.000 A 
ATOM     33  F   UNL     1       0.444   4.515  20.319  0.00  0.00    +0.000 F 
BRANCH  28  34
ATOM     34  O   UNL     1       5.586   3.532  18.696  0.00  0.00    +0.000 OA
ATOM     35  H   UNL     1       5.734   3.961  17.836  0.00  0.00    +0.000 HD
ENDBRANCH  28  34
ENDBRANCH  24  26
ENDBRANCH   5  24
TORSDOF 9
ENDMDL
MODEL 6
REMARK VINA RESULT:      -8.2      2.766      3.936
REMARK  Name = 
REMARK  10 active torsions:
REMARK  status: ('A' for Active; 'I' for Inactive)
REMARK    1  A    between atoms: C_1  and  O_2
REMARK    2  A    between atoms: O_2  and  C_3
REMARK    3  A    between atoms: C_3  and  C_4
REMARK    4  A    between atoms: C_4  and  N_5
REMARK    5  A    between atoms: N_5  and  C_6
REMARK    6  A    between atoms: C_6  and  C_7
REMARK    7  A    between atoms: C_11  and  C_12
REMARK    8  A    between atoms: C_16  and  N_17
REMARK    9  A    between atoms: N_17  and  C_18
REMARK   10  A    between atoms: C_20  and  O_21
REMARK                            x       y       z     vdW  Elec       q    Type
REMARK                         _______ _______ _______ _____ _____    ______ ____
ROOT
ATOM      1  C   UNL     1       2.195   7.380  18.743  0.00  0.00    +0.000 A 
ATOM      2  C   UNL     1       1.820   8.427  17.889  0.00  0.00    +0.000 A 
ATOM      3  C   UNL     1       1.162   9.553  18.378  0.00  0.00    +0.000 A 
ATOM      4  C   UNL     1       0.828   9.642  19.744  0.00  0.00    +0.000 A 
ATOM      5  C   UNL     1      -0.012  10.657  20.269  0.00  0.00    +0.000 A 
ATOM      6  C   UNL     1      -0.350  10.608  21.621  0.00  0.00    +0.000 A 
ATOM      7  C   UNL     1       0.288   9.689  22.425  0.00  0.00    +0.000 A 
ATOM      8  N   UNL     1       1.109   8.732  21.958  0.00  0.00    +0.000 NA
ATOM      9  C   UNL     1       1.313   8.669  20.631  0.00  0.00    +0.000 A 
ATOM     10  C   UNL     1       1.986   7.568  20.119  0.00  0.00    +0.000 A 
ENDROOT
BRANCH   1  15
ATOM     11  C   UNL     1       4.586   4.895  17.119  0.00  0.00    +0.000 A 
ATOM     12  C   UNL     1       3.793   3.745  17.071  0.00  0.00    +0.000 A 
ATOM     13  C   UNL     1       2.490   3.771  17.564  0.00  0.00    +0.000 A 
ATOM     14  C   UNL     1       1.971   4.946  18.122  0.00  0.00    +0.000 A 
ATOM     15  C   UNL     1       2.744   6.120  18.203  0.00  0.00    +0.000 A 
ATOM     16  C   UNL     1       4.049   6.064  17.691  0.00  0.00    +0.000 A 
BRANCH  11  17
ATOM     17  C   UNL     1       5.995   4.902  16.568  0.00  0.00    +0.000 C 
BRANCH  17  18
ATOM     18  N   UNL     1       6.152   3.843  15.573  0.00  0.00    +0.000 NA
ATOM     19  H   UNL     1       7.110   3.508  15.582  0.00  0.00    +0.000 HD
BRANCH  18  20
ATOM     20  C   UNL     1       5.821   4.317  14.229  0.00  0.00    +0.000 C 
BRANCH  20  21
ATOM     21  C   UNL     1       7.105   4.570  13.433  0.00  0.00    +0.000 C 
BRANCH  21  23
ATOM     22  C   UNL     1       5.936   3.057  12.070  0.00  0.00    +0.000 C 
ATOM     23  O   UNL     1       6.956   4.046  12.113  0.00  0.00    +0.000 OA
ENDBRANCH  21  23
ENDBRANCH  20  21
ENDBRANCH  18  20
ENDBRANCH  17  18
ENDBRANCH  11  17
ENDBRANCH   1  15
BRANCH   5  24
ATOM     24  N   UNL     1      -0.561  11.657  19.428  0.00  0.00    +0.000 N 
ATOM     25  H   UNL     1       0.132  12.042  18.773  0.00  0.00    +0.000 HD
BRANCH  24  26
ATOM     26  C   UNL     1      -1.884  11.735  18.925  0.00  0.00    +0.000 A 
ATOM     27  C   UNL     1      -2.252  11.155  17.701  0.00  0.00    +0.000 A 
ATOM     28  C   UNL     1      -3.580  11.184  17.268  0.00  0.00    +0.000 A 
ATOM     29  C   UNL     1      -4.572  11.738  18.080  0.00  0.00    +0.000 A 
ATOM     30 CL   UNL     1      -6.231  11.723  17.607  0.00  0.00    +0.000 Cl
ATOM     31  C   UNL     1      -4.232  12.302  19.306  0.00  0.00    +0.000 A 
ATOM     32  C   UNL     1      -2.899  12.290  19.711  0.00  0.00    +0.000 A 
ATOM     33  F   UNL     1      -2.584  12.837  20.901  0.00  0.00    +0.000 F 
BRANCH  28  34
ATOM     34  O   UNL     1      -3.906  10.657  16.048  0.00  0.00    +0.000 OA
ATOM     35  H   UNL     1      -4.780  10.236  16.095  0.00  0.00    +0.000 HD
ENDBRANCH  28  34
ENDBRANCH  24  26
ENDBRANCH   5  24
TORSDOF 9
ENDMDL
MODEL 7
REMARK VINA RESULT:      -8.2      2.542      3.644
REMARK  Name = 
REMARK  10 active torsions:
REMARK  status: ('A' for Active; 'I' for Inactive)
REMARK    1  A    between atoms: C_1  and  O_2
REMARK    2  A    between atoms: O_2  and  C_3
REMARK    3  A    between atoms: C_3  and  C_4
REMARK    4  A    between atoms: C_4  and  N_5
REMARK    5  A    between atoms: N_5  and  C_6
REMARK    6  A    between atoms: C_6  and  C_7
REMARK    7  A    between atoms: C_11  and  C_12
REMARK    8  A    between atoms: C_16  and  N_17
REMARK    9  A    between atoms: N_17  and  C_18
REMARK   10  A    between atoms: C_20  and  O_21
REMARK                            x       y       z     vdW  Elec       q    Type
REMARK                         _______ _______ _______ _____ _____    ______ ____
ROOT
ATOM      1  C   UNL     1       2.461   7.206  18.571  0.00  0.00    +0.000 A 
ATOM      2  C   UNL     1       2.013   8.229  17.723  0.00  0.00    +0.000 A 
ATOM      3  C   UNL     1       1.267   9.297  18.216  0.00  0.00    +0.000 A 
ATOM      4  C   UNL     1       0.916   9.347  19.580  0.00  0.00    +0.000 A 
ATOM      5  C   UNL     1      -0.003  10.289  20.107  0.00  0.00    +0.000 A 
ATOM      6  C   UNL     1      -0.347  10.202  21.456  0.00  0.00    +0.000 A 
ATOM      7  C   UNL     1       0.354   9.326  22.257  0.00  0.00    +0.000 A 
ATOM      8  N   UNL     1       1.249   8.440  21.788  0.00  0.00    +0.000 NA
ATOM      9  C   UNL     1       1.468   8.406  20.463  0.00  0.00    +0.000 A 
ATOM     10  C   UNL     1       2.227   7.364  19.946  0.00  0.00    +0.000 A 
ENDROOT
BRANCH   1  15
ATOM     11  C   UNL     1       5.076   4.911  17.012  0.00  0.00    +0.000 A 
ATOM     12  C   UNL     1       4.352   3.723  16.881  0.00  0.00    +0.000 A 
ATOM     13  C   UNL     1       3.024   3.662  17.296  0.00  0.00    +0.000 A 
ATOM     14  C   UNL     1       2.409   4.787  17.860  0.00  0.00    +0.000 A 
ATOM     15  C   UNL     1       3.110   5.997  18.024  0.00  0.00    +0.000 A 
ATOM     16  C   UNL     1       4.443   6.029  17.589  0.00  0.00    +0.000 A 
BRANCH  11  17
ATOM     17  C   UNL     1       6.512   5.014  16.546  0.00  0.00    +0.000 C 
BRANCH  17  18
ATOM     18  N   UNL     1       7.314   5.724  17.540  0.00  0.00    +0.000 NA
ATOM     19  H   UNL     1       6.841   5.696  18.438  0.00  0.00    +0.000 HD
BRANCH  18  20
ATOM     20  C   UNL     1       7.533   7.118  17.155  0.00  0.00    +0.000 C 
BRANCH  20  21
ATOM     21  C   UNL     1       8.185   7.884  18.311  0.00  0.00    +0.000 C 
BRANCH  21  23
ATOM     22  C   UNL     1       9.054   9.983  18.906  0.00  0.00    +0.000 C 
ATOM     23  O   UNL     1       8.222   9.276  17.997  0.00  0.00    +0.000 OA
ENDBRANCH  21  23
ENDBRANCH  20  21
ENDBRANCH  18  20
ENDBRANCH  17  18
ENDBRANCH  11  17
ENDBRANCH   1  15
BRANCH   5  24
ATOM     24  N   UNL     1      -0.621  11.252  19.270  0.00  0.00    +0.000 N 
ATOM     25  H   UNL     1      -0.005  11.560  18.506  0.00  0.00    +0.000 HD
BRANCH  24  26
ATOM     26  C   UNL     1      -1.994  11.353  18.933  0.00  0.00    +0.000 A 
ATOM     27  C   UNL     1      -2.838  12.306  19.523  0.00  0.00    +0.000 A 
ATOM     28  C   UNL     1      -4.169  12.431  19.116  0.00  0.00    +0.000 A 
ATOM     29  C   UNL     1      -4.660  11.647  18.069  0.00  0.00    +0.000 A 
ATOM     30 CL   UNL     1      -6.276  11.828  17.494  0.00  0.00    +0.000 Cl
ATOM     31  C   UNL     1      -3.834  10.708  17.457  0.00  0.00    +0.000 A 
ATOM     32  C   UNL     1      -2.517  10.577  17.893  0.00  0.00    +0.000 A 
ATOM     33  F   UNL     1      -1.729   9.666  17.292  0.00  0.00    +0.000 F 
BRANCH  28  34
ATOM     34  O   UNL     1      -4.987  13.332  19.740  0.00  0.00    +0.000 OA
ATOM     35  H   UNL     1      -5.751  13.529  19.175  0.00  0.00    +0.000 HD
ENDBRANCH  28  34
ENDBRANCH  24  26
ENDBRANCH   5  24
TORSDOF 9
ENDMDL
MODEL 8
REMARK VINA RESULT:      -8.2      3.277      3.767
REMARK  Name = 
REMARK  10 active torsions:
REMARK  status: ('A' for Active; 'I' for Inactive)
REMARK    1  A    between atoms: C_1  and  O_2
REMARK    2  A    between atoms: O_2  and  C_3
REMARK    3  A    between atoms: C_3  and  C_4
REMARK    4  A    between atoms: C_4  and  N_5
REMARK    5  A    between atoms: N_5  and  C_6
REMARK    6  A    between atoms: C_6  and  C_7
REMARK    7  A    between atoms: C_11  and  C_12
REMARK    8  A    between atoms: C_16  and  N_17
REMARK    9  A    between atoms: N_17  and  C_18
REMARK   10  A    between atoms: C_20  and  O_21
REMARK                            x       y       z     vdW  Elec       q    Type
REMARK                         _______ _______ _______ _____ _____    ______ ____
ROOT
ATOM      1  C   UNL     1       2.841   7.198  18.359  0.00  0.00    +0.000 A 
ATOM      2  C   UNL     1       2.770   8.337  17.544  0.00  0.00    +0.000 A 
ATOM      3  C   UNL     1       2.031   9.452  17.929  0.00  0.00    +0.000 A 
ATOM      4  C   UNL     1       1.306   9.440  19.138  0.00  0.00    +0.000 A 
ATOM      5  C   UNL     1       0.379  10.452  19.493  0.00  0.00    +0.000 A 
ATOM      6  C   UNL     1      -0.350  10.304  20.673  0.00  0.00    +0.000 A 
ATOM      7  C   UNL     1      -0.009   9.281  21.531  0.00  0.00    +0.000 A 
ATOM      8  N   UNL     1       0.884   8.322  21.231  0.00  0.00    +0.000 NA
ATOM      9  C   UNL     1       1.474   8.365  20.025  0.00  0.00    +0.000 A 
ATOM     10  C   UNL     1       2.236   7.275  19.623  0.00  0.00    +0.000 A 
ENDROOT
BRANCH   1  15
ATOM     11  C   UNL     1       3.366   3.550  17.385  0.00  0.00    +0.000 A 
ATOM     12  C   UNL     1       4.724   3.549  17.056  0.00  0.00    +0.000 A 
ATOM     13  C   UNL     1       5.468   4.722  17.145  0.00  0.00    +0.000 A 
ATOM     14  C   UNL     1       4.858   5.915  17.554  0.00  0.00    +0.000 A 
ATOM     15  C   UNL     1       3.489   5.960  17.879  0.00  0.00    +0.000 A 
ATOM     16  C   UNL     1       2.768   4.760  17.786  0.00  0.00    +0.000 A 
BRANCH  11  17
ATOM     17  C   UNL     1       2.539   2.284  17.321  0.00  0.00    +0.000 C 
BRANCH  17  18
ATOM     18  N   UNL     1       2.178   1.851  18.669  0.00  0.00    +0.000 NA
ATOM     19  H   UNL     1       2.352   0.855  18.763  0.00  0.00    +0.000 HD
BRANCH  18  20
ATOM     20  C   UNL     1       0.770   2.123  18.961  0.00  0.00    +0.000 C 
BRANCH  20  21
ATOM     21  C   UNL     1       0.659   3.143  20.100  0.00  0.00    +0.000 C 
BRANCH  21  23
ATOM     22  C   UNL     1       2.283   3.657  21.716  0.00  0.00    +0.000 C 
ATOM     23  O   UNL     1       1.385   2.667  21.234  0.00  0.00    +0.000 OA
ENDBRANCH  21  23
ENDBRANCH  20  21
ENDBRANCH  18  20
ENDBRANCH  17  18
ENDBRANCH  11  17
ENDBRANCH   1  15
BRANCH   5  24
ATOM     24  N   UNL     1       0.136  11.553  18.634  0.00  0.00    +0.000 N 
ATOM     25  H   UNL     1      -0.843  11.600  18.325  0.00  0.00    +0.000 HD
BRANCH  24  26
ATOM     26  C   UNL     1       0.758  12.826  18.662  0.00  0.00    +0.000 A 
ATOM     27  C   UNL     1       2.064  13.030  18.192  0.00  0.00    +0.000 A 
ATOM     28  C   UNL     1       2.622  14.310  18.164  0.00  0.00    +0.000 A 
ATOM     29  C   UNL     1       1.861  15.417  18.545  0.00  0.00    +0.000 A 
ATOM     30 CL   UNL     1       2.495  17.018  18.452  0.00  0.00    +0.000 Cl
ATOM     31  C   UNL     1       0.555  15.241  18.997  0.00  0.00    +0.000 A 
ATOM     32  C   UNL     1       0.023  13.954  19.045  0.00  0.00    +0.000 A 
ATOM     33  F   UNL     1      -1.241  13.798  19.482  0.00  0.00    +0.000 F 
BRANCH  28  34
ATOM     34  O   UNL     1       3.915  14.476  17.750  0.00  0.00    +0.000 OA
ATOM     35  H   UNL     1       4.036  15.374  17.399  0.00  0.00    +0.000 HD
ENDBRANCH  28  34
ENDBRANCH  24  26
ENDBRANCH   5  24
TORSDOF 9
ENDMDL
MODEL 9
REMARK VINA RESULT:      -8.2      1.906      2.862
REMARK  Name = 
REMARK  10 active torsions:
REMARK  status: ('A' for Active; 'I' for Inactive)
REMARK    1  A    between atoms: C_1  and  O_2
REMARK    2  A    between atoms: O_2  and  C_3
REMARK    3  A    between atoms: C_3  and  C_4
REMARK    4  A    between atoms: C_4  and  N_5
REMARK    5  A    between atoms: N_5  and  C_6
REMARK    6  A    between atoms: C_6  and  C_7
REMARK    7  A    between atoms: C_11  and  C_12
REMARK    8  A    between atoms: C_16  and  N_17
REMARK    9  A    between atoms: N_17  and  C_18
REMARK   10  A    between atoms: C_20  and  O_21
REMARK                            x       y       z     vdW  Elec       q    Type
REMARK                         _______ _______ _______ _____ _____    ______ ____
ROOT
ATOM      1  C   UNL     1       2.472   7.462  18.480  0.00  0.00    +0.000 A 
ATOM      2  C   UNL     1       2.008   8.533  17.702  0.00  0.00    +0.000 A 
ATOM      3  C   UNL     1       1.235   9.546  18.263  0.00  0.00    +0.000 A 
ATOM      4  C   UNL     1       0.872   9.492  19.624  0.00  0.00    +0.000 A 
ATOM      5  C   UNL     1      -0.071  10.374  20.207  0.00  0.00    +0.000 A 
ATOM      6  C   UNL     1      -0.424  10.184  21.543  0.00  0.00    +0.000 A 
ATOM      7  C   UNL     1       0.290   9.270  22.287  0.00  0.00    +0.000 A 
ATOM      8  N   UNL     1       1.208   8.438  21.765  0.00  0.00    +0.000 NA
ATOM      9  C   UNL     1       1.438   8.503  20.443  0.00  0.00    +0.000 A 
ATOM     10  C   UNL     1       2.224   7.516  19.861  0.00  0.00    +0.000 A 
ENDROOT
BRANCH   1  15
ATOM     11  C   UNL     1       4.749   5.420  16.204  0.00  0.00    +0.000 A 
ATOM     12  C   UNL     1       4.401   4.117  16.569  0.00  0.00    +0.000 A 
ATOM     13  C   UNL     1       3.437   3.897  17.549  0.00  0.00    +0.000 A 
ATOM     14  C   UNL     1       2.817   4.981  18.184  0.00  0.00    +0.000 A 
ATOM     15  C   UNL     1       3.151   6.308  17.855  0.00  0.00    +0.000 A 
ATOM     16  C   UNL     1       4.122   6.497  16.860  0.00  0.00    +0.000 A 
BRANCH  11  17
ATOM     17  C   UNL     1       5.776   5.688  15.125  0.00  0.00    +0.000 C 
BRANCH  17  18
ATOM     18  N   UNL     1       7.106   5.298  15.589  0.00  0.00    +0.000 NA
ATOM     19  H   UNL     1       7.185   4.286  15.577  0.00  0.00    +0.000 HD
BRANCH  18  20
ATOM     20  C   UNL     1       7.364   5.786  16.944  0.00  0.00    +0.000 C 
BRANCH  20  21
ATOM     21  C   UNL     1       7.841   4.632  17.833  0.00  0.00    +0.000 C 
BRANCH  21  23
ATOM     22  C   UNL     1       6.429   5.505  19.494  0.00  0.00    +0.000 C 
ATOM     23  O   UNL     1       6.835   4.332  18.801  0.00  0.00    +0.000 OA
ENDBRANCH  21  23
ENDBRANCH  20  21
ENDBRANCH  18  20
ENDBRANCH  17  18
ENDBRANCH  11  17
ENDBRANCH   1  15
BRANCH   5  24
ATOM     24  N   UNL     1      -0.704  11.381  19.434  0.00  0.00    +0.000 N 
ATOM     25  H   UNL     1      -0.086  11.761  18.705  0.00  0.00    +0.000 HD
BRANCH  24  26
ATOM     26  C   UNL     1      -2.074  11.471  19.085  0.00  0.00    +0.000 A 
ATOM     27  C   UNL     1      -2.970  12.292  19.786  0.00  0.00    +0.000 A 
ATOM     28  C   UNL     1      -4.299  12.417  19.371  0.00  0.00    +0.000 A 
ATOM     29  C   UNL     1      -4.737  11.773  18.212  0.00  0.00    +0.000 A 
ATOM     30 CL   UNL     1      -6.349  11.965  17.632  0.00  0.00    +0.000 Cl
ATOM     31  C   UNL     1      -3.859  10.968  17.490  0.00  0.00    +0.000 A 
ATOM     32  C   UNL     1      -2.545  10.832  17.933  0.00  0.00    +0.000 A 
ATOM     33  F   UNL     1      -1.706  10.052  17.225  0.00  0.00    +0.000 F 
BRANCH  28  34
ATOM     34  O   UNL     1      -5.166  13.183  20.100  0.00  0.00    +0.000 OA
ATOM     35  H   UNL     1      -5.618  12.631  20.759  0.00  0.00    +0.000 HD
ENDBRANCH  28  34
ENDBRANCH  24  26
ENDBRANCH   5  24
TORSDOF 9
ENDMDL
