MODEL 1
REMARK VINA RESULT:      -6.9      0.000      0.000
REMARK  Name = 
REMARK  16 active torsions:
REMARK  status: ('A' for Active; 'I' for Inactive)
REMARK    1  A    between atoms: C_1  and  C_2
REMARK    2  A    between atoms: C_2  and  N_3
REMARK    3  A    between atoms: N_3  and  C_4
REMARK    4  A    between atoms: N_3  and  C_6
REMARK    5  A    between atoms: C_4  and  C_5
REMARK    6  A    between atoms: C_6  and  C_7
REMARK    7  A    between atoms: C_7  and  C_8
REMARK    8  A    between atoms: C_8  and  C_9
REMARK    9  A    between atoms: C_8  and  C_17
REMARK   10  A    between atoms: C_12  and  O_13
REMARK   11  A    between atoms: O_13  and  C_14
REMARK   12  A    between atoms: C_18  and  O_19
REMARK   13  A    between atoms: C_21  and  O_22
REMARK   14  A    between atoms: O_22  and  C_23
REMARK   15  A    between atoms: C_25  and  O_26
REMARK   16  A    between atoms: O_26  and  C_27
REMARK                            x       y       z     vdW  Elec       q    Type
REMARK                         _______ _______ _______ _____ _____    ______ ____
ROOT
ATOM      1  C   UNL     1       5.792   4.650  17.392  0.00  0.00    +0.000 C 
ENDROOT
BRANCH   1   2
ATOM      2  C   UNL     1       6.849   5.725  17.688  0.00  0.00    +0.000 A 
ATOM      3  C   UNL     1       7.641   5.712  18.841  0.00  0.00    +0.000 A 
ATOM      4  C   UNL     1       8.352   6.849  19.237  0.00  0.00    +0.000 A 
ATOM      5  C   UNL     1       8.310   8.021  18.484  0.00  0.00    +0.000 A 
ATOM      6  C   UNL     1       7.599   8.027  17.288  0.00  0.00    +0.000 A 
ATOM      7  C   UNL     1       6.888   6.885  16.889  0.00  0.00    +0.000 A 
BRANCH   5   8
ATOM      8  O   UNL     1       8.954   9.083  19.053  0.00  0.00    +0.000 OA
ATOM      9  C   UNL     1       8.867  10.330  18.380  0.00  0.00    +0.000 C 
ENDBRANCH   5   8
ENDBRANCH   1   2
BRANCH   1  10
ATOM     10  C   UNL     1       4.551   4.616  18.316  0.00  0.00    +0.000 A 
ATOM     11  C   UNL     1       4.298   3.483  19.134  0.00  0.00    +0.000 A 
ATOM     12  C   UNL     1       3.163   3.335  19.932  0.00  0.00    +0.000 A 
ATOM     13  C   UNL     1       2.221   4.346  19.996  0.00  0.00    +0.000 A 
ATOM     14  C   UNL     1       2.438   5.480  19.227  0.00  0.00    +0.000 A 
ATOM     15  C   UNL     1       3.575   5.637  18.390  0.00  0.00    +0.000 A 
BRANCH  11  16
ATOM     16  O   UNL     1       5.155   2.419  19.188  0.00  0.00    +0.000 OA
ATOM     17  H   UNL     1       5.156   2.126  20.119  0.00  0.00    +0.000 HD
ENDBRANCH  11  16
BRANCH  13  18
ATOM     18  O   UNL     1       1.144   4.102  20.795  0.00  0.00    +0.000 OA
ATOM     19  C   UNL     1       1.286   3.042  21.734  0.00  0.00    +0.000 C 
ENDBRANCH  13  18
BRANCH  15  20
ATOM     20  O   UNL     1       3.455   6.794  17.671  0.00  0.00    +0.000 OA
ATOM     21  C   UNL     1       2.632   7.857  18.110  0.00  0.00    +0.000 C 
ENDBRANCH  15  20
ENDBRANCH   1  10
BRANCH   1  22
ATOM     22  C   UNL     1       5.413   4.713  15.879  0.00  0.00    +0.000 C 
BRANCH  22  23
ATOM     23  C   UNL     1       6.223   3.823  14.913  0.00  0.00    +0.000 C 
BRANCH  23  24
ATOM     24  N   UNL     1       6.436   4.345  13.552  0.00  0.00    +0.000 NA
BRANCH  24  26
ATOM     25  C   UNL     1       7.922   5.881  12.219  0.00  0.00    +0.000 C 
ATOM     26  C   UNL     1       7.777   4.929  13.401  0.00  0.00    +0.000 C 
ENDBRANCH  24  26
BRANCH  24  27
ATOM     27  C   UNL     1       6.113   3.317  12.541  0.00  0.00    +0.000 C 
ATOM     28  C   UNL     1       4.706   3.356  11.946  0.00  0.00    +0.000 C 
ENDBRANCH  24  27
ENDBRANCH  23  24
ENDBRANCH  22  23
ENDBRANCH   1  22
TORSDOF 11
ENDMDL
MODEL 2
REMARK VINA RESULT:      -6.7      1.130      1.188
REMARK  Name = 
REMARK  16 active torsions:
REMARK  status: ('A' for Active; 'I' for Inactive)
REMARK    1  A    between atoms: C_1  and  C_2
REMARK    2  A    between atoms: C_2  and  N_3
REMARK    3  A    between atoms: N_3  and  C_4
REMARK    4  A    between atoms: N_3  and  C_6
REMARK    5  A    between atoms: C_4  and  C_5
REMARK    6  A    between atoms: C_6  and  C_7
REMARK    7  A    between atoms: C_7  and  C_8
REMARK    8  A    between atoms: C_8  and  C_9
REMARK    9  A    between atoms: C_8  and  C_17
REMARK   10  A    between atoms: C_12  and  O_13
REMARK   11  A    between atoms: O_13  and  C_14
REMARK   12  A    between atoms: C_18  and  O_19
REMARK   13  A    between atoms: C_21  and  O_22
REMARK   14  A    between atoms: O_22  and  C_23
REMARK   15  A    between atoms: C_25  and  O_26
REMARK   16  A    between atoms: O_26  and  C_27
REMARK                            x       y       z     vdW  Elec       q    Type
REMARK                         _______ _______ _______ _____ _____    ______ ____
ROOT
ATOM      1  C   UNL     1       5.630   4.155  16.564  0.00  0.00    +0.000 C 
ENDROOT
BRANCH   1   2
ATOM      2  C   UNL     1       6.665   5.178  17.055  0.00  0.00    +0.000 A 
ATOM      3  C   UNL     1       7.324   5.060  18.283  0.00  0.00    +0.000 A 
ATOM      4  C   UNL     1       8.006   6.146  18.840  0.00  0.00    +0.000 A 
ATOM      5  C   UNL     1       8.067   7.372  18.179  0.00  0.00    +0.000 A 
ATOM      6  C   UNL     1       7.494   7.483  16.915  0.00  0.00    +0.000 A 
ATOM      7  C   UNL     1       6.813   6.392  16.355  0.00  0.00    +0.000 A 
BRANCH   5   8
ATOM      8  O   UNL     1       8.662   8.372  18.894  0.00  0.00    +0.000 OA
ATOM      9  C   UNL     1       8.633   9.676  18.333  0.00  0.00    +0.000 C 
ENDBRANCH   5   8
ENDBRANCH   1   2
BRANCH   1  10
ATOM     10  C   UNL     1       4.327   4.028  17.388  0.00  0.00    +0.000 A 
ATOM     11  C   UNL     1       3.850   2.749  17.780  0.00  0.00    +0.000 A 
ATOM     12  C   UNL     1       2.644   2.538  18.452  0.00  0.00    +0.000 A 
ATOM     13  C   UNL     1       1.855   3.614  18.817  0.00  0.00    +0.000 A 
ATOM     14  C   UNL     1       2.293   4.884  18.471  0.00  0.00    +0.000 A 
ATOM     15  C   UNL     1       3.504   5.115  17.765  0.00  0.00    +0.000 A 
BRANCH  11  16
ATOM     16  O   UNL     1       4.538   1.600  17.506  0.00  0.00    +0.000 OA
ATOM     17  H   UNL     1       5.166   1.829  16.796  0.00  0.00    +0.000 HD
ENDBRANCH  11  16
BRANCH  13  18
ATOM     18  O   UNL     1       0.693   3.304  19.460  0.00  0.00    +0.000 OA
ATOM     19  C   UNL     1       0.800   3.031  20.852  0.00  0.00    +0.000 C 
ENDBRANCH  13  18
BRANCH  15  20
ATOM     20  O   UNL     1       3.609   6.445  17.464  0.00  0.00    +0.000 OA
ATOM     21  C   UNL     1       2.829   7.419  18.129  0.00  0.00    +0.000 C 
ENDBRANCH  15  20
ENDBRANCH   1  10
BRANCH   1  22
ATOM     22  C   UNL     1       5.359   4.395  15.045  0.00  0.00    +0.000 C 
BRANCH  22  23
ATOM     23  C   UNL     1       6.293   3.685  14.043  0.00  0.00    +0.000 C 
BRANCH  23  24
ATOM     24  N   UNL     1       6.053   3.947  12.613  0.00  0.00    +0.000 NA
BRANCH  24  26
ATOM     25  C   UNL     1       8.084   5.401  12.931  0.00  0.00    +0.000 C 
ATOM     26  C   UNL     1       7.214   4.588  11.979  0.00  0.00    +0.000 C 
ENDBRANCH  24  26
BRANCH  24  27
ATOM     27  C   UNL     1       5.596   2.721  11.927  0.00  0.00    +0.000 C 
ATOM     28  C   UNL     1       6.678   1.831  11.316  0.00  0.00    +0.000 C 
ENDBRANCH  24  27
ENDBRANCH  23  24
ENDBRANCH  22  23
ENDBRANCH   1  22
TORSDOF 11
ENDMDL
MODEL 3
REMARK VINA RESULT:      -6.4      1.360      1.593
REMARK  Name = 
REMARK  16 active torsions:
REMARK  status: ('A' for Active; 'I' for Inactive)
REMARK    1  A    between atoms: C_1  and  C_2
REMARK    2  A    between atoms: C_2  and  N_3
REMARK    3  A    between atoms: N_3  and  C_4
REMARK    4  A    between atoms: N_3  and  C_6
REMARK    5  A    between atoms: C_4  and  C_5
REMARK    6  A    between atoms: C_6  and  C_7
REMARK    7  A    between atoms: C_7  and  C_8
REMARK    8  A    between atoms: C_8  and  C_9
REMARK    9  A    between atoms: C_8  and  C_17
REMARK   10  A    between atoms: C_12  and  O_13
REMARK   11  A    between atoms: O_13  and  C_14
REMARK   12  A    between atoms: C_18  and  O_19
REMARK   13  A    between atoms: C_21  and  O_22
REMARK   14  A    between atoms: O_22  and  C_23
REMARK   15  A    between atoms: C_25  and  O_26
REMARK   16  A    between atoms: O_26  and  C_27
REMARK                            x       y       z     vdW  Elec       q    Type
REMARK                         _______ _______ _______ _____ _____    ______ ____
ROOT
ATOM      1  C   UNL     1       5.558   3.996  16.433  0.00  0.00    +0.000 C 
ENDROOT
BRANCH   1   2
ATOM      2  C   UNL     1       6.579   5.025  16.942  0.00  0.00    +0.000 A 
ATOM      3  C   UNL     1       7.274   4.871  18.146  0.00  0.00    +0.000 A 
ATOM      4  C   UNL     1       7.942   5.949  18.734  0.00  0.00    +0.000 A 
ATOM      5  C   UNL     1       7.952   7.204  18.128  0.00  0.00    +0.000 A 
ATOM      6  C   UNL     1       7.341   7.357  16.887  0.00  0.00    +0.000 A 
ATOM      7  C   UNL     1       6.674   6.273  16.295  0.00  0.00    +0.000 A 
BRANCH   5   8
ATOM      8  O   UNL     1       8.538   8.188  18.873  0.00  0.00    +0.000 OA
ATOM      9  C   UNL     1       8.581   9.490  18.308  0.00  0.00    +0.000 C 
ENDBRANCH   5   8
ENDBRANCH   1   2
BRANCH   1  10
ATOM     10  C   UNL     1       4.250   3.847  17.245  0.00  0.00    +0.000 A 
ATOM     11  C   UNL     1       3.826   2.567  17.691  0.00  0.00    +0.000 A 
ATOM     12  C   UNL     1       2.621   2.332  18.356  0.00  0.00    +0.000 A 
ATOM     13  C   UNL     1       1.778   3.386  18.659  0.00  0.00    +0.000 A 
ATOM     14  C   UNL     1       2.162   4.658  18.259  0.00  0.00    +0.000 A 
ATOM     15  C   UNL     1       3.372   4.911  17.559  0.00  0.00    +0.000 A 
BRANCH  11  16
ATOM     16  O   UNL     1       4.570   1.440  17.481  0.00  0.00    +0.000 OA
ATOM     17  H   UNL     1       5.468   1.651  17.800  0.00  0.00    +0.000 HD
ENDBRANCH  11  16
BRANCH  13  18
ATOM     18  O   UNL     1       0.621   3.054  19.300  0.00  0.00    +0.000 OA
ATOM     19  C   UNL     1       0.689   2.982  20.720  0.00  0.00    +0.000 C 
ENDBRANCH  13  18
BRANCH  15  20
ATOM     20  O   UNL     1       3.421   6.229  17.196  0.00  0.00    +0.000 OA
ATOM     21  C   UNL     1       3.517   7.260  18.159  0.00  0.00    +0.000 C 
ENDBRANCH  15  20
ENDBRANCH   1  10
BRANCH   1  22
ATOM     22  C   UNL     1       5.298   4.248  14.914  0.00  0.00    +0.000 C 
BRANCH  22  23
ATOM     23  C   UNL     1       6.403   3.813  13.929  0.00  0.00    +0.000 C 
BRANCH  23  24
ATOM     24  N   UNL     1       6.032   3.749  12.504  0.00  0.00    +0.000 NA
BRANCH  24  26
ATOM     25  C   UNL     1       6.749   1.702  11.225  0.00  0.00    +0.000 C 
ATOM     26  C   UNL     1       7.085   3.111  11.701  0.00  0.00    +0.000 C 
ENDBRANCH  24  26
BRANCH  24  27
ATOM     27  C   UNL     1       4.698   3.138  12.339  0.00  0.00    +0.000 C 
ATOM     28  C   UNL     1       3.924   3.509  11.074  0.00  0.00    +0.000 C 
ENDBRANCH  24  27
ENDBRANCH  23  24
ENDBRANCH  22  23
ENDBRANCH   1  22
TORSDOF 11
ENDMDL
MODEL 4
REMARK VINA RESULT:      -6.4      2.631      6.595
REMARK  Name = 
REMARK  16 active torsions:
REMARK  status: ('A' for Active; 'I' for Inactive)
REMARK    1  A    between atoms: C_1  and  C_2
REMARK    2  A    between atoms: C_2  and  N_3
REMARK    3  A    between atoms: N_3  and  C_4
REMARK    4  A    between atoms: N_3  and  C_6
REMARK    5  A    between atoms: C_4  and  C_5
REMARK    6  A    between atoms: C_6  and  C_7
REMARK    7  A    between atoms: C_7  and  C_8
REMARK    8  A    between atoms: C_8  and  C_9
REMARK    9  A    between atoms: C_8  and  C_17
REMARK   10  A    between atoms: C_12  and  O_13
REMARK   11  A    between atoms: O_13  and  C_14
REMARK   12  A    between atoms: C_18  and  O_19
REMARK   13  A    between atoms: C_21  and  O_22
REMARK   14  A    between atoms: O_22  and  C_23
REMARK   15  A    between atoms: C_25  and  O_26
REMARK   16  A    between atoms: O_26  and  C_27
REMARK                            x       y       z     vdW  Elec       q    Type
REMARK                         _______ _______ _______ _____ _____    ______ ____
ROOT
ATOM      1  C   UNL     1       3.668   5.385  18.397  0.00  0.00    +0.000 C 
ENDROOT
BRANCH   1   2
ATOM      2  C   UNL     1       3.080   6.771  18.701  0.00  0.00    +0.000 A 
ATOM      3  C   UNL     1       2.403   7.063  19.891  0.00  0.00    +0.000 A 
ATOM      4  C   UNL     1       1.613   8.210  20.005  0.00  0.00    +0.000 A 
ATOM      5  C   UNL     1       1.493   9.108  18.945  0.00  0.00    +0.000 A 
ATOM      6  C   UNL     1       2.228   8.882  17.785  0.00  0.00    +0.000 A 
ATOM      7  C   UNL     1       3.024   7.732  17.672  0.00  0.00    +0.000 A 
BRANCH   5   8
ATOM      8  O   UNL     1       0.597  10.117  19.157  0.00  0.00    +0.000 OA
ATOM      9  C   UNL     1      -0.367   9.924  20.182  0.00  0.00    +0.000 C 
ENDBRANCH   5   8
ENDBRANCH   1   2
BRANCH   1  10
ATOM     10  C   UNL     1       4.755   5.312  17.299  0.00  0.00    +0.000 A 
ATOM     11  C   UNL     1       4.568   4.482  16.161  0.00  0.00    +0.000 A 
ATOM     12  C   UNL     1       5.530   4.294  15.166  0.00  0.00    +0.000 A 
ATOM     13  C   UNL     1       6.735   4.970  15.228  0.00  0.00    +0.000 A 
ATOM     14  C   UNL     1       6.952   5.806  16.313  0.00  0.00    +0.000 A 
ATOM     15  C   UNL     1       5.995   5.990  17.347  0.00  0.00    +0.000 A 
BRANCH  11  16
ATOM     16  O   UNL     1       3.417   3.773  15.958  0.00  0.00    +0.000 OA
ATOM     17  H   UNL     1       2.726   4.436  15.771  0.00  0.00    +0.000 HD
ENDBRANCH  11  16
BRANCH  13  18
ATOM     18  O   UNL     1       7.611   4.712  14.216  0.00  0.00    +0.000 OA
ATOM     19  C   UNL     1       7.038   4.294  12.982  0.00  0.00    +0.000 C 
ENDBRANCH  13  18
BRANCH  15  20
ATOM     20  O   UNL     1       6.534   6.771  18.333  0.00  0.00    +0.000 OA
ATOM     21  C   UNL     1       7.933   6.892  18.500  0.00  0.00    +0.000 C 
ENDBRANCH  15  20
ENDBRANCH   1  10
BRANCH   1  22
ATOM     22  C   UNL     1       4.121   4.721  19.736  0.00  0.00    +0.000 C 
BRANCH  22  23
ATOM     23  C   UNL     1       3.439   3.394  20.130  0.00  0.00    +0.000 C 
BRANCH  23  24
ATOM     24  N   UNL     1       2.162   3.083  19.464  0.00  0.00    +0.000 NA
BRANCH  24  26
ATOM     25  C   UNL     1       3.690   1.342  18.476  0.00  0.00    +0.000 C 
ATOM     26  C   UNL     1       2.274   1.892  18.609  0.00  0.00    +0.000 C 
ENDBRANCH  24  26
BRANCH  24  27
ATOM     27  C   UNL     1       1.063   3.013  20.449  0.00  0.00    +0.000 C 
ATOM     28  C   UNL     1       1.439   2.600  21.871  0.00  0.00    +0.000 C 
ENDBRANCH  24  27
ENDBRANCH  23  24
ENDBRANCH  22  23
ENDBRANCH   1  22
TORSDOF 11
ENDMDL
MODEL 5
REMARK VINA RESULT:      -6.3      0.772      1.192
REMARK  Name = 
REMARK  16 active torsions:
REMARK  status: ('A' for Active; 'I' for Inactive)
REMARK    1  A    between atoms: C_1  and  C_2
REMARK    2  A    between atoms: C_2  and  N_3
REMARK    3  A    between atoms: N_3  and  C_4
REMARK    4  A    between atoms: N_3  and  C_6
REMARK    5  A    between atoms: C_4  and  C_5
REMARK    6  A    between atoms: C_6  and  C_7
REMARK    7  A    between atoms: C_7  and  C_8
REMARK    8  A    between atoms: C_8  and  C_9
REMARK    9  A    between atoms: C_8  and  C_17
REMARK   10  A    between atoms: C_12  and  O_13
REMARK   11  A    between atoms: O_13  and  C_14
REMARK   12  A    between atoms: C_18  and  O_19
REMARK   13  A    between atoms: C_21  and  O_22
REMARK   14  A    between atoms: O_22  and  C_23
REMARK   15  A    between atoms: C_25  and  O_26
REMARK   16  A    between atoms: O_26  and  C_27
REMARK                            x       y       z     vdW  Elec       q    Type
REMARK                         _______ _______ _______ _____ _____    ______ ____
ROOT
ATOM      1  C   UNL     1       5.414   4.505  17.667  0.00  0.00    +0.000 C 
ENDROOT
BRANCH   1   2
ATOM      2  C   UNL     1       6.161   5.824  17.917  0.00  0.00    +0.000 A 
ATOM      3  C   UNL     1       5.898   6.993  17.194  0.00  0.00    +0.000 A 
ATOM      4  C   UNL     1       6.792   8.067  17.215  0.00  0.00    +0.000 A 
ATOM      5  C   UNL     1       7.960   8.015  17.974  0.00  0.00    +0.000 A 
ATOM      6  C   UNL     1       8.196   6.898  18.770  0.00  0.00    +0.000 A 
ATOM      7  C   UNL     1       7.297   5.821  18.751  0.00  0.00    +0.000 A 
BRANCH   5   8
ATOM      8  O   UNL     1       8.794   9.084  17.804  0.00  0.00    +0.000 OA
ATOM      9  C   UNL     1       8.992   9.935  18.924  0.00  0.00    +0.000 C 
ENDBRANCH   5   8
ENDBRANCH   1   2
BRANCH   1  10
ATOM     10  C   UNL     1       4.179   4.222  18.554  0.00  0.00    +0.000 A 
ATOM     11  C   UNL     1       4.168   3.105  19.432  0.00  0.00    +0.000 A 
ATOM     12  C   UNL     1       3.067   2.730  20.204  0.00  0.00    +0.000 A 
ATOM     13  C   UNL     1       1.910   3.488  20.179  0.00  0.00    +0.000 A 
ATOM     14  C   UNL     1       1.883   4.599  19.349  0.00  0.00    +0.000 A 
ATOM     15  C   UNL     1       2.985   4.981  18.537  0.00  0.00    +0.000 A 
BRANCH  11  16
ATOM     16  O   UNL     1       5.250   2.282  19.576  0.00  0.00    +0.000 OA
ATOM     17  H   UNL     1       5.338   2.125  20.535  0.00  0.00    +0.000 HD
ENDBRANCH  11  16
BRANCH  13  18
ATOM     18  O   UNL     1       0.888   3.034  20.959  0.00  0.00    +0.000 OA
ATOM     19  C   UNL     1       1.264   2.366  22.158  0.00  0.00    +0.000 C 
ENDBRANCH  13  18
BRANCH  15  20
ATOM     20  O   UNL     1       2.624   6.036  17.746  0.00  0.00    +0.000 OA
ATOM     21  C   UNL     1       2.432   7.331  18.280  0.00  0.00    +0.000 C 
ENDBRANCH  15  20
ENDBRANCH   1  10
BRANCH   1  22
ATOM     22  C   UNL     1       5.101   4.380  16.142  0.00  0.00    +0.000 C 
BRANCH  22  23
ATOM     23  C   UNL     1       6.281   4.042  15.207  0.00  0.00    +0.000 C 
BRANCH  23  24
ATOM     24  N   UNL     1       6.094   4.329  13.774  0.00  0.00    +0.000 NA
BRANCH  24  26
ATOM     25  C   UNL     1       8.004   5.542  12.668  0.00  0.00    +0.000 C 
ATOM     26  C   UNL     1       7.356   4.210  13.030  0.00  0.00    +0.000 C 
ENDBRANCH  24  26
BRANCH  24  27
ATOM     27  C   UNL     1       4.992   3.516  13.219  0.00  0.00    +0.000 C 
ATOM     28  C   UNL     1       5.017   3.261  11.713  0.00  0.00    +0.000 C 
ENDBRANCH  24  27
ENDBRANCH  23  24
ENDBRANCH  22  23
ENDBRANCH   1  22
TORSDOF 11
ENDMDL
MODEL 6
REMARK VINA RESULT:      -6.3      2.553      5.680
REMARK  Name = 
REMARK  16 active torsions:
REMARK  status: ('A' for Active; 'I' for Inactive)
REMARK    1  A    between atoms: C_1  and  C_2
REMARK    2  A    between atoms: C_2  and  N_3
REMARK    3  A    between atoms: N_3  and  C_4
REMARK    4  A    between atoms: N_3  and  C_6
REMARK    5  A    between atoms: C_4  and  C_5
REMARK    6  A    between atoms: C_6  and  C_7
REMARK    7  A    between atoms: C_7  and  C_8
REMARK    8  A    between atoms: C_8  and  C_9
REMARK    9  A    between atoms: C_8  and  C_17
REMARK   10  A    between atoms: C_12  and  O_13
REMARK   11  A    between atoms: O_13  and  C_14
REMARK   12  A    between atoms: C_18  and  O_19
REMARK   13  A    between atoms: C_21  and  O_22
REMARK   14  A    between atoms: O_22  and  C_23
REMARK   15  A    between atoms: C_25  and  O_26
REMARK   16  A    between atoms: O_26  and  C_27
REMARK                            x       y       z     vdW  Elec       q    Type
REMARK                         _______ _______ _______ _____ _____    ______ ____
ROOT
ATOM      1  C   UNL     1       2.933   6.747  17.816  0.00  0.00    +0.000 C 
ENDROOT
BRANCH   1   2
ATOM      2  C   UNL     1       3.011   5.251  18.154  0.00  0.00    +0.000 A 
ATOM      3  C   UNL     1       4.091   4.685  18.840  0.00  0.00    +0.000 A 
ATOM      4  C   UNL     1       4.289   3.301  18.851  0.00  0.00    +0.000 A 
ATOM      5  C   UNL     1       3.404   2.443  18.200  0.00  0.00    +0.000 A 
ATOM      6  C   UNL     1       2.275   2.980  17.587  0.00  0.00    +0.000 A 
ATOM      7  C   UNL     1       2.075   4.369  17.578  0.00  0.00    +0.000 A 
BRANCH   5   8
ATOM      8  O   UNL     1       3.787   1.132  18.194  0.00  0.00    +0.000 OA
ATOM      9  C   UNL     1       4.580   0.684  19.283  0.00  0.00    +0.000 C 
ENDBRANCH   5   8
ENDBRANCH   1   2
BRANCH   1  10
ATOM     10  C   UNL     1       2.166   7.650  18.810  0.00  0.00    +0.000 A 
ATOM     11  C   UNL     1       1.764   8.958  18.427  0.00  0.00    +0.000 A 
ATOM     12  C   UNL     1       1.143   9.866  19.286  0.00  0.00    +0.000 A 
ATOM     13  C   UNL     1       0.842   9.500  20.585  0.00  0.00    +0.000 A 
ATOM     14  C   UNL     1       1.200   8.225  20.997  0.00  0.00    +0.000 A 
ATOM     15  C   UNL     1       1.856   7.296  20.144  0.00  0.00    +0.000 A 
BRANCH  11  16
ATOM     16  O   UNL     1       1.976   9.445  17.167  0.00  0.00    +0.000 OA
ATOM     17  H   UNL     1       2.037  10.414  17.263  0.00  0.00    +0.000 HD
ENDBRANCH  11  16
BRANCH  13  18
ATOM     18  O   UNL     1       0.245  10.460  21.348  0.00  0.00    +0.000 OA
ATOM     19  C   UNL     1      -0.208  10.049  22.632  0.00  0.00    +0.000 C 
ENDBRANCH  13  18
BRANCH  15  20
ATOM     20  O   UNL     1       2.186   6.177  20.858  0.00  0.00    +0.000 OA
ATOM     21  C   UNL     1       1.310   5.071  20.948  0.00  0.00    +0.000 C 
ENDBRANCH  15  20
ENDBRANCH   1  10
BRANCH   1  22
ATOM     22  C   UNL     1       4.371   7.274  17.510  0.00  0.00    +0.000 C 
BRANCH  22  23
ATOM     23  C   UNL     1       5.036   6.790  16.205  0.00  0.00    +0.000 C 
BRANCH  23  24
ATOM     24  N   UNL     1       6.475   6.481  16.270  0.00  0.00    +0.000 NA
BRANCH  24  26
ATOM     25  C   UNL     1       7.622   5.705  18.374  0.00  0.00    +0.000 C 
ATOM     26  C   UNL     1       7.052   6.866  17.566  0.00  0.00    +0.000 C 
ENDBRANCH  24  26
BRANCH  24  27
ATOM     27  C   UNL     1       6.725   5.073  15.897  0.00  0.00    +0.000 C 
ATOM     28  C   UNL     1       5.515   4.257  15.445  0.00  0.00    +0.000 C 
ENDBRANCH  24  27
ENDBRANCH  23  24
ENDBRANCH  22  23
ENDBRANCH   1  22
TORSDOF 11
ENDMDL
MODEL 7
REMARK VINA RESULT:      -6.2      2.659      6.597
REMARK  Name = 
REMARK  16 active torsions:
REMARK  status: ('A' for Active; 'I' for Inactive)
REMARK    1  A    between atoms: C_1  and  C_2
REMARK    2  A    between atoms: C_2  and  N_3
REMARK    3  A    between atoms: N_3  and  C_4
REMARK    4  A    between atoms: N_3  and  C_6
REMARK    5  A    between atoms: C_4  and  C_5
REMARK    6  A    between atoms: C_6  and  C_7
REMARK    7  A    between atoms: C_7  and  C_8
REMARK    8  A    between atoms: C_8  and  C_9
REMARK    9  A    between atoms: C_8  and  C_17
REMARK   10  A    between atoms: C_12  and  O_13
REMARK   11  A    between atoms: O_13  and  C_14
REMARK   12  A    between atoms: C_18  and  O_19
REMARK   13  A    between atoms: C_21  and  O_22
REMARK   14  A    between atoms: O_22  and  C_23
REMARK   15  A    between atoms: C_25  and  O_26
REMARK   16  A    between atoms: O_26  and  C_27
REMARK                            x       y       z     vdW  Elec       q    Type
REMARK                         _______ _______ _______ _____ _____    ______ ____
ROOT
ATOM      1  C   UNL     1       3.547   5.455  18.425  0.00  0.00    +0.000 C 
ENDROOT
BRANCH   1   2
ATOM      2  C   UNL     1       2.981   6.854  18.713  0.00  0.00    +0.000 A 
ATOM      3  C   UNL     1       2.324   7.174  19.907  0.00  0.00    +0.000 A 
ATOM      4  C   UNL     1       1.551   8.334  20.012  0.00  0.00    +0.000 A 
ATOM      5  C   UNL     1       1.429   9.216  18.939  0.00  0.00    +0.000 A 
ATOM      6  C   UNL     1       2.145   8.961  17.774  0.00  0.00    +0.000 A 
ATOM      7  C   UNL     1       2.924   7.798  17.669  0.00  0.00    +0.000 A 
BRANCH   5   8
ATOM      8  O   UNL     1       0.548  10.240  19.146  0.00  0.00    +0.000 OA
ATOM      9  C   UNL     1      -0.650  10.228  18.385  0.00  0.00    +0.000 C 
ENDBRANCH   5   8
ENDBRANCH   1   2
BRANCH   1  10
ATOM     10  C   UNL     1       4.518   5.327  17.228  0.00  0.00    +0.000 A 
ATOM     11  C   UNL     1       4.286   4.354  16.219  0.00  0.00    +0.000 A 
ATOM     12  C   UNL     1       5.153   4.115  15.151  0.00  0.00    +0.000 A 
ATOM     13  C   UNL     1       6.298   4.878  15.001  0.00  0.00    +0.000 A 
ATOM     14  C   UNL     1       6.554   5.853  15.955  0.00  0.00    +0.000 A 
ATOM     15  C   UNL     1       5.696   6.092  17.061  0.00  0.00    +0.000 A 
BRANCH  11  16
ATOM     16  O   UNL     1       3.184   3.546  16.226  0.00  0.00    +0.000 OA
ATOM     17  H   UNL     1       3.175   3.117  17.103  0.00  0.00    +0.000 HD
ENDBRANCH  11  16
BRANCH  13  18
ATOM     18  O   UNL     1       7.085   4.562  13.934  0.00  0.00    +0.000 OA
ATOM     19  C   UNL     1       6.479   3.763  12.924  0.00  0.00    +0.000 C 
ENDBRANCH  13  18
BRANCH  15  20
ATOM     20  O   UNL     1       6.265   7.022  17.887  0.00  0.00    +0.000 OA
ATOM     21  C   UNL     1       7.630   7.375  17.775  0.00  0.00    +0.000 C 
ENDBRANCH  15  20
ENDBRANCH   1  10
BRANCH   1  22
ATOM     22  C   UNL     1       4.138   4.865  19.745  0.00  0.00    +0.000 C 
BRANCH  22  23
ATOM     23  C   UNL     1       4.299   3.332  19.819  0.00  0.00    +0.000 C 
BRANCH  23  24
ATOM     24  N   UNL     1       3.094   2.555  20.160  0.00  0.00    +0.000 NA
BRANCH  24  26
ATOM     25  C   UNL     1       1.478   2.508  22.091  0.00  0.00    +0.000 C 
ATOM     26  C   UNL     1       2.177   3.327  21.012  0.00  0.00    +0.000 C 
ENDBRANCH  24  26
BRANCH  24  27
ATOM     27  C   UNL     1       2.463   2.008  18.941  0.00  0.00    +0.000 C 
ATOM     28  C   UNL     1       0.992   2.351  18.716  0.00  0.00    +0.000 C 
ENDBRANCH  24  27
ENDBRANCH  23  24
ENDBRANCH  22  23
ENDBRANCH   1  22
TORSDOF 11
ENDMDL
MODEL 8
REMARK VINA RESULT:      -6.2      2.802      6.323
REMARK  Name = 
REMARK  16 active torsions:
REMARK  status: ('A' for Active; 'I' for Inactive)
REMARK    1  A    between atoms: C_1  and  C_2
REMARK    2  A    between atoms: C_2  and  N_3
REMARK    3  A    between atoms: N_3  and  C_4
REMARK    4  A    between atoms: N_3  and  C_6
REMARK    5  A    between atoms: C_4  and  C_5
REMARK    6  A    between atoms: C_6  and  C_7
REMARK    7  A    between atoms: C_7  and  C_8
REMARK    8  A    between atoms: C_8  and  C_9
REMARK    9  A    between atoms: C_8  and  C_17
REMARK   10  A    between atoms: C_12  and  O_13
REMARK   11  A    between atoms: O_13  and  C_14
REMARK   12  A    between atoms: C_18  and  O_19
REMARK   13  A    between atoms: C_21  and  O_22
REMARK   14  A    between atoms: O_22  and  C_23
REMARK   15  A    between atoms: C_25  and  O_26
REMARK   16  A    between atoms: O_26  and  C_27
REMARK                            x       y       z     vdW  Elec       q    Type
REMARK                         _______ _______ _______ _____ _____    ______ ____
ROOT
ATOM      1  C   UNL     1       2.680   6.341  17.770  0.00  0.00    +0.000 C 
ENDROOT
BRANCH   1   2
ATOM      2  C   UNL     1       2.278   7.662  18.444  0.00  0.00    +0.000 A 
ATOM      3  C   UNL     1       1.849   7.734  19.774  0.00  0.00    +0.000 A 
ATOM      4  C   UNL     1       1.195   8.871  20.257  0.00  0.00    +0.000 A 
ATOM      5  C   UNL     1       0.970   9.974  19.435  0.00  0.00    +0.000 A 
ATOM      6  C   UNL     1       1.467   9.957  18.135  0.00  0.00    +0.000 A 
ATOM      7  C   UNL     1       2.126   8.817  17.651  0.00  0.00    +0.000 A 
BRANCH   5   8
ATOM      8  O   UNL     1       0.217  10.961  20.005  0.00  0.00    +0.000 OA
ATOM      9  C   UNL     1      -1.119  11.105  19.545  0.00  0.00    +0.000 C 
ENDBRANCH   5   8
ENDBRANCH   1   2
BRANCH   1  10
ATOM     10  C   UNL     1       4.141   5.874  17.964  0.00  0.00    +0.000 A 
ATOM     11  C   UNL     1       4.610   5.504  19.253  0.00  0.00    +0.000 A 
ATOM     12  C   UNL     1       5.931   5.151  19.531  0.00  0.00    +0.000 A 
ATOM     13  C   UNL     1       6.866   5.100  18.513  0.00  0.00    +0.000 A 
ATOM     14  C   UNL     1       6.447   5.435  17.233  0.00  0.00    +0.000 A 
ATOM     15  C   UNL     1       5.113   5.822  16.937  0.00  0.00    +0.000 A 
BRANCH  11  16
ATOM     16  O   UNL     1       3.791   5.486  20.347  0.00  0.00    +0.000 OA
ATOM     17  H   UNL     1       2.898   5.696  20.015  0.00  0.00    +0.000 HD
ENDBRANCH  11  16
BRANCH  13  18
ATOM     18  O   UNL     1       8.131   4.754  18.887  0.00  0.00    +0.000 OA
ATOM     19  C   UNL     1       8.577   5.265  20.138  0.00  0.00    +0.000 C 
ENDBRANCH  13  18
BRANCH  15  20
ATOM     20  O   UNL     1       5.030   6.205  15.627  0.00  0.00    +0.000 OA
ATOM     21  C   UNL     1       5.603   5.432  14.591  0.00  0.00    +0.000 C 
ENDBRANCH  15  20
ENDBRANCH   1  10
BRANCH   1  22
ATOM     22  C   UNL     1       1.640   5.240  18.151  0.00  0.00    +0.000 C 
BRANCH  22  23
ATOM     23  C   UNL     1       1.962   3.791  17.728  0.00  0.00    +0.000 C 
BRANCH  23  24
ATOM     24  N   UNL     1       1.762   2.744  18.745  0.00  0.00    +0.000 NA
BRANCH  24  26
ATOM     25  C   UNL     1       3.830   1.462  18.094  0.00  0.00    +0.000 C 
ATOM     26  C   UNL     1       3.042   2.172  19.189  0.00  0.00    +0.000 C 
ENDBRANCH  24  26
BRANCH  24  27
ATOM     27  C   UNL     1       0.913   3.242  19.847  0.00  0.00    +0.000 C 
ATOM     28  C   UNL     1       1.329   2.854  21.265  0.00  0.00    +0.000 C 
ENDBRANCH  24  27
ENDBRANCH  23  24
ENDBRANCH  22  23
ENDBRANCH   1  22
TORSDOF 11
ENDMDL
MODEL 9
REMARK VINA RESULT:      -6.2      2.728      6.437
REMARK  Name = 
REMARK  16 active torsions:
REMARK  status: ('A' for Active; 'I' for Inactive)
REMARK    1  A    between atoms: C_1  and  C_2
REMARK    2  A    between atoms: C_2  and  N_3
REMARK    3  A    between atoms: N_3  and  C_4
REMARK    4  A    between atoms: N_3  and  C_6
REMARK    5  A    between atoms: C_4  and  C_5
REMARK    6  A    between atoms: C_6  and  C_7
REMARK    7  A    between atoms: C_7  and  C_8
REMARK    8  A    between atoms: C_8  and  C_9
REMARK    9  A    between atoms: C_8  and  C_17
REMARK   10  A    between atoms: C_12  and  O_13
REMARK   11  A    between atoms: O_13  and  C_14
REMARK   12  A    between atoms: C_18  and  O_19
REMARK   13  A    between atoms: C_21  and  O_22
REMARK   14  A    between atoms: O_22  and  C_23
REMARK   15  A    between atoms: C_25  and  O_26
REMARK   16  A    between atoms: O_26  and  C_27
REMARK                            x       y       z     vdW  Elec       q    Type
REMARK                         _______ _______ _______ _____ _____    ______ ____
ROOT
ATOM      1  C   UNL     1       3.393   5.587  18.515  0.00  0.00    +0.000 C 
ENDROOT
BRANCH   1   2
ATOM      2  C   UNL     1       2.854   7.012  18.707  0.00  0.00    +0.000 A 
ATOM      3  C   UNL     1       2.214   7.429  19.880  0.00  0.00    +0.000 A 
ATOM      4  C   UNL     1       1.461   8.606  19.908  0.00  0.00    +0.000 A 
ATOM      5  C   UNL     1       1.344   9.411  18.776  0.00  0.00    +0.000 A 
ATOM      6  C   UNL     1       2.045   9.061  17.626  0.00  0.00    +0.000 A 
ATOM      7  C   UNL     1       2.803   7.881  17.598  0.00  0.00    +0.000 A 
BRANCH   5   8
ATOM      8  O   UNL     1       0.483  10.463  18.916  0.00  0.00    +0.000 OA
ATOM      9  C   UNL     1       1.034  11.698  19.348  0.00  0.00    +0.000 C 
ENDBRANCH   5   8
ENDBRANCH   1   2
BRANCH   1  10
ATOM     10  C   UNL     1       4.389   5.367  17.352  0.00  0.00    +0.000 A 
ATOM     11  C   UNL     1       4.149   4.354  16.385  0.00  0.00    +0.000 A 
ATOM     12  C   UNL     1       5.034   4.033  15.354  0.00  0.00    +0.000 A 
ATOM     13  C   UNL     1       6.207   4.749  15.198  0.00  0.00    +0.000 A 
ATOM     14  C   UNL     1       6.473   5.760  16.109  0.00  0.00    +0.000 A 
ATOM     15  C   UNL     1       5.596   6.083  17.180  0.00  0.00    +0.000 A 
BRANCH  11  16
ATOM     16  O   UNL     1       3.019   3.584  16.403  0.00  0.00    +0.000 OA
ATOM     17  H   UNL     1       2.510   3.877  17.182  0.00  0.00    +0.000 HD
ENDBRANCH  11  16
BRANCH  13  18
ATOM     18  O   UNL     1       7.009   4.354  14.169  0.00  0.00    +0.000 OA
ATOM     19  C   UNL     1       6.349   3.794  13.039  0.00  0.00    +0.000 C 
ENDBRANCH  13  18
BRANCH  15  20
ATOM     20  O   UNL     1       6.177   7.033  17.974  0.00  0.00    +0.000 OA
ATOM     21  C   UNL     1       7.344   7.723  17.570  0.00  0.00    +0.000 C 
ENDBRANCH  15  20
ENDBRANCH   1  10
BRANCH   1  22
ATOM     22  C   UNL     1       3.938   5.062  19.881  0.00  0.00    +0.000 C 
BRANCH  22  23
ATOM     23  C   UNL     1       2.966   4.249  20.761  0.00  0.00    +0.000 C 
BRANCH  23  24
ATOM     24  N   UNL     1       2.971   2.787  20.577  0.00  0.00    +0.000 NA
BRANCH  24  26
ATOM     25  C   UNL     1       0.641   3.390  19.835  0.00  0.00    +0.000 C 
ATOM     26  C   UNL     1       1.658   2.295  20.135  0.00  0.00    +0.000 C 
ENDBRANCH  24  26
BRANCH  24  27
ATOM     27  C   UNL     1       4.091   2.374  19.706  0.00  0.00    +0.000 C 
ATOM     28  C   UNL     1       3.770   1.363  18.606  0.00  0.00    +0.000 C 
ENDBRANCH  24  27
ENDBRANCH  23  24
ENDBRANCH  22  23
ENDBRANCH   1  22
TORSDOF 11
ENDMDL
