MODEL 1
REMARK VINA RESULT:      -8.2      0.000      0.000
REMARK  Name = 
REMARK  7 active torsions:
REMARK  status: ('A' for Active; 'I' for Inactive)
REMARK    1  A    between atoms: C_1  and  C_2
REMARK    2  A    between atoms: C_4  and  C_5
REMARK    3  A    between atoms: C_7  and  C_8
REMARK    4  A    between atoms: C_8  and  C_10
REMARK    5  A    between atoms: C_12  and  O_13
REMARK    6  A    between atoms: C_14  and  C_15
REMARK    7  A    between atoms: C_23  and  O_24
REMARK                            x       y       z     vdW  Elec       q    Type
REMARK                         _______ _______ _______ _____ _____    ______ ____
ROOT
ATOM      1  C   UNL     1       2.443   6.687  19.191  0.00  0.00    +0.000 A 
ATOM      2  C   UNL     1       1.923   6.999  20.445  0.00  0.00    +0.000 A 
ATOM      3  C   UNL     1       1.310   8.242  20.658  0.00  0.00    +0.000 A 
ATOM      4  C   UNL     1       1.215   9.232  19.643  0.00  0.00    +0.000 A 
ATOM      5  C   UNL     1       1.762   8.868  18.392  0.00  0.00    +0.000 A 
ATOM      6  C   UNL     1       2.327   7.610  18.153  0.00  0.00    +0.000 A 
ENDROOT
BRANCH   4   7
ATOM      7  C   UNL     1       0.563  10.556  19.883  0.00  0.00    +0.000 A 
ATOM      8  C   UNL     1      -0.809  10.765  19.636  0.00  0.00    +0.000 A 
ATOM      9  C   UNL     1      -1.415  12.008  19.842  0.00  0.00    +0.000 A 
ATOM     10 CL   UNL     1      -3.072  12.226  19.433  0.00  0.00    +0.000 Cl
ATOM     11  C   UNL     1      -0.693  13.070  20.368  0.00  0.00    +0.000 A 
ATOM     12  C   UNL     1       0.656  12.885  20.642  0.00  0.00    +0.000 A 
ATOM     13 CL   UNL     1       1.562  14.167  21.347  0.00  0.00    +0.000 Cl
ATOM     14  C   UNL     1       1.284  11.665  20.366  0.00  0.00    +0.000 A 
ENDBRANCH   4   7
BRANCH   1  15
ATOM     15  C   UNL     1       3.092   5.368  18.987  0.00  0.00    +0.000 C 
ATOM     16  O   UNL     1       2.533   4.359  19.406  0.00  0.00    +0.000 OA
BRANCH  15  23
ATOM     17  C   UNL     1       5.804   4.209  14.917  0.00  0.00    +0.000 C 
ATOM     18  C   UNL     1       5.734   4.703  16.332  0.00  0.00    +0.000 A 
ATOM     19  C   UNL     1       6.895   5.006  17.053  0.00  0.00    +0.000 A 
ATOM     20  C   UNL     1       6.821   5.451  18.381  0.00  0.00    +0.000 A 
ATOM     21  C   UNL     1       8.063   5.803  19.145  0.00  0.00    +0.000 C 
ATOM     22  C   UNL     1       5.567   5.569  18.996  0.00  0.00    +0.000 A 
ATOM     23  C   UNL     1       4.402   5.250  18.291  0.00  0.00    +0.000 A 
ATOM     24  C   UNL     1       4.488   4.847  16.952  0.00  0.00    +0.000 A 
ENDBRANCH  15  23
ENDBRANCH   1  15
BRANCH   3  25
ATOM     25  O   UNL     1       0.780   8.479  21.900  0.00  0.00    +0.000 OA
ATOM     26  H   UNL     1      -0.188   8.414  21.864  0.00  0.00    +0.000 HD
ENDBRANCH   3  25
BRANCH   5  27
ATOM     27  O   UNL     1       1.829   9.706  17.309  0.00  0.00    +0.000 OA
ATOM     28  H   UNL     1       0.927   9.904  17.007  0.00  0.00    +0.000 HD
ENDBRANCH   5  27
TORSDOF 5
ENDMDL
MODEL 2
REMARK VINA RESULT:      -8.2      0.092      1.764
REMARK  Name = 
REMARK  7 active torsions:
REMARK  status: ('A' for Active; 'I' for Inactive)
REMARK    1  A    between atoms: C_1  and  C_2
REMARK    2  A    between atoms: C_4  and  C_5
REMARK    3  A    between atoms: C_7  and  C_8
REMARK    4  A    between atoms: C_8  and  C_10
REMARK    5  A    between atoms: C_12  and  O_13
REMARK    6  A    between atoms: C_14  and  C_15
REMARK    7  A    between atoms: C_23  and  O_24
REMARK                            x       y       z     vdW  Elec       q    Type
REMARK                         _______ _______ _______ _____ _____    ______ ____
ROOT
ATOM      1  C   UNL     1       2.476   6.620  19.247  0.00  0.00    +0.000 A 
ATOM      2  C   UNL     1       1.939   6.934  20.493  0.00  0.00    +0.000 A 
ATOM      3  C   UNL     1       1.317   8.175  20.693  0.00  0.00    +0.000 A 
ATOM      4  C   UNL     1       1.229   9.160  19.672  0.00  0.00    +0.000 A 
ATOM      5  C   UNL     1       1.793   8.793  18.430  0.00  0.00    +0.000 A 
ATOM      6  C   UNL     1       2.368   7.537  18.203  0.00  0.00    +0.000 A 
ENDROOT
BRANCH   4   7
ATOM      7  C   UNL     1       0.567  10.481  19.899  0.00  0.00    +0.000 A 
ATOM      8  C   UNL     1       1.279  11.597  20.382  0.00  0.00    +0.000 A 
ATOM      9  C   UNL     1       0.656  12.827  20.613  0.00  0.00    +0.000 A 
ATOM     10 CL   UNL     1       1.559  14.125  21.292  0.00  0.00    +0.000 Cl
ATOM     11  C   UNL     1      -0.684  13.012  20.304  0.00  0.00    +0.000 A 
ATOM     12  C   UNL     1      -1.406  11.935  19.804  0.00  0.00    +0.000 A 
ATOM     13 CL   UNL     1      -3.054  12.151  19.360  0.00  0.00    +0.000 Cl
ATOM     14  C   UNL     1      -0.804  10.682  19.643  0.00  0.00    +0.000 A 
ENDBRANCH   4   7
BRANCH   1  15
ATOM     15  C   UNL     1       3.135   5.303  19.057  0.00  0.00    +0.000 C 
ATOM     16  O   UNL     1       2.583   4.295  19.489  0.00  0.00    +0.000 OA
BRANCH  15  23
ATOM     17  C   UNL     1       5.844   4.167  14.979  0.00  0.00    +0.000 C 
ATOM     18  C   UNL     1       5.775   4.651  16.397  0.00  0.00    +0.000 A 
ATOM     19  C   UNL     1       6.937   4.946  17.121  0.00  0.00    +0.000 A 
ATOM     20  C   UNL     1       6.863   5.381  18.452  0.00  0.00    +0.000 A 
ATOM     21  C   UNL     1       8.107   5.725  19.218  0.00  0.00    +0.000 C 
ATOM     22  C   UNL     1       5.610   5.498  19.068  0.00  0.00    +0.000 A 
ATOM     23  C   UNL     1       4.444   5.187  18.360  0.00  0.00    +0.000 A 
ATOM     24  C   UNL     1       4.529   4.794  17.019  0.00  0.00    +0.000 A 
ENDBRANCH  15  23
ENDBRANCH   1  15
BRANCH   3  25
ATOM     25  O   UNL     1       0.769   8.414  21.927  0.00  0.00    +0.000 OA
ATOM     26  H   UNL     1       1.407   8.184  22.622  0.00  0.00    +0.000 HD
ENDBRANCH   3  25
BRANCH   5  27
ATOM     27  O   UNL     1       1.869   9.626  17.344  0.00  0.00    +0.000 OA
ATOM     28  H   UNL     1       2.455   9.226  16.679  0.00  0.00    +0.000 HD
ENDBRANCH   5  27
TORSDOF 5
ENDMDL
MODEL 3
REMARK VINA RESULT:      -8.2      0.258      2.421
REMARK  Name = 
REMARK  7 active torsions:
REMARK  status: ('A' for Active; 'I' for Inactive)
REMARK    1  A    between atoms: C_1  and  C_2
REMARK    2  A    between atoms: C_4  and  C_5
REMARK    3  A    between atoms: C_7  and  C_8
REMARK    4  A    between atoms: C_8  and  C_10
REMARK    5  A    between atoms: C_12  and  O_13
REMARK    6  A    between atoms: C_14  and  C_15
REMARK    7  A    between atoms: C_23  and  O_24
REMARK                            x       y       z     vdW  Elec       q    Type
REMARK                         _______ _______ _______ _____ _____    ______ ____
ROOT
ATOM      1  C   UNL     1       2.451   6.725  18.949  0.00  0.00    +0.000 A 
ATOM      2  C   UNL     1       2.373   7.713  17.971  0.00  0.00    +0.000 A 
ATOM      3  C   UNL     1       1.802   8.957  18.278  0.00  0.00    +0.000 A 
ATOM      4  C   UNL     1       1.264   9.256  19.559  0.00  0.00    +0.000 A 
ATOM      5  C   UNL     1       1.363   8.218  20.512  0.00  0.00    +0.000 A 
ATOM      6  C   UNL     1       1.980   6.993  20.233  0.00  0.00    +0.000 A 
ENDROOT
BRANCH   4   7
ATOM      7  C   UNL     1       0.655  10.585  19.873  0.00  0.00    +0.000 A 
ATOM      8  C   UNL     1       1.432  11.672  20.323  0.00  0.00    +0.000 A 
ATOM      9  C   UNL     1       0.859  12.908  20.636  0.00  0.00    +0.000 A 
ATOM     10 CL   UNL     1       1.846  14.168  21.268  0.00  0.00    +0.000 Cl
ATOM     11  C   UNL     1      -0.497  13.131  20.447  0.00  0.00    +0.000 A 
ATOM     12  C   UNL     1      -1.284  12.083  19.983  0.00  0.00    +0.000 A 
ATOM     13 CL   UNL     1      -2.958  12.345  19.686  0.00  0.00    +0.000 Cl
ATOM     14  C   UNL     1      -0.727  10.821  19.741  0.00  0.00    +0.000 A 
ENDBRANCH   4   7
BRANCH   1  15
ATOM     15  C   UNL     1       3.053   5.413  18.602  0.00  0.00    +0.000 C 
ATOM     16  O   UNL     1       2.405   4.390  18.801  0.00  0.00    +0.000 OA
BRANCH  15  23
ATOM     17  C   UNL     1       6.130   4.416  14.755  0.00  0.00    +0.000 C 
ATOM     18  C   UNL     1       5.929   4.850  16.177  0.00  0.00    +0.000 A 
ATOM     19  C   UNL     1       7.018   5.117  17.015  0.00  0.00    +0.000 A 
ATOM     20  C   UNL     1       6.822   5.505  18.348  0.00  0.00    +0.000 A 
ATOM     21  C   UNL     1       7.988   5.820  19.237  0.00  0.00    +0.000 C 
ATOM     22  C   UNL     1       5.517   5.603  18.849  0.00  0.00    +0.000 A 
ATOM     23  C   UNL     1       4.422   5.320  18.026  0.00  0.00    +0.000 A 
ATOM     24  C   UNL     1       4.631   4.973  16.685  0.00  0.00    +0.000 A 
ENDBRANCH  15  23
ENDBRANCH   1  15
BRANCH   3  25
ATOM     25  O   UNL     1       1.789   9.906  17.289  0.00  0.00    +0.000 OA
ATOM     26  H   UNL     1       2.114   9.523  16.459  0.00  0.00    +0.000 HD
ENDBRANCH   3  25
BRANCH   5  27
ATOM     27  O   UNL     1       0.845   8.286  21.780  0.00  0.00    +0.000 OA
ATOM     28  H   UNL     1       0.261   9.061  21.841  0.00  0.00    +0.000 HD
ENDBRANCH   5  27
TORSDOF 5
ENDMDL
MODEL 4
REMARK VINA RESULT:      -8.2      0.255      1.664
REMARK  Name = 
REMARK  7 active torsions:
REMARK  status: ('A' for Active; 'I' for Inactive)
REMARK    1  A    between atoms: C_1  and  C_2
REMARK    2  A    between atoms: C_4  and  C_5
REMARK    3  A    between atoms: C_7  and  C_8
REMARK    4  A    between atoms: C_8  and  C_10
REMARK    5  A    between atoms: C_12  and  O_13
REMARK    6  A    between atoms: C_14  and  C_15
REMARK    7  A    between atoms: C_23  and  O_24
REMARK                            x       y       z     vdW  Elec       q    Type
REMARK                         _______ _______ _______ _____ _____    ______ ____
ROOT
ATOM      1  C   UNL     1       2.498   6.613  18.953  0.00  0.00    +0.000 A 
ATOM      2  C   UNL     1       2.431   7.588  17.961  0.00  0.00    +0.000 A 
ATOM      3  C   UNL     1       1.859   8.837  18.245  0.00  0.00    +0.000 A 
ATOM      4  C   UNL     1       1.308   9.154  19.516  0.00  0.00    +0.000 A 
ATOM      5  C   UNL     1       1.396   8.129  20.485  0.00  0.00    +0.000 A 
ATOM      6  C   UNL     1       2.014   6.900  20.228  0.00  0.00    +0.000 A 
ENDROOT
BRANCH   4   7
ATOM      7  C   UNL     1       0.697  10.487  19.806  0.00  0.00    +0.000 A 
ATOM      8  C   UNL     1      -0.678  10.734  19.611  0.00  0.00    +0.000 A 
ATOM      9  C   UNL     1      -1.245  11.986  19.864  0.00  0.00    +0.000 A 
ATOM     10 CL   UNL     1      -2.910  12.252  19.518  0.00  0.00    +0.000 Cl
ATOM     11  C   UNL     1      -0.481  13.020  20.386  0.00  0.00    +0.000 A 
ATOM     12  C   UNL     1       0.873  12.797  20.609  0.00  0.00    +0.000 A 
ATOM     13 CL   UNL     1       1.833  14.042  21.309  0.00  0.00    +0.000 Cl
ATOM     14  C   UNL     1       1.460  11.569  20.287  0.00  0.00    +0.000 A 
ENDBRANCH   4   7
BRANCH   1  15
ATOM     15  C   UNL     1       3.102   5.297  18.631  0.00  0.00    +0.000 C 
ATOM     16  O   UNL     1       2.452   4.277  18.841  0.00  0.00    +0.000 OA
BRANCH  15  23
ATOM     17  C   UNL     1       6.212   4.123  14.861  0.00  0.00    +0.000 C 
ATOM     18  C   UNL     1       5.998   4.640  16.253  0.00  0.00    +0.000 A 
ATOM     19  C   UNL     1       7.079   4.979  17.075  0.00  0.00    +0.000 A 
ATOM     20  C   UNL     1       6.869   5.445  18.381  0.00  0.00    +0.000 A 
ATOM     21  C   UNL     1       8.026   5.837  19.253  0.00  0.00    +0.000 C 
ATOM     22  C   UNL     1       5.561   5.549  18.872  0.00  0.00    +0.000 A 
ATOM     23  C   UNL     1       4.475   5.194  18.065  0.00  0.00    +0.000 A 
ATOM     24  C   UNL     1       4.696   4.769  16.749  0.00  0.00    +0.000 A 
ENDBRANCH  15  23
ENDBRANCH   1  15
BRANCH   3  25
ATOM     25  O   UNL     1       1.857   9.772  17.243  0.00  0.00    +0.000 OA
ATOM     26  H   UNL     1       1.182  10.446  17.421  0.00  0.00    +0.000 HD
ENDBRANCH   3  25
BRANCH   5  27
ATOM     27  O   UNL     1       0.865   8.215  21.746  0.00  0.00    +0.000 OA
ATOM     28  H   UNL     1       1.212   9.011  22.181  0.00  0.00    +0.000 HD
ENDBRANCH   5  27
TORSDOF 5
ENDMDL
MODEL 5
REMARK VINA RESULT:      -8.2      0.058      1.695
REMARK  Name = 
REMARK  7 active torsions:
REMARK  status: ('A' for Active; 'I' for Inactive)
REMARK    1  A    between atoms: C_1  and  C_2
REMARK    2  A    between atoms: C_4  and  C_5
REMARK    3  A    between atoms: C_7  and  C_8
REMARK    4  A    between atoms: C_8  and  C_10
REMARK    5  A    between atoms: C_12  and  O_13
REMARK    6  A    between atoms: C_14  and  C_15
REMARK    7  A    between atoms: C_23  and  O_24
REMARK                            x       y       z     vdW  Elec       q    Type
REMARK                         _______ _______ _______ _____ _____    ______ ____
ROOT
ATOM      1  C   UNL     1       2.418   6.705  19.202  0.00  0.00    +0.000 A 
ATOM      2  C   UNL     1       1.905   7.015  20.460  0.00  0.00    +0.000 A 
ATOM      3  C   UNL     1       1.304   8.262  20.681  0.00  0.00    +0.000 A 
ATOM      4  C   UNL     1       1.214   9.258  19.671  0.00  0.00    +0.000 A 
ATOM      5  C   UNL     1       1.754   8.896  18.417  0.00  0.00    +0.000 A 
ATOM      6  C   UNL     1       2.307   7.634  18.169  0.00  0.00    +0.000 A 
ENDROOT
BRANCH   4   7
ATOM      7  C   UNL     1       0.575  10.587  19.921  0.00  0.00    +0.000 A 
ATOM      8  C   UNL     1      -0.798  10.807  19.685  0.00  0.00    +0.000 A 
ATOM      9  C   UNL     1      -1.391  12.054  19.900  0.00  0.00    +0.000 A 
ATOM     10 CL   UNL     1      -3.050  12.287  19.506  0.00  0.00    +0.000 Cl
ATOM     11  C   UNL     1      -0.657  13.110  20.422  0.00  0.00    +0.000 A 
ATOM     12  C   UNL     1       0.693  12.913  20.685  0.00  0.00    +0.000 A 
ATOM     13 CL   UNL     1       1.615  14.186  21.386  0.00  0.00    +0.000 Cl
ATOM     14  C   UNL     1       1.308  11.689  20.401  0.00  0.00    +0.000 A 
ENDBRANCH   4   7
BRANCH   1  15
ATOM     15  C   UNL     1       3.055   5.381  18.989  0.00  0.00    +0.000 C 
ATOM     16  O   UNL     1       2.462   4.371  19.356  0.00  0.00    +0.000 OA
BRANCH  15  23
ATOM     17  C   UNL     1       8.057   5.837  19.167  0.00  0.00    +0.000 C 
ATOM     18  C   UNL     1       6.814   5.467  18.413  0.00  0.00    +0.000 A 
ATOM     19  C   UNL     1       6.871   5.059  17.075  0.00  0.00    +0.000 A 
ATOM     20  C   UNL     1       5.702   4.730  16.374  0.00  0.00    +0.000 A 
ATOM     21  C   UNL     1       5.765   4.265  14.948  0.00  0.00    +0.000 C 
ATOM     22  C   UNL     1       4.462   4.836  17.018  0.00  0.00    +0.000 A 
ATOM     23  C   UNL     1       4.392   5.261  18.348  0.00  0.00    +0.000 A 
ATOM     24  C   UNL     1       5.570   5.546  19.050  0.00  0.00    +0.000 A 
ENDBRANCH  15  23
ENDBRANCH   1  15
BRANCH   3  25
ATOM     25  O   UNL     1       0.779   8.497  21.926  0.00  0.00    +0.000 OA
ATOM     26  H   UNL     1      -0.095   8.910  21.844  0.00  0.00    +0.000 HD
ENDBRANCH   3  25
BRANCH   5  27
ATOM     27  O   UNL     1       1.825   9.739  17.338  0.00  0.00    +0.000 OA
ATOM     28  H   UNL     1       2.497   9.405  16.720  0.00  0.00    +0.000 HD
ENDBRANCH   5  27
TORSDOF 5
ENDMDL
MODEL 6
REMARK VINA RESULT:      -8.2      0.088      2.445
REMARK  Name = 
REMARK  7 active torsions:
REMARK  status: ('A' for Active; 'I' for Inactive)
REMARK    1  A    between atoms: C_1  and  C_2
REMARK    2  A    between atoms: C_4  and  C_5
REMARK    3  A    between atoms: C_7  and  C_8
REMARK    4  A    between atoms: C_8  and  C_10
REMARK    5  A    between atoms: C_12  and  O_13
REMARK    6  A    between atoms: C_14  and  C_15
REMARK    7  A    between atoms: C_23  and  O_24
REMARK                            x       y       z     vdW  Elec       q    Type
REMARK                         _______ _______ _______ _____ _____    ______ ____
ROOT
ATOM      1  C   UNL     1       2.469   6.654  19.205  0.00  0.00    +0.000 A 
ATOM      2  C   UNL     1       1.952   6.967  20.460  0.00  0.00    +0.000 A 
ATOM      3  C   UNL     1       1.350   8.215  20.676  0.00  0.00    +0.000 A 
ATOM      4  C   UNL     1       1.262   9.208  19.663  0.00  0.00    +0.000 A 
ATOM      5  C   UNL     1       1.806   8.842  18.411  0.00  0.00    +0.000 A 
ATOM      6  C   UNL     1       2.360   7.580  18.169  0.00  0.00    +0.000 A 
ENDROOT
BRANCH   4   7
ATOM      7  C   UNL     1       0.621  10.537  19.907  0.00  0.00    +0.000 A 
ATOM      8  C   UNL     1       1.361  11.647  20.362  0.00  0.00    +0.000 A 
ATOM      9  C   UNL     1       0.758  12.884  20.609  0.00  0.00    +0.000 A 
ATOM     10 CL   UNL     1       1.696  14.175  21.252  0.00  0.00    +0.000 Cl
ATOM     11  C   UNL     1      -0.590  13.082  20.345  0.00  0.00    +0.000 A 
ATOM     12  C   UNL     1      -1.339  12.010  19.874  0.00  0.00    +0.000 A 
ATOM     13 CL   UNL     1      -2.999  12.241  19.485  0.00  0.00    +0.000 Cl
ATOM     14  C   UNL     1      -0.755  10.750  19.698  0.00  0.00    +0.000 A 
ENDBRANCH   4   7
BRANCH   1  15
ATOM     15  C   UNL     1       3.107   5.330  18.998  0.00  0.00    +0.000 C 
ATOM     16  O   UNL     1       2.509   4.320  19.356  0.00  0.00    +0.000 OA
BRANCH  15  23
ATOM     17  C   UNL     1       8.103   5.829  19.217  0.00  0.00    +0.000 C 
ATOM     18  C   UNL     1       6.871   5.435  18.457  0.00  0.00    +0.000 A 
ATOM     19  C   UNL     1       6.944   5.005  17.127  0.00  0.00    +0.000 A 
ATOM     20  C   UNL     1       5.785   4.656  16.420  0.00  0.00    +0.000 A 
ATOM     21  C   UNL     1       5.866   4.167  15.003  0.00  0.00    +0.000 C 
ATOM     22  C   UNL     1       4.538   4.762  17.050  0.00  0.00    +0.000 A 
ATOM     23  C   UNL     1       4.451   5.209  18.372  0.00  0.00    +0.000 A 
ATOM     24  C   UNL     1       5.620   5.516  19.080  0.00  0.00    +0.000 A 
ENDBRANCH  15  23
ENDBRANCH   1  15
BRANCH   3  25
ATOM     25  O   UNL     1       0.821   8.453  21.919  0.00  0.00    +0.000 OA
ATOM     26  H   UNL     1       0.021   8.996  21.840  0.00  0.00    +0.000 HD
ENDBRANCH   3  25
BRANCH   5  27
ATOM     27  O   UNL     1       1.880   9.682  17.330  0.00  0.00    +0.000 OA
ATOM     28  H   UNL     1       2.807   9.940  17.193  0.00  0.00    +0.000 HD
ENDBRANCH   5  27
TORSDOF 5
ENDMDL
MODEL 7
REMARK VINA RESULT:      -8.2      0.282      2.375
REMARK  Name = 
REMARK  7 active torsions:
REMARK  status: ('A' for Active; 'I' for Inactive)
REMARK    1  A    between atoms: C_1  and  C_2
REMARK    2  A    between atoms: C_4  and  C_5
REMARK    3  A    between atoms: C_7  and  C_8
REMARK    4  A    between atoms: C_8  and  C_10
REMARK    5  A    between atoms: C_12  and  O_13
REMARK    6  A    between atoms: C_14  and  C_15
REMARK    7  A    between atoms: C_23  and  O_24
REMARK                            x       y       z     vdW  Elec       q    Type
REMARK                         _______ _______ _______ _____ _____    ______ ____
ROOT
ATOM      1  C   UNL     1       2.451   6.660  18.947  0.00  0.00    +0.000 A 
ATOM      2  C   UNL     1       2.377   7.639  17.959  0.00  0.00    +0.000 A 
ATOM      3  C   UNL     1       1.831   8.896  18.261  0.00  0.00    +0.000 A 
ATOM      4  C   UNL     1       1.315   9.218  19.545  0.00  0.00    +0.000 A 
ATOM      5  C   UNL     1       1.409   8.188  20.508  0.00  0.00    +0.000 A 
ATOM      6  C   UNL     1       2.001   6.950  20.234  0.00  0.00    +0.000 A 
ENDROOT
BRANCH   4   7
ATOM      7  C   UNL     1       0.732  10.559  19.853  0.00  0.00    +0.000 A 
ATOM      8  C   UNL     1      -0.652  10.810  19.753  0.00  0.00    +0.000 A 
ATOM      9  C   UNL     1      -1.195  12.070  20.022  0.00  0.00    +0.000 A 
ATOM     10 CL   UNL     1      -2.879  12.338  19.792  0.00  0.00    +0.000 Cl
ATOM     11  C   UNL     1      -0.390  13.109  20.469  0.00  0.00    +0.000 A 
ATOM     12  C   UNL     1       0.975  12.883  20.598  0.00  0.00    +0.000 A 
ATOM     13 CL   UNL     1       1.988  14.135  21.203  0.00  0.00    +0.000 Cl
ATOM     14  C   UNL     1       1.532  11.645  20.257  0.00  0.00    +0.000 A 
ENDBRANCH   4   7
BRANCH   1  15
ATOM     15  C   UNL     1       3.027   5.335  18.607  0.00  0.00    +0.000 C 
ATOM     16  O   UNL     1       2.333   4.332  18.746  0.00  0.00    +0.000 OA
BRANCH  15  23
ATOM     17  C   UNL     1       7.985   5.819  19.276  0.00  0.00    +0.000 C 
ATOM     18  C   UNL     1       6.824   5.423  18.411  0.00  0.00    +0.000 A 
ATOM     19  C   UNL     1       7.017   4.980  17.096  0.00  0.00    +0.000 A 
ATOM     20  C   UNL     1       5.926   4.628  16.289  0.00  0.00    +0.000 A 
ATOM     21  C   UNL     1       6.134   4.125  14.891  0.00  0.00    +0.000 C 
ATOM     22  C   UNL     1       4.627   4.744  16.802  0.00  0.00    +0.000 A 
ATOM     23  C   UNL     1       4.422   5.204  18.107  0.00  0.00    +0.000 A 
ATOM     24  C   UNL     1       5.523   5.513  18.916  0.00  0.00    +0.000 A 
ENDBRANCH  15  23
ENDBRANCH   1  15
BRANCH   3  25
ATOM     25  O   UNL     1       1.821   9.835  17.261  0.00  0.00    +0.000 OA
ATOM     26  H   UNL     1       1.076  10.444  17.387  0.00  0.00    +0.000 HD
ENDBRANCH   3  25
BRANCH   5  27
ATOM     27  O   UNL     1       0.908   8.278  21.781  0.00  0.00    +0.000 OA
ATOM     28  H   UNL     1       1.598   8.012  22.412  0.00  0.00    +0.000 HD
ENDBRANCH   5  27
TORSDOF 5
ENDMDL
MODEL 8
REMARK VINA RESULT:      -8.1      0.331      2.958
REMARK  Name = 
REMARK  7 active torsions:
REMARK  status: ('A' for Active; 'I' for Inactive)
REMARK    1  A    between atoms: C_1  and  C_2
REMARK    2  A    between atoms: C_4  and  C_5
REMARK    3  A    between atoms: C_7  and  C_8
REMARK    4  A    between atoms: C_8  and  C_10
REMARK    5  A    between atoms: C_12  and  O_13
REMARK    6  A    between atoms: C_14  and  C_15
REMARK    7  A    between atoms: C_23  and  O_24
REMARK                            x       y       z     vdW  Elec       q    Type
REMARK                         _______ _______ _______ _____ _____    ______ ____
ROOT
ATOM      1  C   UNL     1       2.473   6.662  18.862  0.00  0.00    +0.000 A 
ATOM      2  C   UNL     1       2.401   7.662  17.895  0.00  0.00    +0.000 A 
ATOM      3  C   UNL     1       1.851   8.910  18.221  0.00  0.00    +0.000 A 
ATOM      4  C   UNL     1       1.328   9.203  19.509  0.00  0.00    +0.000 A 
ATOM      5  C   UNL     1       1.420   8.153  20.450  0.00  0.00    +0.000 A 
ATOM      6  C   UNL     1       2.017   6.923  20.152  0.00  0.00    +0.000 A 
ENDROOT
BRANCH   4   7
ATOM      7  C   UNL     1       0.740  10.536  19.843  0.00  0.00    +0.000 A 
ATOM      8  C   UNL     1       1.538  11.612  20.281  0.00  0.00    +0.000 A 
ATOM      9  C   UNL     1       0.986  12.853  20.613  0.00  0.00    +0.000 A 
ATOM     10 CL   UNL     1       2.000  14.099  21.230  0.00  0.00    +0.000 Cl
ATOM     11  C   UNL     1      -0.372  13.091  20.454  0.00  0.00    +0.000 A 
ATOM     12  C   UNL     1      -1.179  12.054  20.002  0.00  0.00    +0.000 A 
ATOM     13 CL   UNL     1      -2.856  12.337  19.742  0.00  0.00    +0.000 Cl
ATOM     14  C   UNL     1      -0.642  10.789  19.741  0.00  0.00    +0.000 A 
ENDBRANCH   4   7
BRANCH   1  15
ATOM     15  C   UNL     1       3.054   5.346  18.496  0.00  0.00    +0.000 C 
ATOM     16  O   UNL     1       2.357   4.340  18.594  0.00  0.00    +0.000 OA
BRANCH  15  23
ATOM     17  C   UNL     1       7.995   5.884  19.244  0.00  0.00    +0.000 C 
ATOM     18  C   UNL     1       6.854   5.471  18.362  0.00  0.00    +0.000 A 
ATOM     19  C   UNL     1       7.073   5.024  17.053  0.00  0.00    +0.000 A 
ATOM     20  C   UNL     1       5.998   4.656  16.230  0.00  0.00    +0.000 A 
ATOM     21  C   UNL     1       6.234   4.149  14.838  0.00  0.00    +0.000 C 
ATOM     22  C   UNL     1       4.690   4.762  16.721  0.00  0.00    +0.000 A 
ATOM     23  C   UNL     1       4.459   5.226  18.020  0.00  0.00    +0.000 A 
ATOM     24  C   UNL     1       5.543   5.551  18.845  0.00  0.00    +0.000 A 
ENDBRANCH  15  23
ENDBRANCH   1  15
BRANCH   3  25
ATOM     25  O   UNL     1       1.843   9.870  17.242  0.00  0.00    +0.000 OA
ATOM     26  H   UNL     1       2.351  10.644  17.533  0.00  0.00    +0.000 HD
ENDBRANCH   3  25
BRANCH   5  27
ATOM     27  O   UNL     1       0.913   8.214  21.723  0.00  0.00    +0.000 OA
ATOM     28  H   UNL     1       0.697   9.138  21.932  0.00  0.00    +0.000 HD
ENDBRANCH   5  27
TORSDOF 5
ENDMDL
MODEL 9
REMARK VINA RESULT:      -8.0      1.383      1.388
REMARK  Name = 
REMARK  7 active torsions:
REMARK  status: ('A' for Active; 'I' for Inactive)
REMARK    1  A    between atoms: C_1  and  C_2
REMARK    2  A    between atoms: C_4  and  C_5
REMARK    3  A    between atoms: C_7  and  C_8
REMARK    4  A    between atoms: C_8  and  C_10
REMARK    5  A    between atoms: C_12  and  O_13
REMARK    6  A    between atoms: C_14  and  C_15
REMARK    7  A    between atoms: C_23  and  O_24
REMARK                            x       y       z     vdW  Elec       q    Type
REMARK                         _______ _______ _______ _____ _____    ______ ____
ROOT
ATOM      1  C   UNL     1       2.479   6.860  18.469  0.00  0.00    +0.000 A 
ATOM      2  C   UNL     1       2.288   6.905  19.847  0.00  0.00    +0.000 A 
ATOM      3  C   UNL     1       1.760   8.060  20.442  0.00  0.00    +0.000 A 
ATOM      4  C   UNL     1       1.428   9.223  19.695  0.00  0.00    +0.000 A 
ATOM      5  C   UNL     1       1.646   9.126  18.302  0.00  0.00    +0.000 A 
ATOM      6  C   UNL     1       2.121   7.960  17.691  0.00  0.00    +0.000 A 
ENDROOT
BRANCH   4   7
ATOM      7  C   UNL     1       0.870  10.450  20.341  0.00  0.00    +0.000 A 
ATOM      8  C   UNL     1      -0.102  10.378  21.359  0.00  0.00    +0.000 A 
ATOM      9  C   UNL     1      -0.639  11.526  21.949  0.00  0.00    +0.000 A 
ATOM     10 CL   UNL     1      -1.890  11.375  23.121  0.00  0.00    +0.000 Cl
ATOM     11  C   UNL     1      -0.177  12.786  21.598  0.00  0.00    +0.000 A 
ATOM     12  C   UNL     1       0.798  12.886  20.613  0.00  0.00    +0.000 A 
ATOM     13 CL   UNL     1       1.430  14.431  20.197  0.00  0.00    +0.000 Cl
ATOM     14  C   UNL     1       1.283  11.743  19.966  0.00  0.00    +0.000 A 
ENDBRANCH   4   7
BRANCH   1  15
ATOM     15  C   UNL     1       3.044   5.630  17.859  0.00  0.00    +0.000 C 
ATOM     16  O   UNL     1       2.388   4.593  17.898  0.00  0.00    +0.000 OA
BRANCH  15  23
ATOM     17  C   UNL     1       6.247   3.867  14.410  0.00  0.00    +0.000 C 
ATOM     18  C   UNL     1       5.947   4.801  15.545  0.00  0.00    +0.000 A 
ATOM     19  C   UNL     1       6.930   5.653  16.063  0.00  0.00    +0.000 A 
ATOM     20  C   UNL     1       6.646   6.511  17.135  0.00  0.00    +0.000 A 
ATOM     21  C   UNL     1       7.691   7.444  17.671  0.00  0.00    +0.000 C 
ATOM     22  C   UNL     1       5.367   6.495  17.707  0.00  0.00    +0.000 A 
ATOM     23  C   UNL     1       4.383   5.634  17.210  0.00  0.00    +0.000 A 
ATOM     24  C   UNL     1       4.668   4.812  16.112  0.00  0.00    +0.000 A 
ENDBRANCH  15  23
ENDBRANCH   1  15
BRANCH   3  25
ATOM     25  O   UNL     1       1.555   8.034  21.798  0.00  0.00    +0.000 OA
ATOM     26  H   UNL     1       1.259   7.151  22.070  0.00  0.00    +0.000 HD
ENDBRANCH   3  25
BRANCH   5  27
ATOM     27  O   UNL     1       1.453  10.158  17.420  0.00  0.00    +0.000 OA
ATOM     28  H   UNL     1       0.597  10.579  17.609  0.00  0.00    +0.000 HD
ENDBRANCH   5  27
TORSDOF 5
ENDMDL
