MODEL 1
REMARK VINA RESULT:      -7.7      0.000      0.000
REMARK  Name = 
REMARK  7 active torsions:
REMARK  status: ('A' for Active; 'I' for Inactive)
REMARK    1  A    between atoms: C_1  and  C_2
REMARK    2  A    between atoms: C_6  and  C_7
REMARK    3  A    between atoms: C_7  and  O_8
REMARK    4  A    between atoms: O_8  and  C_9
REMARK    5  A    between atoms: N_14  and  C_15
REMARK    6  A    between atoms: C_15  and  C_16
REMARK    7  A    between atoms: C_25  and  C_26
REMARK                            x       y       z     vdW  Elec       q    Type
REMARK                         _______ _______ _______ _____ _____    ______ ____
ROOT
ATOM      1  C   UNL     1       7.450   5.266  14.915  0.00  0.00    +0.000 C 
ATOM      2  C   UNL     1       6.390   5.280  15.980  0.00  0.00    +0.000 A 
ATOM      3  C   UNL     1       5.202   4.551  15.767  0.00  0.00    +0.000 A 
ATOM      4  C   UNL     1       4.191   4.577  16.741  0.00  0.00    +0.000 A 
ATOM      5  N   UNL     1       2.974   3.969  16.719  0.00  0.00    +0.000 NA
ATOM      6  C   UNL     1       2.379   4.310  17.853  0.00  0.00    +0.000 A 
ATOM      7  N   UNL     1       3.178   5.171  18.584  0.00  0.00    +0.000 N 
ATOM      8  C   UNL     1       4.372   5.306  17.903  0.00  0.00    +0.000 A 
ATOM      9  C   UNL     1       5.561   5.998  18.173  0.00  0.00    +0.000 A 
ATOM     10  C   UNL     1       6.551   6.027  17.170  0.00  0.00    +0.000 A 
ATOM     11  C   UNL     1       7.757   6.896  17.378  0.00  0.00    +0.000 C 
ENDROOT
BRANCH   6  12
ATOM     12  C   UNL     1       1.023   3.832  18.258  0.00  0.00    +0.000 C 
BRANCH  12  13
ATOM     13  O   UNL     1       1.028   2.429  18.532  0.00  0.00    +0.000 OA
BRANCH  13  14
ATOM     14  C   UNL     1       1.563   2.048  19.795  0.00  0.00    +0.000 C 
ATOM     15  C   UNL     1       3.073   2.184  19.946  0.00  0.00    +0.000 C 
ATOM     16  C   UNL     1       3.276   2.246  21.451  0.00  0.00    +0.000 C 
ATOM     17  C   UNL     1       2.033   2.938  22.006  0.00  0.00    +0.000 C 
ATOM     18  C   UNL     1       1.039   3.017  20.852  0.00  0.00    +0.000 C 
ENDBRANCH  13  14
ENDBRANCH  12  13
ENDBRANCH   6  12
BRANCH   7  19
ATOM     19  C   UNL     1       2.791   5.931  19.770  0.00  0.00    +0.000 C 
BRANCH  19  20
ATOM     20  C   UNL     1       2.171   7.259  19.416  0.00  0.00    +0.000 A 
ATOM     21  C   UNL     1       2.311   7.796  18.129  0.00  0.00    +0.000 A 
ATOM     22  C   UNL     1       1.885   9.097  17.853  0.00  0.00    +0.000 A 
ATOM     23  C   UNL     1       1.284   9.853  18.854  0.00  0.00    +0.000 A 
ATOM     24 CL   UNL     1       0.879  11.498  18.553  0.00  0.00    +0.000 Cl
ATOM     25  C   UNL     1       1.041   9.297  20.107  0.00  0.00    +0.000 A 
ATOM     26  C   UNL     1       1.477   7.999  20.387  0.00  0.00    +0.000 A 
ENDBRANCH  19  20
ENDBRANCH   7  19
TORSDOF 5
ENDMDL
MODEL 2
REMARK VINA RESULT:      -7.3      5.987      9.332
REMARK  Name = 
REMARK  7 active torsions:
REMARK  status: ('A' for Active; 'I' for Inactive)
REMARK    1  A    between atoms: C_1  and  C_2
REMARK    2  A    between atoms: C_6  and  C_7
REMARK    3  A    between atoms: C_7  and  O_8
REMARK    4  A    between atoms: O_8  and  C_9
REMARK    5  A    between atoms: N_14  and  C_15
REMARK    6  A    between atoms: C_15  and  C_16
REMARK    7  A    between atoms: C_25  and  C_26
REMARK                            x       y       z     vdW  Elec       q    Type
REMARK                         _______ _______ _______ _____ _____    ______ ____
ROOT
ATOM      1  C   UNL     1       2.202   6.996  20.319  0.00  0.00    +0.000 C 
ATOM      2  C   UNL     1       1.508   8.326  20.400  0.00  0.00    +0.000 A 
ATOM      3  C   UNL     1       1.007   8.759  21.645  0.00  0.00    +0.000 A 
ATOM      4  C   UNL     1       0.332   9.987  21.731  0.00  0.00    +0.000 A 
ATOM      5  N   UNL     1      -0.240  10.569  22.820  0.00  0.00    +0.000 NA
ATOM      6  C   UNL     1      -0.765  11.706  22.389  0.00  0.00    +0.000 A 
ATOM      7  N   UNL     1      -0.582  11.841  21.024  0.00  0.00    +0.000 N 
ATOM      8  C   UNL     1       0.173  10.767  20.598  0.00  0.00    +0.000 A 
ATOM      9  C   UNL     1       0.704  10.395  19.356  0.00  0.00    +0.000 A 
ATOM     10  C   UNL     1       1.325   9.133  19.253  0.00  0.00    +0.000 A 
ATOM     11  C   UNL     1       1.753   8.653  17.896  0.00  0.00    +0.000 C 
ENDROOT
BRANCH   6  12
ATOM     12  C   UNL     1      -1.470  12.684  23.269  0.00  0.00    +0.000 C 
BRANCH  12  13
ATOM     13  O   UNL     1      -2.798  12.248  23.572  0.00  0.00    +0.000 OA
BRANCH  13  14
ATOM     14  C   UNL     1      -3.685  13.255  24.047  0.00  0.00    +0.000 C 
ATOM     15  C   UNL     1      -3.624  14.593  23.322  0.00  0.00    +0.000 C 
ATOM     16  C   UNL     1      -4.966  15.232  23.642  0.00  0.00    +0.000 C 
ATOM     17  C   UNL     1      -5.954  14.075  23.765  0.00  0.00    +0.000 C 
ATOM     18  C   UNL     1      -5.118  12.800  23.778  0.00  0.00    +0.000 C 
ENDBRANCH  13  14
ENDBRANCH  12  13
ENDBRANCH   6  12
BRANCH   7  19
ATOM     19  C   UNL     1      -1.198  12.839  20.152  0.00  0.00    +0.000 C 
BRANCH  19  20
ATOM     20  C   UNL     1      -2.558  12.406  19.665  0.00  0.00    +0.000 A 
ATOM     21  C   UNL     1      -2.691  11.626  18.508  0.00  0.00    +0.000 A 
ATOM     22  C   UNL     1      -3.952  11.371  17.966  0.00  0.00    +0.000 A 
ATOM     23  C   UNL     1      -5.088  11.864  18.601  0.00  0.00    +0.000 A 
ATOM     24 CL   UNL     1      -6.630  11.664  17.865  0.00  0.00    +0.000 Cl
ATOM     25  C   UNL     1      -4.979  12.550  19.808  0.00  0.00    +0.000 A 
ATOM     26  C   UNL     1      -3.717  12.814  20.344  0.00  0.00    +0.000 A 
ENDBRANCH  19  20
ENDBRANCH   7  19
TORSDOF 5
ENDMDL
MODEL 3
REMARK VINA RESULT:      -7.3      3.071      6.674
REMARK  Name = 
REMARK  7 active torsions:
REMARK  status: ('A' for Active; 'I' for Inactive)
REMARK    1  A    between atoms: C_1  and  C_2
REMARK    2  A    between atoms: C_6  and  C_7
REMARK    3  A    between atoms: C_7  and  O_8
REMARK    4  A    between atoms: O_8  and  C_9
REMARK    5  A    between atoms: N_14  and  C_15
REMARK    6  A    between atoms: C_15  and  C_16
REMARK    7  A    between atoms: C_25  and  C_26
REMARK                            x       y       z     vdW  Elec       q    Type
REMARK                         _______ _______ _______ _____ _____    ______ ____
ROOT
ATOM      1  C   UNL     1       1.176   9.435  18.301  0.00  0.00    +0.000 C 
ATOM      2  C   UNL     1       2.242   8.382  18.400  0.00  0.00    +0.000 A 
ATOM      3  C   UNL     1       3.235   8.321  17.401  0.00  0.00    +0.000 A 
ATOM      4  C   UNL     1       4.222   7.325  17.464  0.00  0.00    +0.000 A 
ATOM      5  N   UNL     1       5.243   7.083  16.599  0.00  0.00    +0.000 NA
ATOM      6  C   UNL     1       5.885   6.029  17.081  0.00  0.00    +0.000 A 
ATOM      7  N   UNL     1       5.259   5.557  18.222  0.00  0.00    +0.000 N 
ATOM      8  C   UNL     1       4.219   6.418  18.510  0.00  0.00    +0.000 A 
ATOM      9  C   UNL     1       3.281   6.481  19.550  0.00  0.00    +0.000 A 
ATOM     10  C   UNL     1       2.251   7.439  19.454  0.00  0.00    +0.000 A 
ATOM     11  C   UNL     1       1.149   7.411  20.473  0.00  0.00    +0.000 C 
ENDROOT
BRANCH   6  12
ATOM     12  C   UNL     1       7.103   5.437  16.453  0.00  0.00    +0.000 C 
BRANCH  12  13
ATOM     13  O   UNL     1       7.173   5.748  15.059  0.00  0.00    +0.000 OA
BRANCH  13  14
ATOM     14  C   UNL     1       7.105   4.635  14.174  0.00  0.00    +0.000 C 
ATOM     15  C   UNL     1       5.705   4.139  13.835  0.00  0.00    +0.000 C 
ATOM     16  C   UNL     1       5.904   3.377  12.534  0.00  0.00    +0.000 C 
ATOM     17  C   UNL     1       7.041   4.091  11.807  0.00  0.00    +0.000 C 
ATOM     18  C   UNL     1       7.639   5.071  12.812  0.00  0.00    +0.000 C 
ENDBRANCH  13  14
ENDBRANCH  12  13
ENDBRANCH   6  12
BRANCH   7  19
ATOM     19  C   UNL     1       5.531   4.299  18.913  0.00  0.00    +0.000 C 
BRANCH  19  20
ATOM     20  C   UNL     1       4.328   3.391  18.934  0.00  0.00    +0.000 A 
ATOM     21  C   UNL     1       3.801   2.870  17.744  0.00  0.00    +0.000 A 
ATOM     22  C   UNL     1       2.592   2.172  17.749  0.00  0.00    +0.000 A 
ATOM     23  C   UNL     1       1.923   1.961  18.950  0.00  0.00    +0.000 A 
ATOM     24 CL   UNL     1       0.371   1.218  18.942  0.00  0.00    +0.000 Cl
ATOM     25  C   UNL     1       2.485   2.380  20.153  0.00  0.00    +0.000 A 
ATOM     26  C   UNL     1       3.690   3.087  20.147  0.00  0.00    +0.000 A 
ENDBRANCH  19  20
ENDBRANCH   7  19
TORSDOF 5
ENDMDL
MODEL 4
REMARK VINA RESULT:      -7.2      6.319      9.754
REMARK  Name = 
REMARK  7 active torsions:
REMARK  status: ('A' for Active; 'I' for Inactive)
REMARK    1  A    between atoms: C_1  and  C_2
REMARK    2  A    between atoms: C_6  and  C_7
REMARK    3  A    between atoms: C_7  and  O_8
REMARK    4  A    between atoms: O_8  and  C_9
REMARK    5  A    between atoms: N_14  and  C_15
REMARK    6  A    between atoms: C_15  and  C_16
REMARK    7  A    between atoms: C_25  and  C_26
REMARK                            x       y       z     vdW  Elec       q    Type
REMARK                         _______ _______ _______ _____ _____    ______ ____
ROOT
ATOM      1  C   UNL     1       1.766   7.162  20.875  0.00  0.00    +0.000 C 
ATOM      2  C   UNL     1       1.080   8.498  20.884  0.00  0.00    +0.000 A 
ATOM      3  C   UNL     1       0.469   8.942  22.076  0.00  0.00    +0.000 A 
ATOM      4  C   UNL     1      -0.200  10.175  22.093  0.00  0.00    +0.000 A 
ATOM      5  N   UNL     1      -0.866  10.768  23.121  0.00  0.00    +0.000 NA
ATOM      6  C   UNL     1      -1.339  11.907  22.638  0.00  0.00    +0.000 A 
ATOM      7  N   UNL     1      -1.028  12.033  21.295  0.00  0.00    +0.000 N 
ATOM      8  C   UNL     1      -0.246  10.950  20.947  0.00  0.00    +0.000 A 
ATOM      9  C   UNL     1       0.395  10.567  19.761  0.00  0.00    +0.000 A 
ATOM     10  C   UNL     1       1.012   9.300  19.721  0.00  0.00    +0.000 A 
ATOM     11  C   UNL     1       1.559   8.809  18.413  0.00  0.00    +0.000 C 
ENDROOT
BRANCH   6  12
ATOM     12  C   UNL     1      -2.114  12.896  23.445  0.00  0.00    +0.000 C 
BRANCH  12  13
ATOM     13  O   UNL     1      -3.309  12.314  23.971  0.00  0.00    +0.000 OA
BRANCH  13  14
ATOM     14  C   UNL     1      -4.337  13.231  24.327  0.00  0.00    +0.000 C 
ATOM     15  C   UNL     1      -4.150  14.663  23.841  0.00  0.00    +0.000 C 
ATOM     16  C   UNL     1      -5.558  15.236  23.876  0.00  0.00    +0.000 C 
ATOM     17  C   UNL     1      -6.488  14.065  23.564  0.00  0.00    +0.000 C 
ATOM     18  C   UNL     1      -5.624  12.809  23.621  0.00  0.00    +0.000 C 
ENDBRANCH  13  14
ENDBRANCH  12  13
ENDBRANCH   6  12
BRANCH   7  19
ATOM     19  C   UNL     1      -1.552  13.032  20.365  0.00  0.00    +0.000 C 
BRANCH  19  20
ATOM     20  C   UNL     1      -2.865  12.608  19.758  0.00  0.00    +0.000 A 
ATOM     21  C   UNL     1      -4.081  12.970  20.355  0.00  0.00    +0.000 A 
ATOM     22  C   UNL     1      -5.286  12.437  19.891  0.00  0.00    +0.000 A 
ATOM     23  C   UNL     1      -5.282  11.569  18.804  0.00  0.00    +0.000 A 
ATOM     24 CL   UNL     1      -6.746  10.809  18.315  0.00  0.00    +0.000 Cl
ATOM     25  C   UNL     1      -4.094  11.283  18.134  0.00  0.00    +0.000 A 
ATOM     26  C   UNL     1      -2.889  11.808  18.605  0.00  0.00    +0.000 A 
ENDBRANCH  19  20
ENDBRANCH   7  19
TORSDOF 5
ENDMDL
MODEL 5
REMARK VINA RESULT:      -7.1      2.417      5.388
REMARK  Name = 
REMARK  7 active torsions:
REMARK  status: ('A' for Active; 'I' for Inactive)
REMARK    1  A    between atoms: C_1  and  C_2
REMARK    2  A    between atoms: C_6  and  C_7
REMARK    3  A    between atoms: C_7  and  O_8
REMARK    4  A    between atoms: O_8  and  C_9
REMARK    5  A    between atoms: N_14  and  C_15
REMARK    6  A    between atoms: C_15  and  C_16
REMARK    7  A    between atoms: C_25  and  C_26
REMARK                            x       y       z     vdW  Elec       q    Type
REMARK                         _______ _______ _______ _____ _____    ______ ____
ROOT
ATOM      1  C   UNL     1       1.010  11.914  20.491  0.00  0.00    +0.000 C 
ATOM      2  C   UNL     1       1.255  10.505  20.030  0.00  0.00    +0.000 A 
ATOM      3  C   UNL     1       1.089   9.449  20.949  0.00  0.00    +0.000 A 
ATOM      4  C   UNL     1       1.341   8.129  20.541  0.00  0.00    +0.000 A 
ATOM      5  N   UNL     1       1.264   6.984  21.270  0.00  0.00    +0.000 NA
ATOM      6  C   UNL     1       1.613   6.006  20.447  0.00  0.00    +0.000 A 
ATOM      7  N   UNL     1       1.963   6.513  19.208  0.00  0.00    +0.000 N 
ATOM      8  C   UNL     1       1.738   7.875  19.239  0.00  0.00    +0.000 A 
ATOM      9  C   UNL     1       1.860   8.893  18.284  0.00  0.00    +0.000 A 
ATOM     10  C   UNL     1       1.671  10.225  18.708  0.00  0.00    +0.000 A 
ATOM     11  C   UNL     1       1.957  11.333  17.738  0.00  0.00    +0.000 C 
ENDROOT
BRANCH   6  12
ATOM     12  C   UNL     1       1.636   4.563  20.831  0.00  0.00    +0.000 C 
BRANCH  12  13
ATOM     13  O   UNL     1       1.085   3.742  19.798  0.00  0.00    +0.000 OA
BRANCH  13  14
ATOM     14  C   UNL     1       1.834   2.576  19.471  0.00  0.00    +0.000 C 
ATOM     15  C   UNL     1       2.294   2.465  18.023  0.00  0.00    +0.000 C 
ATOM     16  C   UNL     1       3.457   1.488  18.094  0.00  0.00    +0.000 C 
ATOM     17  C   UNL     1       4.107   1.720  19.456  0.00  0.00    +0.000 C 
ATOM     18  C   UNL     1       3.156   2.624  20.233  0.00  0.00    +0.000 C 
ENDBRANCH  13  14
ENDBRANCH  12  13
ENDBRANCH   6  12
BRANCH   7  19
ATOM     19  C   UNL     1       2.603   5.788  18.113  0.00  0.00    +0.000 C 
BRANCH  19  20
ATOM     20  C   UNL     1       4.102   5.947  18.127  0.00  0.00    +0.000 A 
ATOM     21  C   UNL     1       4.884   5.300  19.094  0.00  0.00    +0.000 A 
ATOM     22  C   UNL     1       6.247   5.583  19.210  0.00  0.00    +0.000 A 
ATOM     23  C   UNL     1       6.840   6.487  18.335  0.00  0.00    +0.000 A 
ATOM     24 CL   UNL     1       8.486   6.936  18.559  0.00  0.00    +0.000 Cl
ATOM     25  C   UNL     1       6.100   7.058  17.302  0.00  0.00    +0.000 A 
ATOM     26  C   UNL     1       4.735   6.783  17.193  0.00  0.00    +0.000 A 
ENDBRANCH  19  20
ENDBRANCH   7  19
TORSDOF 5
ENDMDL
MODEL 6
REMARK VINA RESULT:      -7.1      5.710      9.104
REMARK  Name = 
REMARK  7 active torsions:
REMARK  status: ('A' for Active; 'I' for Inactive)
REMARK    1  A    between atoms: C_1  and  C_2
REMARK    2  A    between atoms: C_6  and  C_7
REMARK    3  A    between atoms: C_7  and  O_8
REMARK    4  A    between atoms: O_8  and  C_9
REMARK    5  A    between atoms: N_14  and  C_15
REMARK    6  A    between atoms: C_15  and  C_16
REMARK    7  A    between atoms: C_25  and  C_26
REMARK                            x       y       z     vdW  Elec       q    Type
REMARK                         _______ _______ _______ _____ _____    ______ ____
ROOT
ATOM      1  C   UNL     1       2.272   6.682  20.206  0.00  0.00    +0.000 C 
ATOM      2  C   UNL     1       1.654   8.051  20.252  0.00  0.00    +0.000 A 
ATOM      3  C   UNL     1       1.108   8.511  21.469  0.00  0.00    +0.000 A 
ATOM      4  C   UNL     1       0.504   9.777  21.521  0.00  0.00    +0.000 A 
ATOM      5  N   UNL     1      -0.096  10.390  22.577  0.00  0.00    +0.000 NA
ATOM      6  C   UNL     1      -0.527  11.557  22.122  0.00  0.00    +0.000 A 
ATOM      7  N   UNL     1      -0.257  11.683  20.770  0.00  0.00    +0.000 N 
ATOM      8  C   UNL     1       0.457  10.566  20.384  0.00  0.00    +0.000 A 
ATOM      9  C   UNL     1       1.037  10.164  19.173  0.00  0.00    +0.000 A 
ATOM     10  C   UNL     1       1.587   8.868  19.100  0.00  0.00    +0.000 A 
ATOM     11  C   UNL     1       2.063   8.366  17.769  0.00  0.00    +0.000 C 
ENDROOT
BRANCH   6  12
ATOM     12  C   UNL     1      -1.223  12.574  22.965  0.00  0.00    +0.000 C 
BRANCH  12  13
ATOM     13  O   UNL     1      -2.537  12.140  23.324  0.00  0.00    +0.000 OA
BRANCH  13  14
ATOM     14  C   UNL     1      -3.318  13.077  24.057  0.00  0.00    +0.000 C 
ATOM     15  C   UNL     1      -2.668  14.432  24.310  0.00  0.00    +0.000 C 
ATOM     16  C   UNL     1      -3.850  15.346  24.591  0.00  0.00    +0.000 C 
ATOM     17  C   UNL     1      -5.002  14.802  23.749  0.00  0.00    +0.000 C 
ATOM     18  C   UNL     1      -4.537  13.449  23.217  0.00  0.00    +0.000 C 
ENDBRANCH  13  14
ENDBRANCH  12  13
ENDBRANCH   6  12
BRANCH   7  19
ATOM     19  C   UNL     1      -0.761  12.716  19.869  0.00  0.00    +0.000 C 
BRANCH  19  20
ATOM     20  C   UNL     1      -2.130  12.383  19.332  0.00  0.00    +0.000 A 
ATOM     21  C   UNL     1      -3.286  12.848  19.975  0.00  0.00    +0.000 A 
ATOM     22  C   UNL     1      -4.547  12.400  19.579  0.00  0.00    +0.000 A 
ATOM     23  C   UNL     1      -4.660  11.513  18.513  0.00  0.00    +0.000 A 
ATOM     24 CL   UNL     1      -6.199  10.858  18.109  0.00  0.00    +0.000 Cl
ATOM     25  C   UNL     1      -3.531  11.124  17.797  0.00  0.00    +0.000 A 
ATOM     26  C   UNL     1      -2.268  11.564  18.200  0.00  0.00    +0.000 A 
ENDBRANCH  19  20
ENDBRANCH   7  19
TORSDOF 5
ENDMDL
MODEL 7
REMARK VINA RESULT:      -7.0      3.032      6.770
REMARK  Name = 
REMARK  7 active torsions:
REMARK  status: ('A' for Active; 'I' for Inactive)
REMARK    1  A    between atoms: C_1  and  C_2
REMARK    2  A    between atoms: C_6  and  C_7
REMARK    3  A    between atoms: C_7  and  O_8
REMARK    4  A    between atoms: O_8  and  C_9
REMARK    5  A    between atoms: N_14  and  C_15
REMARK    6  A    between atoms: C_15  and  C_16
REMARK    7  A    between atoms: C_25  and  C_26
REMARK                            x       y       z     vdW  Elec       q    Type
REMARK                         _______ _______ _______ _____ _____    ______ ____
ROOT
ATOM      1  C   UNL     1      -1.103  12.146  19.505  0.00  0.00    +0.000 C 
ATOM      2  C   UNL     1      -0.205  10.949  19.632  0.00  0.00    +0.000 A 
ATOM      3  C   UNL     1       0.489  10.494  18.491  0.00  0.00    +0.000 A 
ATOM      4  C   UNL     1       1.311   9.360  18.587  0.00  0.00    +0.000 A 
ATOM      5  N   UNL     1       2.039   8.752  17.612  0.00  0.00    +0.000 NA
ATOM      6  C   UNL     1       2.627   7.716  18.191  0.00  0.00    +0.000 A 
ATOM      7  N   UNL     1       2.246   7.618  19.518  0.00  0.00    +0.000 N 
ATOM      8  C   UNL     1       1.442   8.705  19.800  0.00  0.00    +0.000 A 
ATOM      9  C   UNL     1       0.812   9.160  20.966  0.00  0.00    +0.000 A 
ATOM     10  C   UNL     1      -0.065  10.259  20.859  0.00  0.00    +0.000 A 
ATOM     11  C   UNL     1      -0.870  10.654  22.062  0.00  0.00    +0.000 C 
ENDROOT
BRANCH   6  12
ATOM     12  C   UNL     1       3.554   6.783  17.485  0.00  0.00    +0.000 C 
BRANCH  12  13
ATOM     13  O   UNL     1       4.894   7.283  17.486  0.00  0.00    +0.000 OA
BRANCH  13  14
ATOM     14  C   UNL     1       5.848   6.494  16.784  0.00  0.00    +0.000 C 
ATOM     15  C   UNL     1       6.932   5.846  17.636  0.00  0.00    +0.000 C 
ATOM     16  C   UNL     1       7.427   4.699  16.769  0.00  0.00    +0.000 C 
ATOM     17  C   UNL     1       6.213   4.235  15.966  0.00  0.00    +0.000 C 
ATOM     18  C   UNL     1       5.129   5.285  16.190  0.00  0.00    +0.000 C 
ENDBRANCH  13  14
ENDBRANCH  12  13
ENDBRANCH   6  12
BRANCH   7  19
ATOM     19  C   UNL     1       2.503   6.500  20.423  0.00  0.00    +0.000 C 
BRANCH  19  20
ATOM     20  C   UNL     1       2.822   5.229  19.679  0.00  0.00    +0.000 A 
ATOM     21  C   UNL     1       1.819   4.526  18.996  0.00  0.00    +0.000 A 
ATOM     22  C   UNL     1       2.080   3.266  18.454  0.00  0.00    +0.000 A 
ATOM     23  C   UNL     1       3.355   2.720  18.560  0.00  0.00    +0.000 A 
ATOM     24 CL   UNL     1       3.643   1.115  18.010  0.00  0.00    +0.000 Cl
ATOM     25  C   UNL     1       4.388   3.450  19.141  0.00  0.00    +0.000 A 
ATOM     26  C   UNL     1       4.125   4.706  19.693  0.00  0.00    +0.000 A 
ENDBRANCH  19  20
ENDBRANCH   7  19
TORSDOF 5
ENDMDL
MODEL 8
REMARK VINA RESULT:      -7.0      3.036      6.462
REMARK  Name = 
REMARK  7 active torsions:
REMARK  status: ('A' for Active; 'I' for Inactive)
REMARK    1  A    between atoms: C_1  and  C_2
REMARK    2  A    between atoms: C_6  and  C_7
REMARK    3  A    between atoms: C_7  and  O_8
REMARK    4  A    between atoms: O_8  and  C_9
REMARK    5  A    between atoms: N_14  and  C_15
REMARK    6  A    between atoms: C_15  and  C_16
REMARK    7  A    between atoms: C_25  and  C_26
REMARK                            x       y       z     vdW  Elec       q    Type
REMARK                         _______ _______ _______ _____ _____    ______ ____
ROOT
ATOM      1  C   UNL     1       0.984   1.420  18.896  0.00  0.00    +0.000 C 
ATOM      2  C   UNL     1       1.884   2.615  18.755  0.00  0.00    +0.000 A 
ATOM      3  C   UNL     1       1.303   3.894  18.635  0.00  0.00    +0.000 A 
ATOM      4  C   UNL     1       2.130   5.017  18.475  0.00  0.00    +0.000 A 
ATOM      5  N   UNL     1       1.773   6.321  18.319  0.00  0.00    +0.000 NA
ATOM      6  C   UNL     1       2.907   6.994  18.188  0.00  0.00    +0.000 A 
ATOM      7  N   UNL     1       3.990   6.132  18.207  0.00  0.00    +0.000 N 
ATOM      8  C   UNL     1       3.505   4.862  18.447  0.00  0.00    +0.000 A 
ATOM      9  C   UNL     1       4.119   3.614  18.619  0.00  0.00    +0.000 A 
ATOM     10  C   UNL     1       3.291   2.477  18.715  0.00  0.00    +0.000 A 
ATOM     11  C   UNL     1       3.934   1.121  18.735  0.00  0.00    +0.000 C 
ENDROOT
BRANCH   6  12
ATOM     12  C   UNL     1       2.982   8.476  18.026  0.00  0.00    +0.000 C 
BRANCH  12  13
ATOM     13  O   UNL     1       1.809   8.988  17.388  0.00  0.00    +0.000 OA
BRANCH  13  14
ATOM     14  C   UNL     1       1.042   9.911  18.153  0.00  0.00    +0.000 C 
ATOM     15  C   UNL     1      -0.455   9.928  17.871  0.00  0.00    +0.000 C 
ATOM     16  C   UNL     1      -1.047  10.545  19.128  0.00  0.00    +0.000 C 
ATOM     17  C   UNL     1      -0.133  10.107  20.271  0.00  0.00    +0.000 C 
ATOM     18  C   UNL     1       1.095   9.481  19.618  0.00  0.00    +0.000 C 
ENDBRANCH  13  14
ENDBRANCH  12  13
ENDBRANCH   6  12
BRANCH   7  19
ATOM     19  C   UNL     1       5.376   6.460  17.877  0.00  0.00    +0.000 C 
BRANCH  19  20
ATOM     20  C   UNL     1       5.805   5.855  16.565  0.00  0.00    +0.000 A 
ATOM     21  C   UNL     1       5.152   6.192  15.371  0.00  0.00    +0.000 A 
ATOM     22  C   UNL     1       5.436   5.506  14.189  0.00  0.00    +0.000 A 
ATOM     23  C   UNL     1       6.402   4.505  14.188  0.00  0.00    +0.000 A 
ATOM     24 CL   UNL     1       6.660   3.571  12.766  0.00  0.00    +0.000 Cl
ATOM     25  C   UNL     1       7.134   4.231  15.340  0.00  0.00    +0.000 A 
ATOM     26  C   UNL     1       6.842   4.910  16.526  0.00  0.00    +0.000 A 
ENDBRANCH  19  20
ENDBRANCH   7  19
TORSDOF 5
ENDMDL
MODEL 9
REMARK VINA RESULT:      -7.0      3.001      6.737
REMARK  Name = 
REMARK  7 active torsions:
REMARK  status: ('A' for Active; 'I' for Inactive)
REMARK    1  A    between atoms: C_1  and  C_2
REMARK    2  A    between atoms: C_6  and  C_7
REMARK    3  A    between atoms: C_7  and  O_8
REMARK    4  A    between atoms: O_8  and  C_9
REMARK    5  A    between atoms: N_14  and  C_15
REMARK    6  A    between atoms: C_15  and  C_16
REMARK    7  A    between atoms: C_25  and  C_26
REMARK                            x       y       z     vdW  Elec       q    Type
REMARK                         _______ _______ _______ _____ _____    ______ ____
ROOT
ATOM      1  C   UNL     1       1.802   2.148  20.855  0.00  0.00    +0.000 C 
ATOM      2  C   UNL     1       2.591   3.240  20.191  0.00  0.00    +0.000 A 
ATOM      3  C   UNL     1       1.919   4.406  19.768  0.00  0.00    +0.000 A 
ATOM      4  C   UNL     1       2.637   5.423  19.121  0.00  0.00    +0.000 A 
ATOM      5  N   UNL     1       2.179   6.602  18.621  0.00  0.00    +0.000 NA
ATOM      6  C   UNL     1       3.233   7.206  18.092  0.00  0.00    +0.000 A 
ATOM      7  N   UNL     1       4.358   6.407  18.202  0.00  0.00    +0.000 N 
ATOM      8  C   UNL     1       3.999   5.280  18.913  0.00  0.00    +0.000 A 
ATOM      9  C   UNL     1       4.709   4.161  19.367  0.00  0.00    +0.000 A 
ATOM     10  C   UNL     1       3.980   3.109  19.959  0.00  0.00    +0.000 A 
ATOM     11  C   UNL     1       4.703   1.839  20.301  0.00  0.00    +0.000 C 
ENDROOT
BRANCH   6  12
ATOM     12  C   UNL     1       3.187   8.556  17.455  0.00  0.00    +0.000 C 
BRANCH  12  13
ATOM     13  O   UNL     1       1.844   9.035  17.350  0.00  0.00    +0.000 OA
BRANCH  13  14
ATOM     14  C   UNL     1       1.423   9.924  18.378  0.00  0.00    +0.000 C 
ATOM     15  C   UNL     1       1.976  11.341  18.300  0.00  0.00    +0.000 C 
ATOM     16  C   UNL     1       0.990  12.153  19.126  0.00  0.00    +0.000 C 
ATOM     17  C   UNL     1      -0.364  11.472  18.938  0.00  0.00    +0.000 C 
ATOM     18  C   UNL     1      -0.081  10.149  18.234  0.00  0.00    +0.000 C 
ENDBRANCH  13  14
ENDBRANCH  12  13
ENDBRANCH   6  12
BRANCH   7  19
ATOM     19  C   UNL     1       5.651   6.622  17.556  0.00  0.00    +0.000 C 
BRANCH  19  20
ATOM     20  C   UNL     1       5.861   5.697  16.384  0.00  0.00    +0.000 A 
ATOM     21  C   UNL     1       7.152   5.415  15.915  0.00  0.00    +0.000 A 
ATOM     22  C   UNL     1       7.336   4.698  14.731  0.00  0.00    +0.000 A 
ATOM     23  C   UNL     1       6.229   4.229  14.030  0.00  0.00    +0.000 A 
ATOM     24 CL   UNL     1       6.447   3.462  12.506  0.00  0.00    +0.000 Cl
ATOM     25  C   UNL     1       4.945   4.409  14.539  0.00  0.00    +0.000 A 
ATOM     26  C   UNL     1       4.761   5.135  15.718  0.00  0.00    +0.000 A 
ENDBRANCH  19  20
ENDBRANCH   7  19
TORSDOF 5
ENDMDL
