MODEL 1
REMARK VINA RESULT:      -7.6      0.000      0.000
REMARK  Name = 
REMARK  6 active torsions:
REMARK  status: ('A' for Active; 'I' for Inactive)
REMARK    1  A    between atoms: C_1  and  O_2
REMARK    2  A    between atoms: O_2  and  C_3
REMARK    3  A    between atoms: C_9  and  O_10
REMARK    4  A    between atoms: O_10  and  C_11
REMARK    5  A    between atoms: C_20  and  O_21
REMARK    6  A    between atoms: O_21  and  C_22
REMARK                            x       y       z     vdW  Elec       q    Type
REMARK                         _______ _______ _______ _____ _____    ______ ____
ROOT
ATOM      1  C   UNL     1       6.381   4.647  16.631  0.00  0.00    +0.000 A 
ATOM      2  C   UNL     1       5.220   3.865  16.518  0.00  0.00    +0.000 A 
ATOM      3  C   UNL     1       4.087   4.106  17.270  0.00  0.00    +0.000 A 
ATOM      4  N   UNL     1       2.988   3.394  16.995  0.00  0.00    +0.000 NA
ATOM      5  C   UNL     1       1.878   3.716  17.662  0.00  0.00    +0.000 A 
ATOM      6  N   UNL     1       1.777   4.661  18.594  0.00  0.00    +0.000 NA
ATOM      7  C   UNL     1       2.917   5.315  18.903  0.00  0.00    +0.000 A 
ATOM      8  C   UNL     1       4.132   5.099  18.247  0.00  0.00    +0.000 A 
ATOM      9  C   UNL     1       5.342   5.794  18.477  0.00  0.00    +0.000 A 
ATOM     10  C   UNL     1       6.465   5.594  17.664  0.00  0.00    +0.000 A 
ENDROOT
BRANCH   1  12
ATOM     11  C   UNL     1       7.143   4.826  14.396  0.00  0.00    +0.000 C 
ATOM     12  O   UNL     1       7.422   4.476  15.759  0.00  0.00    +0.000 OA
ENDBRANCH   1  12
BRANCH  10  13
ATOM     13  O   UNL     1       7.501   6.410  18.007  0.00  0.00    +0.000 OA
ATOM     14  C   UNL     1       7.557   7.737  17.509  0.00  0.00    +0.000 C 
ENDBRANCH  10  13
BRANCH   7  15
ATOM     15  O   UNL     1       2.871   6.294  19.899  0.00  0.00    +0.000 OA
BRANCH  15  16
ATOM     16  C   UNL     1       2.224   7.471  19.588  0.00  0.00    +0.000 A 
ATOM     17  C   UNL     1       2.285   8.034  18.306  0.00  0.00    +0.000 A 
ATOM     18  C   UNL     1       1.691   9.268  18.051  0.00  0.00    +0.000 A 
ATOM     19  C   UNL     1       0.983   9.914  19.063  0.00  0.00    +0.000 A 
ATOM     20  C   UNL     1       0.863   9.316  20.320  0.00  0.00    +0.000 A 
ATOM     21 CL   UNL     1      -0.051  10.105  21.544  0.00  0.00    +0.000 Cl
ATOM     22  C   UNL     1       1.476   8.090  20.588  0.00  0.00    +0.000 A 
ENDBRANCH  15  16
ENDBRANCH   7  15
TORSDOF 4
ENDMDL
MODEL 2
REMARK VINA RESULT:      -7.2      3.213      6.317
REMARK  Name = 
REMARK  6 active torsions:
REMARK  status: ('A' for Active; 'I' for Inactive)
REMARK    1  A    between atoms: C_1  and  O_2
REMARK    2  A    between atoms: O_2  and  C_3
REMARK    3  A    between atoms: C_9  and  O_10
REMARK    4  A    between atoms: O_10  and  C_11
REMARK    5  A    between atoms: C_20  and  O_21
REMARK    6  A    between atoms: O_21  and  C_22
REMARK                            x       y       z     vdW  Elec       q    Type
REMARK                         _______ _______ _______ _____ _____    ______ ____
ROOT
ATOM      1  C   UNL     1       1.824   7.363  20.316  0.00  0.00    +0.000 A 
ATOM      2  C   UNL     1       1.600   6.080  20.842  0.00  0.00    +0.000 A 
ATOM      3  C   UNL     1       1.954   4.928  20.166  0.00  0.00    +0.000 A 
ATOM      4  N   UNL     1       1.824   3.761  20.806  0.00  0.00    +0.000 NA
ATOM      5  C   UNL     1       2.269   2.673  20.173  0.00  0.00    +0.000 A 
ATOM      6  N   UNL     1       2.803   2.647  18.954  0.00  0.00    +0.000 NA
ATOM      7  C   UNL     1       2.857   3.829  18.303  0.00  0.00    +0.000 A 
ATOM      8  C   UNL     1       2.462   5.042  18.873  0.00  0.00    +0.000 A 
ATOM      9  C   UNL     1       2.553   6.318  18.271  0.00  0.00    +0.000 A 
ATOM     10  C   UNL     1       2.259   7.486  18.987  0.00  0.00    +0.000 A 
ENDROOT
BRANCH   1  12
ATOM     11  C   UNL     1       0.240   8.704  21.457  0.00  0.00    +0.000 C 
ATOM     12  O   UNL     1       1.605   8.475  21.082  0.00  0.00    +0.000 OA
ENDBRANCH   1  12
BRANCH  10  13
ATOM     13  O   UNL     1       2.477   8.611  18.249  0.00  0.00    +0.000 OA
ATOM     14  C   UNL     1       1.383   9.424  17.854  0.00  0.00    +0.000 C 
ENDBRANCH  10  13
BRANCH   7  15
ATOM     15  O   UNL     1       3.378   3.849  17.006  0.00  0.00    +0.000 OA
BRANCH  15  16
ATOM     16  C   UNL     1       4.721   4.132  16.878  0.00  0.00    +0.000 A 
ATOM     17  C   UNL     1       5.567   4.233  17.992  0.00  0.00    +0.000 A 
ATOM     18  C   UNL     1       6.899   4.605  17.832  0.00  0.00    +0.000 A 
ATOM     19  C   UNL     1       7.405   4.819  16.550  0.00  0.00    +0.000 A 
ATOM     20  C   UNL     1       6.579   4.648  15.438  0.00  0.00    +0.000 A 
ATOM     21 CL   UNL     1       7.230   4.873  13.862  0.00  0.00    +0.000 Cl
ATOM     22  C   UNL     1       5.235   4.298  15.594  0.00  0.00    +0.000 A 
ENDBRANCH  15  16
ENDBRANCH   7  15
TORSDOF 4
ENDMDL
MODEL 3
REMARK VINA RESULT:      -7.1      3.955      7.126
REMARK  Name = 
REMARK  6 active torsions:
REMARK  status: ('A' for Active; 'I' for Inactive)
REMARK    1  A    between atoms: C_1  and  O_2
REMARK    2  A    between atoms: O_2  and  C_3
REMARK    3  A    between atoms: C_9  and  O_10
REMARK    4  A    between atoms: O_10  and  C_11
REMARK    5  A    between atoms: C_20  and  O_21
REMARK    6  A    between atoms: O_21  and  C_22
REMARK                            x       y       z     vdW  Elec       q    Type
REMARK                         _______ _______ _______ _____ _____    ______ ____
ROOT
ATOM      1  C   UNL     1       2.315   3.975  18.188  0.00  0.00    +0.000 A 
ATOM      2  C   UNL     1       2.630   5.342  18.121  0.00  0.00    +0.000 A 
ATOM      3  C   UNL     1       3.781   5.811  17.519  0.00  0.00    +0.000 A 
ATOM      4  N   UNL     1       3.925   7.134  17.386  0.00  0.00    +0.000 NA
ATOM      5  C   UNL     1       4.995   7.559  16.710  0.00  0.00    +0.000 A 
ATOM      6  N   UNL     1       5.940   6.785  16.182  0.00  0.00    +0.000 NA
ATOM      7  C   UNL     1       5.806   5.458  16.393  0.00  0.00    +0.000 A 
ATOM      8  C   UNL     1       4.712   4.887  17.048  0.00  0.00    +0.000 A 
ATOM      9  C   UNL     1       4.481   3.505  17.243  0.00  0.00    +0.000 A 
ATOM     10  C   UNL     1       3.280   3.036  17.790  0.00  0.00    +0.000 A 
ENDROOT
BRANCH   1  12
ATOM     11  C   UNL     1       0.892   3.709  20.062  0.00  0.00    +0.000 C 
ATOM     12  O   UNL     1       1.094   3.564  18.649  0.00  0.00    +0.000 OA
ENDBRANCH   1  12
BRANCH  10  13
ATOM     13  O   UNL     1       3.228   1.674  17.827  0.00  0.00    +0.000 OA
ATOM     14  C   UNL     1       3.765   0.973  18.937  0.00  0.00    +0.000 C 
ENDBRANCH  10  13
BRANCH   7  15
ATOM     15  O   UNL     1       6.791   4.603  15.888  0.00  0.00    +0.000 OA
BRANCH  15  16
ATOM     16  C   UNL     1       6.906   4.526  14.516  0.00  0.00    +0.000 A 
ATOM     17  C   UNL     1       7.805   5.328  13.801  0.00  0.00    +0.000 A 
ATOM     18  C   UNL     1       7.833   5.285  12.409  0.00  0.00    +0.000 A 
ATOM     19  C   UNL     1       7.001   4.395  11.731  0.00  0.00    +0.000 A 
ATOM     20  C   UNL     1       6.156   3.546  12.449  0.00  0.00    +0.000 A 
ATOM     21 CL   UNL     1       5.169   2.424  11.600  0.00  0.00    +0.000 Cl
ATOM     22  C   UNL     1       6.108   3.601  13.845  0.00  0.00    +0.000 A 
ENDBRANCH  15  16
ENDBRANCH   7  15
TORSDOF 4
ENDMDL
MODEL 4
REMARK VINA RESULT:      -7.0      1.130      1.542
REMARK  Name = 
REMARK  6 active torsions:
REMARK  status: ('A' for Active; 'I' for Inactive)
REMARK    1  A    between atoms: C_1  and  O_2
REMARK    2  A    between atoms: O_2  and  C_3
REMARK    3  A    between atoms: C_9  and  O_10
REMARK    4  A    between atoms: O_10  and  C_11
REMARK    5  A    between atoms: C_20  and  O_21
REMARK    6  A    between atoms: O_21  and  C_22
REMARK                            x       y       z     vdW  Elec       q    Type
REMARK                         _______ _______ _______ _____ _____    ______ ____
ROOT
ATOM      1  C   UNL     1       5.968   4.373  16.759  0.00  0.00    +0.000 A 
ATOM      2  C   UNL     1       4.747   3.699  16.591  0.00  0.00    +0.000 A 
ATOM      3  C   UNL     1       3.658   3.917  17.413  0.00  0.00    +0.000 A 
ATOM      4  N   UNL     1       2.501   3.329  17.089  0.00  0.00    +0.000 NA
ATOM      5  C   UNL     1       1.439   3.637  17.837  0.00  0.00    +0.000 A 
ATOM      6  N   UNL     1       1.438   4.453  18.888  0.00  0.00    +0.000 NA
ATOM      7  C   UNL     1       2.633   4.977  19.234  0.00  0.00    +0.000 A 
ATOM      8  C   UNL     1       3.808   4.765  18.509  0.00  0.00    +0.000 A 
ATOM      9  C   UNL     1       5.074   5.334  18.780  0.00  0.00    +0.000 A 
ATOM     10  C   UNL     1       6.153   5.165  17.904  0.00  0.00    +0.000 A 
ENDROOT
BRANCH   1  12
ATOM     11  C   UNL     1       6.659   4.761  14.528  0.00  0.00    +0.000 C 
ATOM     12  O   UNL     1       6.965   4.247  15.832  0.00  0.00    +0.000 OA
ENDBRANCH   1  12
BRANCH  10  13
ATOM     13  O   UNL     1       7.259   5.851  18.310  0.00  0.00    +0.000 OA
ATOM     14  C   UNL     1       7.538   7.133  17.769  0.00  0.00    +0.000 C 
ENDBRANCH  10  13
BRANCH   7  15
ATOM     15  O   UNL     1       2.692   5.815  20.352  0.00  0.00    +0.000 OA
BRANCH  15  16
ATOM     16  C   UNL     1       2.037   7.024  20.260  0.00  0.00    +0.000 A 
ATOM     17  C   UNL     1       1.169   7.476  21.264  0.00  0.00    +0.000 A 
ATOM     18  C   UNL     1       0.457   8.661  21.098  0.00  0.00    +0.000 A 
ATOM     19  C   UNL     1       0.658   9.430  19.952  0.00  0.00    +0.000 A 
ATOM     20  C   UNL     1       1.577   9.013  18.986  0.00  0.00    +0.000 A 
ATOM     21 CL   UNL     1       1.845   9.995  17.600  0.00  0.00    +0.000 Cl
ATOM     22  C   UNL     1       2.276   7.813  19.137  0.00  0.00    +0.000 A 
ENDBRANCH  15  16
ENDBRANCH   7  15
TORSDOF 4
ENDMDL
MODEL 5
REMARK VINA RESULT:      -6.9      1.159      1.190
REMARK  Name = 
REMARK  6 active torsions:
REMARK  status: ('A' for Active; 'I' for Inactive)
REMARK    1  A    between atoms: C_1  and  O_2
REMARK    2  A    between atoms: O_2  and  C_3
REMARK    3  A    between atoms: C_9  and  O_10
REMARK    4  A    between atoms: O_10  and  C_11
REMARK    5  A    between atoms: C_20  and  O_21
REMARK    6  A    between atoms: O_21  and  C_22
REMARK                            x       y       z     vdW  Elec       q    Type
REMARK                         _______ _______ _______ _____ _____    ______ ____
ROOT
ATOM      1  C   UNL     1       4.934   4.945  16.009  0.00  0.00    +0.000 A 
ATOM      2  C   UNL     1       3.968   4.045  16.488  0.00  0.00    +0.000 A 
ATOM      3  C   UNL     1       3.206   4.302  17.611  0.00  0.00    +0.000 A 
ATOM      4  N   UNL     1       2.221   3.447  17.910  0.00  0.00    +0.000 NA
ATOM      5  C   UNL     1       1.433   3.771  18.937  0.00  0.00    +0.000 A 
ATOM      6  N   UNL     1       1.559   4.851  19.704  0.00  0.00    +0.000 NA
ATOM      7  C   UNL     1       2.604   5.659  19.425  0.00  0.00    +0.000 A 
ATOM      8  C   UNL     1       3.474   5.452  18.352  0.00  0.00    +0.000 A 
ATOM      9  C   UNL     1       4.544   6.293  17.967  0.00  0.00    +0.000 A 
ATOM     10  C   UNL     1       5.266   6.064  16.789  0.00  0.00    +0.000 A 
ENDROOT
BRANCH   1  12
ATOM     11  C   UNL     1       6.904   4.252  14.892  0.00  0.00    +0.000 C 
ATOM     12  O   UNL     1       5.552   4.726  14.808  0.00  0.00    +0.000 OA
ENDBRANCH   1  12
BRANCH  10  13
ATOM     13  O   UNL     1       6.205   7.026  16.565  0.00  0.00    +0.000 OA
ATOM     14  C   UNL     1       7.355   7.101  17.392  0.00  0.00    +0.000 C 
ENDBRANCH  10  13
BRANCH   7  15
ATOM     15  O   UNL     1       2.800   6.790  20.223  0.00  0.00    +0.000 OA
BRANCH  15  16
ATOM     16  C   UNL     1       1.894   7.820  20.079  0.00  0.00    +0.000 A 
ATOM     17  C   UNL     1       1.709   8.478  18.855  0.00  0.00    +0.000 A 
ATOM     18  C   UNL     1       0.849   9.570  18.768  0.00  0.00    +0.000 A 
ATOM     19  C   UNL     1       0.127   9.970  19.891  0.00  0.00    +0.000 A 
ATOM     20  C   UNL     1       0.260   9.268  21.091  0.00  0.00    +0.000 A 
ATOM     21 CL   UNL     1      -0.671   9.746  22.455  0.00  0.00    +0.000 Cl
ATOM     22  C   UNL     1       1.139   8.186  21.191  0.00  0.00    +0.000 A 
ENDBRANCH  15  16
ENDBRANCH   7  15
TORSDOF 4
ENDMDL
MODEL 6
REMARK VINA RESULT:      -6.8      2.787      6.069
REMARK  Name = 
REMARK  6 active torsions:
REMARK  status: ('A' for Active; 'I' for Inactive)
REMARK    1  A    between atoms: C_1  and  O_2
REMARK    2  A    between atoms: O_2  and  C_3
REMARK    3  A    between atoms: C_9  and  O_10
REMARK    4  A    between atoms: O_10  and  C_11
REMARK    5  A    between atoms: C_20  and  O_21
REMARK    6  A    between atoms: O_21  and  C_22
REMARK                            x       y       z     vdW  Elec       q    Type
REMARK                         _______ _______ _______ _____ _____    ______ ____
ROOT
ATOM      1  C   UNL     1       1.781   7.565  20.227  0.00  0.00    +0.000 A 
ATOM      2  C   UNL     1       1.594   6.308  20.825  0.00  0.00    +0.000 A 
ATOM      3  C   UNL     1       1.990   5.131  20.220  0.00  0.00    +0.000 A 
ATOM      4  N   UNL     1       1.893   3.999  20.926  0.00  0.00    +0.000 NA
ATOM      5  C   UNL     1       2.377   2.892  20.359  0.00  0.00    +0.000 A 
ATOM      6  N   UNL     1       2.920   2.812  19.147  0.00  0.00    +0.000 NA
ATOM      7  C   UNL     1       2.940   3.955  18.429  0.00  0.00    +0.000 A 
ATOM      8  C   UNL     1       2.503   5.186  18.925  0.00  0.00    +0.000 A 
ATOM      9  C   UNL     1       2.557   6.428  18.250  0.00  0.00    +0.000 A 
ATOM     10  C   UNL     1       2.221   7.625  18.895  0.00  0.00    +0.000 A 
ENDROOT
BRANCH   1  12
ATOM     11  C   UNL     1       0.336   8.685  21.733  0.00  0.00    +0.000 C 
ATOM     12  O   UNL     1       1.521   8.713  20.926  0.00  0.00    +0.000 OA
ENDBRANCH   1  12
BRANCH  10  13
ATOM     13  O   UNL     1       2.408   8.712  18.094  0.00  0.00    +0.000 OA
ATOM     14  C   UNL     1       1.334   9.606  17.849  0.00  0.00    +0.000 C 
ENDBRANCH  10  13
BRANCH   7  15
ATOM     15  O   UNL     1       3.469   3.917  17.135  0.00  0.00    +0.000 OA
BRANCH  15  16
ATOM     16  C   UNL     1       4.807   4.225  17.000  0.00  0.00    +0.000 A 
ATOM     17  C   UNL     1       5.476   4.098  15.775  0.00  0.00    +0.000 A 
ATOM     18  C   UNL     1       6.846   4.334  15.694  0.00  0.00    +0.000 A 
ATOM     19  C   UNL     1       7.540   4.757  16.827  0.00  0.00    +0.000 A 
ATOM     20  C   UNL     1       6.857   4.952  18.029  0.00  0.00    +0.000 A 
ATOM     21 CL   UNL     1       7.719   5.516  19.406  0.00  0.00    +0.000 Cl
ATOM     22  C   UNL     1       5.486   4.694  18.122  0.00  0.00    +0.000 A 
ENDBRANCH  15  16
ENDBRANCH   7  15
TORSDOF 4
ENDMDL
MODEL 7
REMARK VINA RESULT:      -6.8      4.476      7.253
REMARK  Name = 
REMARK  6 active torsions:
REMARK  status: ('A' for Active; 'I' for Inactive)
REMARK    1  A    between atoms: C_1  and  O_2
REMARK    2  A    between atoms: O_2  and  C_3
REMARK    3  A    between atoms: C_9  and  O_10
REMARK    4  A    between atoms: O_10  and  C_11
REMARK    5  A    between atoms: C_20  and  O_21
REMARK    6  A    between atoms: O_21  and  C_22
REMARK                            x       y       z     vdW  Elec       q    Type
REMARK                         _______ _______ _______ _____ _____    ______ ____
ROOT
ATOM      1  C   UNL     1       3.460   3.509  19.557  0.00  0.00    +0.000 A 
ATOM      2  C   UNL     1       4.839   3.743  19.685  0.00  0.00    +0.000 A 
ATOM      3  C   UNL     1       5.599   4.282  18.665  0.00  0.00    +0.000 A 
ATOM      4  N   UNL     1       6.873   4.592  18.929  0.00  0.00    +0.000 NA
ATOM      5  C   UNL     1       7.557   5.206  17.961  0.00  0.00    +0.000 A 
ATOM      6  N   UNL     1       7.091   5.509  16.752  0.00  0.00    +0.000 NA
ATOM      7  C   UNL     1       5.825   5.121  16.488  0.00  0.00    +0.000 A 
ATOM      8  C   UNL     1       4.994   4.509  17.430  0.00  0.00    +0.000 A 
ATOM      9  C   UNL     1       3.643   4.138  17.239  0.00  0.00    +0.000 A 
ATOM     10  C   UNL     1       2.860   3.659  18.297  0.00  0.00    +0.000 A 
ENDROOT
BRANCH   1  12
ATOM     11  C   UNL     1       2.112   4.195  21.380  0.00  0.00    +0.000 C 
ATOM     12  O   UNL     1       2.717   3.125  20.640  0.00  0.00    +0.000 OA
ENDBRANCH   1  12
BRANCH  10  13
ATOM     13  O   UNL     1       1.571   3.427  17.921  0.00  0.00    +0.000 OA
ATOM     14  C   UNL     1       0.859   2.328  18.466  0.00  0.00    +0.000 C 
ENDBRANCH  10  13
BRANCH   7  15
ATOM     15  O   UNL     1       5.299   5.386  15.220  0.00  0.00    +0.000 OA
BRANCH  15  16
ATOM     16  C   UNL     1       5.991   4.879  14.140  0.00  0.00    +0.000 A 
ATOM     17  C   UNL     1       7.220   5.413  13.730  0.00  0.00    +0.000 A 
ATOM     18  C   UNL     1       7.847   4.933  12.583  0.00  0.00    +0.000 A 
ATOM     19  C   UNL     1       7.276   3.875  11.877  0.00  0.00    +0.000 A 
ATOM     20  C   UNL     1       6.088   3.297  12.329  0.00  0.00    +0.000 A 
ATOM     21 CL   UNL     1       5.420   1.965  11.472  0.00  0.00    +0.000 Cl
ATOM     22  C   UNL     1       5.442   3.790  13.466  0.00  0.00    +0.000 A 
ENDBRANCH  15  16
ENDBRANCH   7  15
TORSDOF 4
ENDMDL
MODEL 8
REMARK VINA RESULT:      -6.7      3.194      4.645
REMARK  Name = 
REMARK  6 active torsions:
REMARK  status: ('A' for Active; 'I' for Inactive)
REMARK    1  A    between atoms: C_1  and  O_2
REMARK    2  A    between atoms: O_2  and  C_3
REMARK    3  A    between atoms: C_9  and  O_10
REMARK    4  A    between atoms: O_10  and  C_11
REMARK    5  A    between atoms: C_20  and  O_21
REMARK    6  A    between atoms: O_21  and  C_22
REMARK                            x       y       z     vdW  Elec       q    Type
REMARK                         _______ _______ _______ _____ _____    ______ ____
ROOT
ATOM      1  C   UNL     1       7.020   4.754  13.753  0.00  0.00    +0.000 A 
ATOM      2  C   UNL     1       7.594   5.174  14.964  0.00  0.00    +0.000 A 
ATOM      3  C   UNL     1       7.015   4.915  16.191  0.00  0.00    +0.000 A 
ATOM      4  N   UNL     1       7.705   5.237  17.291  0.00  0.00    +0.000 NA
ATOM      5  C   UNL     1       7.171   4.882  18.462  0.00  0.00    +0.000 A 
ATOM      6  N   UNL     1       6.005   4.264  18.630  0.00  0.00    +0.000 NA
ATOM      7  C   UNL     1       5.297   4.015  17.508  0.00  0.00    +0.000 A 
ATOM      8  C   UNL     1       5.765   4.299  16.222  0.00  0.00    +0.000 A 
ATOM      9  C   UNL     1       5.104   4.005  15.007  0.00  0.00    +0.000 A 
ATOM     10  C   UNL     1       5.727   4.206  13.769  0.00  0.00    +0.000 A 
ENDROOT
BRANCH   1  12
ATOM     11  C   UNL     1       8.596   6.012  12.511  0.00  0.00    +0.000 C 
ATOM     12  O   UNL     1       7.702   4.891  12.575  0.00  0.00    +0.000 OA
ENDBRANCH   1  12
BRANCH  10  13
ATOM     13  O   UNL     1       4.950   3.794  12.728  0.00  0.00    +0.000 OA
ATOM     14  C   UNL     1       5.369   2.710  11.914  0.00  0.00    +0.000 C 
ENDBRANCH  10  13
BRANCH   7  15
ATOM     15  O   UNL     1       4.050   3.397  17.633  0.00  0.00    +0.000 OA
BRANCH  15  16
ATOM     16  C   UNL     1       3.194   3.907  18.587  0.00  0.00    +0.000 A 
ATOM     17  C   UNL     1       2.748   5.235  18.548  0.00  0.00    +0.000 A 
ATOM     18  C   UNL     1       1.955   5.741  19.575  0.00  0.00    +0.000 A 
ATOM     19  C   UNL     1       1.555   4.901  20.614  0.00  0.00    +0.000 A 
ATOM     20  C   UNL     1       1.942   3.559  20.612  0.00  0.00    +0.000 A 
ATOM     21 CL   UNL     1       1.405   2.526  21.877  0.00  0.00    +0.000 Cl
ATOM     22  C   UNL     1       2.758   3.053  19.597  0.00  0.00    +0.000 A 
ENDBRANCH  15  16
ENDBRANCH   7  15
TORSDOF 4
ENDMDL
MODEL 9
REMARK VINA RESULT:      -6.7      1.182      1.328
REMARK  Name = 
REMARK  6 active torsions:
REMARK  status: ('A' for Active; 'I' for Inactive)
REMARK    1  A    between atoms: C_1  and  O_2
REMARK    2  A    between atoms: O_2  and  C_3
REMARK    3  A    between atoms: C_9  and  O_10
REMARK    4  A    between atoms: O_10  and  C_11
REMARK    5  A    between atoms: C_20  and  O_21
REMARK    6  A    between atoms: O_21  and  C_22
REMARK                            x       y       z     vdW  Elec       q    Type
REMARK                         _______ _______ _______ _____ _____    ______ ____
ROOT
ATOM      1  C   UNL     1       6.325   5.027  16.363  0.00  0.00    +0.000 A 
ATOM      2  C   UNL     1       5.155   4.330  16.708  0.00  0.00    +0.000 A 
ATOM      3  C   UNL     1       4.067   4.950  17.292  0.00  0.00    +0.000 A 
ATOM      4  N   UNL     1       2.952   4.230  17.459  0.00  0.00    +0.000 NA
ATOM      5  C   UNL     1       1.882   4.876  17.927  0.00  0.00    +0.000 A 
ATOM      6  N   UNL     1       1.837   6.162  18.267  0.00  0.00    +0.000 NA
ATOM      7  C   UNL     1       2.995   6.847  18.155  0.00  0.00    +0.000 A 
ATOM      8  C   UNL     1       4.171   6.295  17.640  0.00  0.00    +0.000 A 
ATOM      9  C   UNL     1       5.395   6.973  17.436  0.00  0.00    +0.000 A 
ATOM     10  C   UNL     1       6.470   6.360  16.780  0.00  0.00    +0.000 A 
ENDROOT
BRANCH   1  12
ATOM     11  C   UNL     1       7.237   4.583  14.223  0.00  0.00    +0.000 C 
ATOM     12  O   UNL     1       7.314   4.412  15.645  0.00  0.00    +0.000 OA
ENDBRANCH   1  12
BRANCH  10  13
ATOM     13  O   UNL     1       7.528   7.204  16.623  0.00  0.00    +0.000 OA
ATOM     14  C   UNL     1       7.832   8.156  17.630  0.00  0.00    +0.000 C 
ENDBRANCH  10  13
BRANCH   7  15
ATOM     15  O   UNL     1       3.010   8.193  18.532  0.00  0.00    +0.000 OA
BRANCH  15  16
ATOM     16  C   UNL     1       1.804   8.752  18.897  0.00  0.00    +0.000 A 
ATOM     17  C   UNL     1       1.008   9.459  17.986  0.00  0.00    +0.000 A 
ATOM     18  C   UNL     1      -0.162  10.083  18.411  0.00  0.00    +0.000 A 
ATOM     19  C   UNL     1      -0.571   9.952  19.737  0.00  0.00    +0.000 A 
ATOM     20  C   UNL     1       0.187   9.187  20.626  0.00  0.00    +0.000 A 
ATOM     21 CL   UNL     1      -0.353   8.998  22.248  0.00  0.00    +0.000 Cl
ATOM     22  C   UNL     1       1.374   8.577  20.211  0.00  0.00    +0.000 A 
ENDBRANCH  15  16
ENDBRANCH   7  15
TORSDOF 4
ENDMDL
