MODEL 1
REMARK VINA RESULT:      -8.2      0.000      0.000
REMARK  Name = 
REMARK  7 active torsions:
REMARK  status: ('A' for Active; 'I' for Inactive)
REMARK    1  A    between atoms: C_1  and  O_2
REMARK    2  A    between atoms: O_2  and  C_3
REMARK    3  A    between atoms: C_6  and  N_7
REMARK    4  A    between atoms: N_7  and  C_8
REMARK    5  A    between atoms: N_7  and  S_16
REMARK    6  A    between atoms: C_8  and  C_9
REMARK    7  A    between atoms: S_16  and  C_19
REMARK                            x       y       z     vdW  Elec       q    Type
REMARK                         _______ _______ _______ _____ _____    ______ ____
ROOT
ATOM      1  N   UNL     1       5.336   5.412  16.810  0.00  0.00    +0.000 N 
ENDROOT
BRANCH   1   5
ATOM      2  C   UNL     1       8.254   8.045  18.520  0.00  0.00    +0.000 A 
ATOM      3  C   UNL     1       7.351   8.520  17.569  0.00  0.00    +0.000 A 
ATOM      4  C   UNL     1       6.381   7.675  17.009  0.00  0.00    +0.000 A 
ATOM      5  C   UNL     1       6.297   6.337  17.402  0.00  0.00    +0.000 A 
ATOM      6  C   UNL     1       7.234   5.850  18.323  0.00  0.00    +0.000 A 
ATOM      7  C   UNL     1       8.204   6.703  18.890  0.00  0.00    +0.000 A 
BRANCH   2   9
ATOM      8  C   UNL     1       9.010  10.300  18.473  0.00  0.00    +0.000 C 
ATOM      9  O   UNL     1       9.164   8.970  18.953  0.00  0.00    +0.000 OA
ENDBRANCH   2   9
ENDBRANCH   1   5
BRANCH   1  10
ATOM     10  S   UNL     1       4.065   4.951  17.927  0.00  0.00    +0.000 S 
ATOM     11  O   UNL     1       3.205   4.020  17.213  0.00  0.00    +0.000 OA
ATOM     12  O   UNL     1       4.680   4.550  19.174  0.00  0.00    +0.000 OA
BRANCH  10  13
ATOM     13  C   UNL     1       3.103   6.387  18.302  0.00  0.00    +0.000 A 
ATOM     14  C   UNL     1       2.896   7.504  17.377  0.00  0.00    +0.000 A 
ATOM     15  C   UNL     1       2.238   8.621  17.754  0.00  0.00    +0.000 A 
ATOM     16  C   UNL     1       1.727   8.725  19.077  0.00  0.00    +0.000 A 
ATOM     17  N   UNL     1       1.075   9.671  19.717  0.00  0.00    +0.000 NA
ATOM     18  N   UNL     1       0.825   9.218  20.996  0.00  0.00    +0.000 NA
ATOM     19  C   UNL     1       1.332   8.010  21.103  0.00  0.00    +0.000 A 
ATOM     20  N   UNL     1       1.926   7.647  19.925  0.00  0.00    +0.000 N 
ATOM     21  C   UNL     1       2.609   6.490  19.557  0.00  0.00    +0.000 A 
ENDBRANCH  10  13
ENDBRANCH   1  10
BRANCH   1  22
ATOM     22  C   UNL     1       5.930   4.192  16.163  0.00  0.00    +0.000 C 
BRANCH  22  23
ATOM     23  C   UNL     1       6.212   4.268  14.676  0.00  0.00    +0.000 A 
ATOM     24  C   UNL     1       7.284   5.063  14.227  0.00  0.00    +0.000 A 
ATOM     25  C   UNL     1       7.703   5.020  12.896  0.00  0.00    +0.000 A 
ATOM     26  C   UNL     1       7.057   4.180  11.993  0.00  0.00    +0.000 A 
ATOM     27  C   UNL     1       5.978   3.408  12.422  0.00  0.00    +0.000 A 
ATOM     28 CL   UNL     1       5.195   2.351  11.313  0.00  0.00    +0.000 Cl
ATOM     29  C   UNL     1       5.552   3.451  13.751  0.00  0.00    +0.000 A 
ENDBRANCH  22  23
ENDBRANCH   1  22
TORSDOF 6
ENDMDL
MODEL 2
REMARK VINA RESULT:      -7.9      0.676      1.327
REMARK  Name = 
REMARK  7 active torsions:
REMARK  status: ('A' for Active; 'I' for Inactive)
REMARK    1  A    between atoms: C_1  and  O_2
REMARK    2  A    between atoms: O_2  and  C_3
REMARK    3  A    between atoms: C_6  and  N_7
REMARK    4  A    between atoms: N_7  and  C_8
REMARK    5  A    between atoms: N_7  and  S_16
REMARK    6  A    between atoms: C_8  and  C_9
REMARK    7  A    between atoms: S_16  and  C_19
REMARK                            x       y       z     vdW  Elec       q    Type
REMARK                         _______ _______ _______ _____ _____    ______ ____
ROOT
ATOM      1  N   UNL     1       5.009   5.025  16.880  0.00  0.00    +0.000 N 
ENDROOT
BRANCH   1   5
ATOM      2  C   UNL     1       8.047   7.584  18.490  0.00  0.00    +0.000 A 
ATOM      3  C   UNL     1       7.177   8.058  17.510  0.00  0.00    +0.000 A 
ATOM      4  C   UNL     1       6.168   7.239  16.982  0.00  0.00    +0.000 A 
ATOM      5  C   UNL     1       6.012   5.928  17.437  0.00  0.00    +0.000 A 
ATOM      6  C   UNL     1       6.916   5.438  18.388  0.00  0.00    +0.000 A 
ATOM      7  C   UNL     1       7.925   6.265  18.923  0.00  0.00    +0.000 A 
BRANCH   2   9
ATOM      8  C   UNL     1       8.781   9.846  18.554  0.00  0.00    +0.000 C 
ATOM      9  O   UNL     1       9.000   8.481  18.887  0.00  0.00    +0.000 OA
ENDBRANCH   2   9
ENDBRANCH   1   5
BRANCH   1  10
ATOM     10  S   UNL     1       3.833   4.504  18.073  0.00  0.00    +0.000 S 
ATOM     11  O   UNL     1       2.813   3.760  17.350  0.00  0.00    +0.000 OA
ATOM     12  O   UNL     1       4.544   3.874  19.165  0.00  0.00    +0.000 OA
BRANCH  10  13
ATOM     13  C   UNL     1       3.061   5.938  18.762  0.00  0.00    +0.000 A 
ATOM     14  C   UNL     1       2.530   6.012  20.125  0.00  0.00    +0.000 A 
ATOM     15  C   UNL     1       1.858   7.098  20.563  0.00  0.00    +0.000 A 
ATOM     16  C   UNL     1       1.658   8.203  19.691  0.00  0.00    +0.000 A 
ATOM     17  N   UNL     1       1.046   9.358  19.829  0.00  0.00    +0.000 NA
ATOM     18  N   UNL     1       1.174  10.048  18.640  0.00  0.00    +0.000 NA
ATOM     19  C   UNL     1       1.859   9.294  17.809  0.00  0.00    +0.000 A 
ATOM     20  N   UNL     1       2.184   8.109  18.411  0.00  0.00    +0.000 N 
ATOM     21  C   UNL     1       2.873   6.994  17.938  0.00  0.00    +0.000 A 
ENDBRANCH  10  13
ENDBRANCH   1  10
BRANCH   1  22
ATOM     22  C   UNL     1       5.552   3.842  16.129  0.00  0.00    +0.000 C 
BRANCH  22  23
ATOM     23  C   UNL     1       5.888   4.049  14.666  0.00  0.00    +0.000 A 
ATOM     24  C   UNL     1       7.088   4.704  14.331  0.00  0.00    +0.000 A 
ATOM     25  C   UNL     1       7.535   4.752  13.009  0.00  0.00    +0.000 A 
ATOM     26  C   UNL     1       6.790   4.145  12.002  0.00  0.00    +0.000 A 
ATOM     27  C   UNL     1       5.587   3.516  12.321  0.00  0.00    +0.000 A 
ATOM     28 CL   UNL     1       4.677   2.743  11.081  0.00  0.00    +0.000 Cl
ATOM     29  C   UNL     1       5.132   3.468  13.640  0.00  0.00    +0.000 A 
ENDBRANCH  22  23
ENDBRANCH   1  22
TORSDOF 6
ENDMDL
MODEL 3
REMARK VINA RESULT:      -7.7      1.308      1.943
REMARK  Name = 
REMARK  7 active torsions:
REMARK  status: ('A' for Active; 'I' for Inactive)
REMARK    1  A    between atoms: C_1  and  O_2
REMARK    2  A    between atoms: O_2  and  C_3
REMARK    3  A    between atoms: C_6  and  N_7
REMARK    4  A    between atoms: N_7  and  C_8
REMARK    5  A    between atoms: N_7  and  S_16
REMARK    6  A    between atoms: C_8  and  C_9
REMARK    7  A    between atoms: S_16  and  C_19
REMARK                            x       y       z     vdW  Elec       q    Type
REMARK                         _______ _______ _______ _____ _____    ______ ____
ROOT
ATOM      1  N   UNL     1       4.970   4.725  16.652  0.00  0.00    +0.000 N 
ENDROOT
BRANCH   1   5
ATOM      2  C   UNL     1       7.874   7.358  18.383  0.00  0.00    +0.000 A 
ATOM      3  C   UNL     1       6.970   7.836  17.436  0.00  0.00    +0.000 A 
ATOM      4  C   UNL     1       6.004   6.991  16.869  0.00  0.00    +0.000 A 
ATOM      5  C   UNL     1       5.926   5.650  17.252  0.00  0.00    +0.000 A 
ATOM      6  C   UNL     1       6.864   5.160  18.170  0.00  0.00    +0.000 A 
ATOM      7  C   UNL     1       7.830   6.013  18.744  0.00  0.00    +0.000 A 
BRANCH   2   9
ATOM      8  C   UNL     1       8.641   9.609  18.326  0.00  0.00    +0.000 C 
ATOM      9  O   UNL     1       8.779   8.284  18.825  0.00  0.00    +0.000 OA
ENDBRANCH   2   9
ENDBRANCH   1   5
BRANCH   1  10
ATOM     10  S   UNL     1       3.730   4.208  17.780  0.00  0.00    +0.000 S 
ATOM     11  O   UNL     1       2.669   3.611  16.983  0.00  0.00    +0.000 OA
ATOM     12  O   UNL     1       4.364   3.435  18.827  0.00  0.00    +0.000 OA
BRANCH  10  13
ATOM     13  C   UNL     1       3.062   5.641  18.572  0.00  0.00    +0.000 A 
ATOM     14  C   UNL     1       2.639   5.684  19.974  0.00  0.00    +0.000 A 
ATOM     15  C   UNL     1       2.040   6.775  20.498  0.00  0.00    +0.000 A 
ATOM     16  C   UNL     1       1.813   7.915  19.679  0.00  0.00    +0.000 A 
ATOM     17  N   UNL     1       1.252   9.084  19.901  0.00  0.00    +0.000 NA
ATOM     18  N   UNL     1       1.313   9.810  18.729  0.00  0.00    +0.000 NA
ATOM     19  C   UNL     1       1.906   9.064  17.824  0.00  0.00    +0.000 A 
ATOM     20  N   UNL     1       2.236   7.849  18.361  0.00  0.00    +0.000 N 
ATOM     21  C   UNL     1       2.848   6.730  17.800  0.00  0.00    +0.000 A 
ENDBRANCH  10  13
ENDBRANCH   1  10
BRANCH   1  22
ATOM     22  C   UNL     1       5.572   3.536  15.957  0.00  0.00    +0.000 C 
BRANCH  22  23
ATOM     23  C   UNL     1       6.159   3.767  14.579  0.00  0.00    +0.000 A 
ATOM     24  C   UNL     1       5.494   3.231  13.459  0.00  0.00    +0.000 A 
ATOM     25  C   UNL     1       5.884   3.571  12.161  0.00  0.00    +0.000 A 
ATOM     26  C   UNL     1       6.943   4.452  11.964  0.00  0.00    +0.000 A 
ATOM     27  C   UNL     1       7.624   4.968  13.067  0.00  0.00    +0.000 A 
ATOM     28 CL   UNL     1       8.917   6.077  12.825  0.00  0.00    +0.000 Cl
ATOM     29  C   UNL     1       7.242   4.628  14.366  0.00  0.00    +0.000 A 
ENDBRANCH  22  23
ENDBRANCH   1  22
TORSDOF 6
ENDMDL
MODEL 4
REMARK VINA RESULT:      -7.7      5.929      8.967
REMARK  Name = 
REMARK  7 active torsions:
REMARK  status: ('A' for Active; 'I' for Inactive)
REMARK    1  A    between atoms: C_1  and  O_2
REMARK    2  A    between atoms: O_2  and  C_3
REMARK    3  A    between atoms: C_6  and  N_7
REMARK    4  A    between atoms: N_7  and  C_8
REMARK    5  A    between atoms: N_7  and  S_16
REMARK    6  A    between atoms: C_8  and  C_9
REMARK    7  A    between atoms: S_16  and  C_19
REMARK                            x       y       z     vdW  Elec       q    Type
REMARK                         _______ _______ _______ _____ _____    ______ ____
ROOT
ATOM      1  N   UNL     1      -0.027  10.572  18.637  0.00  0.00    +0.000 N 
ENDROOT
BRANCH   1   5
ATOM      2  C   UNL     1       2.631   7.283  19.334  0.00  0.00    +0.000 A 
ATOM      3  C   UNL     1       2.612   7.920  18.094  0.00  0.00    +0.000 A 
ATOM      4  C   UNL     1       1.758   9.006  17.853  0.00  0.00    +0.000 A 
ATOM      5  C   UNL     1       0.912   9.477  18.860  0.00  0.00    +0.000 A 
ATOM      6  C   UNL     1       0.899   8.807  20.090  0.00  0.00    +0.000 A 
ATOM      7  C   UNL     1       1.764   7.720  20.333  0.00  0.00    +0.000 A 
BRANCH   2   9
ATOM      8  C   UNL     1       4.221   5.892  18.242  0.00  0.00    +0.000 C 
ATOM      9  O   UNL     1       3.488   6.220  19.416  0.00  0.00    +0.000 OA
ENDBRANCH   2   9
ENDBRANCH   1   5
BRANCH   1  10
ATOM     10  S   UNL     1       0.334  11.982  19.616  0.00  0.00    +0.000 S 
ATOM     11  O   UNL     1       1.695  11.811  20.099  0.00  0.00    +0.000 OA
ATOM     12  O   UNL     1      -0.017  13.163  18.857  0.00  0.00    +0.000 OA
BRANCH  10  13
ATOM     13  C   UNL     1      -0.738  11.975  21.023  0.00  0.00    +0.000 A 
ATOM     14  C   UNL     1      -0.473  11.229  22.255  0.00  0.00    +0.000 A 
ATOM     15  C   UNL     1      -1.376  11.178  23.258  0.00  0.00    +0.000 A 
ATOM     16  C   UNL     1      -2.615  11.863  23.126  0.00  0.00    +0.000 A 
ATOM     17  N   UNL     1      -3.666  11.978  23.908  0.00  0.00    +0.000 NA
ATOM     18  N   UNL     1      -4.586  12.779  23.262  0.00  0.00    +0.000 NA
ATOM     19  C   UNL     1      -4.072  13.129  22.104  0.00  0.00    +0.000 A 
ATOM     20  N   UNL     1      -2.831  12.572  21.955  0.00  0.00    +0.000 N 
ATOM     21  C   UNL     1      -1.915  12.629  20.906  0.00  0.00    +0.000 A 
ENDBRANCH  10  13
ENDBRANCH   1  10
BRANCH   1  22
ATOM     22  C   UNL     1      -1.481  10.209  18.760  0.00  0.00    +0.000 C 
BRANCH  22  23
ATOM     23  C   UNL     1      -2.384  10.576  17.600  0.00  0.00    +0.000 A 
ATOM     24  C   UNL     1      -2.183   9.947  16.356  0.00  0.00    +0.000 A 
ATOM     25  C   UNL     1      -3.098  10.106  15.314  0.00  0.00    +0.000 A 
ATOM     26  C   UNL     1      -4.229  10.896  15.499  0.00  0.00    +0.000 A 
ATOM     27  C   UNL     1      -4.424  11.544  16.719  0.00  0.00    +0.000 A 
ATOM     28 CL   UNL     1      -5.835  12.500  16.957  0.00  0.00    +0.000 Cl
ATOM     29  C   UNL     1      -3.510  11.392  17.763  0.00  0.00    +0.000 A 
ENDBRANCH  22  23
ENDBRANCH   1  22
TORSDOF 6
ENDMDL
MODEL 5
REMARK VINA RESULT:      -7.7      6.245      9.220
REMARK  Name = 
REMARK  7 active torsions:
REMARK  status: ('A' for Active; 'I' for Inactive)
REMARK    1  A    between atoms: C_1  and  O_2
REMARK    2  A    between atoms: O_2  and  C_3
REMARK    3  A    between atoms: C_6  and  N_7
REMARK    4  A    between atoms: N_7  and  C_8
REMARK    5  A    between atoms: N_7  and  S_16
REMARK    6  A    between atoms: C_8  and  C_9
REMARK    7  A    between atoms: S_16  and  C_19
REMARK                            x       y       z     vdW  Elec       q    Type
REMARK                         _______ _______ _______ _____ _____    ______ ____
ROOT
ATOM      1  N   UNL     1       0.095  11.023  19.088  0.00  0.00    +0.000 N 
ENDROOT
BRANCH   1   5
ATOM      2  C   UNL     1       2.537   7.501  19.088  0.00  0.00    +0.000 A 
ATOM      3  C   UNL     1       2.509   8.335  17.972  0.00  0.00    +0.000 A 
ATOM      4  C   UNL     1       1.726   9.499  17.960  0.00  0.00    +0.000 A 
ATOM      5  C   UNL     1       0.962   9.848  19.076  0.00  0.00    +0.000 A 
ATOM      6  C   UNL     1       0.955   8.985  20.179  0.00  0.00    +0.000 A 
ATOM      7  C   UNL     1       1.749   7.819  20.192  0.00  0.00    +0.000 A 
BRANCH   2   9
ATOM      8  C   UNL     1       2.876   5.404  18.018  0.00  0.00    +0.000 C 
ATOM      9  O   UNL     1       3.317   6.386  18.947  0.00  0.00    +0.000 OA
ENDBRANCH   2   9
ENDBRANCH   1   5
BRANCH   1  10
ATOM     10  S   UNL     1       0.627  12.244  20.229  0.00  0.00    +0.000 S 
ATOM     11  O   UNL     1      -0.576  12.813  20.816  0.00  0.00    +0.000 OA
ATOM     12  O   UNL     1       1.636  11.656  21.085  0.00  0.00    +0.000 OA
BRANCH  10  13
ATOM     13  C   UNL     1       1.444  13.530  19.332  0.00  0.00    +0.000 A 
ATOM     14  C   UNL     1       2.713  13.359  18.620  0.00  0.00    +0.000 A 
ATOM     15  C   UNL     1       3.343  14.403  18.038  0.00  0.00    +0.000 A 
ATOM     16  C   UNL     1       2.769  15.701  18.110  0.00  0.00    +0.000 A 
ATOM     17  N   UNL     1       3.150  16.879  17.665  0.00  0.00    +0.000 NA
ATOM     18  N   UNL     1       2.186  17.798  18.026  0.00  0.00    +0.000 NA
ATOM     19  C   UNL     1       1.244  17.157  18.682  0.00  0.00    +0.000 A 
ATOM     20  N   UNL     1       1.561  15.829  18.779  0.00  0.00    +0.000 N 
ATOM     21  C   UNL     1       0.900  14.767  19.392  0.00  0.00    +0.000 A 
ENDBRANCH  10  13
ENDBRANCH   1  10
BRANCH   1  22
ATOM     22  C   UNL     1      -1.370  10.741  19.269  0.00  0.00    +0.000 C 
BRANCH  22  23
ATOM     23  C   UNL     1      -2.250  10.845  18.040  0.00  0.00    +0.000 A 
ATOM     24  C   UNL     1      -1.978  10.013  16.937  0.00  0.00    +0.000 A 
ATOM     25  C   UNL     1      -2.865   9.934  15.861  0.00  0.00    +0.000 A 
ATOM     26  C   UNL     1      -4.037  10.684  15.871  0.00  0.00    +0.000 A 
ATOM     27  C   UNL     1      -4.302  11.531  16.948  0.00  0.00    +0.000 A 
ATOM     28 CL   UNL     1      -5.763  12.440  16.973  0.00  0.00    +0.000 Cl
ATOM     29  C   UNL     1      -3.418  11.618  18.024  0.00  0.00    +0.000 A 
ENDBRANCH  22  23
ENDBRANCH   1  22
TORSDOF 6
ENDMDL
MODEL 6
REMARK VINA RESULT:      -7.6      2.879      5.357
REMARK  Name = 
REMARK  7 active torsions:
REMARK  status: ('A' for Active; 'I' for Inactive)
REMARK    1  A    between atoms: C_1  and  O_2
REMARK    2  A    between atoms: O_2  and  C_3
REMARK    3  A    between atoms: C_6  and  N_7
REMARK    4  A    between atoms: N_7  and  C_8
REMARK    5  A    between atoms: N_7  and  S_16
REMARK    6  A    between atoms: C_8  and  C_9
REMARK    7  A    between atoms: S_16  and  C_19
REMARK                            x       y       z     vdW  Elec       q    Type
REMARK                         _______ _______ _______ _____ _____    ______ ____
ROOT
ATOM      1  N   UNL     1       3.120   7.662  18.209  0.00  0.00    +0.000 N 
ENDROOT
BRANCH   1   5
ATOM      2  C   UNL     1       1.798   3.823  19.583  0.00  0.00    +0.000 A 
ATOM      3  C   UNL     1       2.486   4.678  20.443  0.00  0.00    +0.000 A 
ATOM      4  C   UNL     1       2.914   5.943  20.014  0.00  0.00    +0.000 A 
ATOM      5  C   UNL     1       2.650   6.374  18.712  0.00  0.00    +0.000 A 
ATOM      6  C   UNL     1       2.000   5.497  17.835  0.00  0.00    +0.000 A 
ATOM      7  C   UNL     1       1.564   4.228  18.271  0.00  0.00    +0.000 A 
BRANCH   2   9
ATOM      8  C   UNL     1       1.610   2.478  21.535  0.00  0.00    +0.000 C 
ATOM      9  O   UNL     1       1.472   2.611  20.126  0.00  0.00    +0.000 OA
ENDBRANCH   2   9
ENDBRANCH   1   5
BRANCH   1  10
ATOM     10  S   UNL     1       1.840   8.856  18.108  0.00  0.00    +0.000 S 
ATOM     11  O   UNL     1       2.438  10.057  17.547  0.00  0.00    +0.000 OA
ATOM     12  O   UNL     1       0.701   8.247  17.454  0.00  0.00    +0.000 OA
BRANCH  10  13
ATOM     13  C   UNL     1       1.305   9.242  19.749  0.00  0.00    +0.000 A 
ATOM     14  C   UNL     1       1.256   8.274  20.848  0.00  0.00    +0.000 A 
ATOM     15  C   UNL     1       0.741   8.599  22.053  0.00  0.00    +0.000 A 
ATOM     16  C   UNL     1       0.235   9.909  22.273  0.00  0.00    +0.000 A 
ATOM     17  N   UNL     1      -0.326  10.495  23.309  0.00  0.00    +0.000 NA
ATOM     18  N   UNL     1      -0.618  11.795  22.951  0.00  0.00    +0.000 NA
ATOM     19  C   UNL     1      -0.231  11.967  21.707  0.00  0.00    +0.000 A 
ATOM     20  N   UNL     1       0.307  10.807  21.219  0.00  0.00    +0.000 N 
ATOM     21  C   UNL     1       0.826  10.488  19.966  0.00  0.00    +0.000 A 
ENDBRANCH  10  13
ENDBRANCH   1  10
BRANCH   1  22
ATOM     22  C   UNL     1       3.887   7.608  16.917  0.00  0.00    +0.000 C 
BRANCH  22  23
ATOM     23  C   UNL     1       5.065   6.658  16.854  0.00  0.00    +0.000 A 
ATOM     24  C   UNL     1       5.904   6.538  17.979  0.00  0.00    +0.000 A 
ATOM     25  C   UNL     1       6.884   5.545  18.043  0.00  0.00    +0.000 A 
ATOM     26  C   UNL     1       7.040   4.657  16.983  0.00  0.00    +0.000 A 
ATOM     27  C   UNL     1       6.231   4.783  15.854  0.00  0.00    +0.000 A 
ATOM     28 CL   UNL     1       6.407   3.669  14.554  0.00  0.00    +0.000 Cl
ATOM     29  C   UNL     1       5.253   5.776  15.782  0.00  0.00    +0.000 A 
ENDBRANCH  22  23
ENDBRANCH   1  22
TORSDOF 6
ENDMDL
MODEL 7
REMARK VINA RESULT:      -7.6      1.077      1.657
REMARK  Name = 
REMARK  7 active torsions:
REMARK  status: ('A' for Active; 'I' for Inactive)
REMARK    1  A    between atoms: C_1  and  O_2
REMARK    2  A    between atoms: O_2  and  C_3
REMARK    3  A    between atoms: C_6  and  N_7
REMARK    4  A    between atoms: N_7  and  C_8
REMARK    5  A    between atoms: N_7  and  S_16
REMARK    6  A    between atoms: C_8  and  C_9
REMARK    7  A    between atoms: S_16  and  C_19
REMARK                            x       y       z     vdW  Elec       q    Type
REMARK                         _______ _______ _______ _____ _____    ______ ____
ROOT
ATOM      1  N   UNL     1       4.938   5.173  16.857  0.00  0.00    +0.000 N 
ENDROOT
BRANCH   1   5
ATOM      2  C   UNL     1       8.031   7.770  18.294  0.00  0.00    +0.000 A 
ATOM      3  C   UNL     1       7.942   6.459  18.760  0.00  0.00    +0.000 A 
ATOM      4  C   UNL     1       6.944   5.591  18.291  0.00  0.00    +0.000 A 
ATOM      5  C   UNL     1       6.022   6.027  17.336  0.00  0.00    +0.000 A 
ATOM      6  C   UNL     1       6.083   7.357  16.904  0.00  0.00    +0.000 A 
ATOM      7  C   UNL     1       7.091   8.226  17.372  0.00  0.00    +0.000 A 
BRANCH   2   9
ATOM      8  C   UNL     1       8.921   9.924  18.764  0.00  0.00    +0.000 C 
ATOM      9  O   UNL     1       9.030   8.510  18.863  0.00  0.00    +0.000 OA
ENDBRANCH   2   9
ENDBRANCH   1   5
BRANCH   1  10
ATOM     10  S   UNL     1       3.723   4.871  18.085  0.00  0.00    +0.000 S 
ATOM     11  O   UNL     1       2.766   3.945  17.500  0.00  0.00    +0.000 OA
ATOM     12  O   UNL     1       4.398   4.524  19.317  0.00  0.00    +0.000 OA
BRANCH  10  13
ATOM     13  C   UNL     1       2.869   6.385  18.412  0.00  0.00    +0.000 A 
ATOM     14  C   UNL     1       2.707   7.466  17.436  0.00  0.00    +0.000 A 
ATOM     15  C   UNL     1       2.136   8.642  17.773  0.00  0.00    +0.000 A 
ATOM     16  C   UNL     1       1.676   8.847  19.103  0.00  0.00    +0.000 A 
ATOM     17  N   UNL     1       1.108   9.866  19.711  0.00  0.00    +0.000 NA
ATOM     18  N   UNL     1       0.870   9.496  21.019  0.00  0.00    +0.000 NA
ATOM     19  C   UNL     1       1.300   8.263  21.174  0.00  0.00    +0.000 A 
ATOM     20  N   UNL     1       1.831   7.801  20.000  0.00  0.00    +0.000 N 
ATOM     21  C   UNL     1       2.425   6.584  19.673  0.00  0.00    +0.000 A 
ENDBRANCH  10  13
ENDBRANCH   1  10
BRANCH   1  22
ATOM     22  C   UNL     1       5.368   3.882  16.219  0.00  0.00    +0.000 C 
BRANCH  22  23
ATOM     23  C   UNL     1       5.994   3.969  14.842  0.00  0.00    +0.000 A 
ATOM     24  C   UNL     1       5.331   3.369  13.755  0.00  0.00    +0.000 A 
ATOM     25  C   UNL     1       5.763   3.580  12.444  0.00  0.00    +0.000 A 
ATOM     26  C   UNL     1       6.865   4.394  12.200  0.00  0.00    +0.000 A 
ATOM     27  C   UNL     1       7.545   4.971  13.272  0.00  0.00    +0.000 A 
ATOM     28 CL   UNL     1       8.892   5.998  12.970  0.00  0.00    +0.000 Cl
ATOM     29  C   UNL     1       7.120   4.761  14.585  0.00  0.00    +0.000 A 
ENDBRANCH  22  23
ENDBRANCH   1  22
TORSDOF 6
ENDMDL
MODEL 8
REMARK VINA RESULT:      -7.6      3.333      5.730
REMARK  Name = 
REMARK  7 active torsions:
REMARK  status: ('A' for Active; 'I' for Inactive)
REMARK    1  A    between atoms: C_1  and  O_2
REMARK    2  A    between atoms: O_2  and  C_3
REMARK    3  A    between atoms: C_6  and  N_7
REMARK    4  A    between atoms: N_7  and  C_8
REMARK    5  A    between atoms: N_7  and  S_16
REMARK    6  A    between atoms: C_8  and  C_9
REMARK    7  A    between atoms: S_16  and  C_19
REMARK                            x       y       z     vdW  Elec       q    Type
REMARK                         _______ _______ _______ _____ _____    ______ ____
ROOT
ATOM      1  N   UNL     1       3.032   7.558  18.330  0.00  0.00    +0.000 N 
ENDROOT
BRANCH   1   5
ATOM      2  C   UNL     1       1.479   3.825  19.753  0.00  0.00    +0.000 A 
ATOM      3  C   UNL     1       1.976   4.767  20.652  0.00  0.00    +0.000 A 
ATOM      4  C   UNL     1       2.476   5.999  20.205  0.00  0.00    +0.000 A 
ATOM      5  C   UNL     1       2.477   6.309  18.843  0.00  0.00    +0.000 A 
ATOM      6  C   UNL     1       2.020   5.343  17.937  0.00  0.00    +0.000 A 
ATOM      7  C   UNL     1       1.511   4.108  18.389  0.00  0.00    +0.000 A 
BRANCH   2   9
ATOM      8  C   UNL     1       1.442   2.425  21.675  0.00  0.00    +0.000 C 
ATOM      9  O   UNL     1       1.056   2.658  20.326  0.00  0.00    +0.000 OA
ENDBRANCH   2   9
ENDBRANCH   1   5
BRANCH   1  10
ATOM     10  S   UNL     1       1.808   8.789  18.079  0.00  0.00    +0.000 S 
ATOM     11  O   UNL     1       2.472   9.903  17.421  0.00  0.00    +0.000 OA
ATOM     12  O   UNL     1       0.660   8.167  17.456  0.00  0.00    +0.000 OA
BRANCH  10  13
ATOM     13  C   UNL     1       1.253   9.355  19.660  0.00  0.00    +0.000 A 
ATOM     14  C   UNL     1       1.220   8.525  20.866  0.00  0.00    +0.000 A 
ATOM     15  C   UNL     1       0.689   8.980  22.022  0.00  0.00    +0.000 A 
ATOM     16  C   UNL     1       0.150  10.293  22.081  0.00  0.00    +0.000 A 
ATOM     17  N   UNL     1      -0.432  10.985  23.037  0.00  0.00    +0.000 NA
ATOM     18  N   UNL     1      -0.753  12.225  22.524  0.00  0.00    +0.000 NA
ATOM     19  C   UNL     1      -0.361  12.256  21.270  0.00  0.00    +0.000 A 
ATOM     20  N   UNL     1       0.207  11.060  20.927  0.00  0.00    +0.000 N 
ATOM     21  C   UNL     1       0.743  10.606  19.723  0.00  0.00    +0.000 A 
ENDBRANCH  10  13
ENDBRANCH   1  10
BRANCH   1  22
ATOM     22  C   UNL     1       3.897   7.425  17.108  0.00  0.00    +0.000 C 
BRANCH  22  23
ATOM     23  C   UNL     1       5.007   6.394  17.157  0.00  0.00    +0.000 A 
ATOM     24  C   UNL     1       5.211   5.561  16.040  0.00  0.00    +0.000 A 
ATOM     25  C   UNL     1       6.331   4.730  15.958  0.00  0.00    +0.000 A 
ATOM     26  C   UNL     1       7.263   4.720  16.991  0.00  0.00    +0.000 A 
ATOM     27  C   UNL     1       7.056   5.523  18.113  0.00  0.00    +0.000 A 
ATOM     28 CL   UNL     1       8.222   5.530  19.379  0.00  0.00    +0.000 Cl
ATOM     29  C   UNL     1       5.937   6.352  18.203  0.00  0.00    +0.000 A 
ENDBRANCH  22  23
ENDBRANCH   1  22
TORSDOF 6
ENDMDL
MODEL 9
REMARK VINA RESULT:      -7.5      6.349      9.433
REMARK  Name = 
REMARK  7 active torsions:
REMARK  status: ('A' for Active; 'I' for Inactive)
REMARK    1  A    between atoms: C_1  and  O_2
REMARK    2  A    between atoms: O_2  and  C_3
REMARK    3  A    between atoms: C_6  and  N_7
REMARK    4  A    between atoms: N_7  and  C_8
REMARK    5  A    between atoms: N_7  and  S_16
REMARK    6  A    between atoms: C_8  and  C_9
REMARK    7  A    between atoms: S_16  and  C_19
REMARK                            x       y       z     vdW  Elec       q    Type
REMARK                         _______ _______ _______ _____ _____    ______ ____
ROOT
ATOM      1  N   UNL     1       0.027  11.249  19.244  0.00  0.00    +0.000 N 
ENDROOT
BRANCH   1   5
ATOM      2  C   UNL     1       2.291   7.611  19.350  0.00  0.00    +0.000 A 
ATOM      3  C   UNL     1       1.515   7.988  20.446  0.00  0.00    +0.000 A 
ATOM      4  C   UNL     1       0.758   9.168  20.423  0.00  0.00    +0.000 A 
ATOM      5  C   UNL     1       0.761   9.988  19.292  0.00  0.00    +0.000 A 
ATOM      6  C   UNL     1       1.577   9.633  18.210  0.00  0.00    +0.000 A 
ATOM      7  C   UNL     1       2.332   8.442  18.232  0.00  0.00    +0.000 A 
BRANCH   2   9
ATOM      8  C   UNL     1       2.343   5.390  20.198  0.00  0.00    +0.000 C 
ATOM      9  O   UNL     1       3.002   6.456  19.525  0.00  0.00    +0.000 OA
ENDBRANCH   2   9
ENDBRANCH   1   5
BRANCH   1  10
ATOM     10  S   UNL     1       0.692  12.460  20.325  0.00  0.00    +0.000 S 
ATOM     11  O   UNL     1      -0.439  13.084  20.993  0.00  0.00    +0.000 OA
ATOM     12  O   UNL     1       1.739  11.841  21.110  0.00  0.00    +0.000 OA
BRANCH  10  13
ATOM     13  C   UNL     1       1.489  13.702  19.350  0.00  0.00    +0.000 A 
ATOM     14  C   UNL     1       2.800  13.537  18.718  0.00  0.00    +0.000 A 
ATOM     15  C   UNL     1       3.407  14.556  18.071  0.00  0.00    +0.000 A 
ATOM     16  C   UNL     1       2.765  15.822  17.995  0.00  0.00    +0.000 A 
ATOM     17  N   UNL     1       3.110  16.974  17.460  0.00  0.00    +0.000 NA
ATOM     18  N   UNL     1       2.084  17.868  17.688  0.00  0.00    +0.000 NA
ATOM     19  C   UNL     1       1.143  17.239  18.357  0.00  0.00    +0.000 A 
ATOM     20  N   UNL     1       1.520  15.945  18.592  0.00  0.00    +0.000 N 
ATOM     21  C   UNL     1       0.882  14.908  19.269  0.00  0.00    +0.000 A 
ENDBRANCH  10  13
ENDBRANCH   1  10
BRANCH   1  22
ATOM     22  C   UNL     1      -1.459  11.138  19.436  0.00  0.00    +0.000 C 
BRANCH  22  23
ATOM     23  C   UNL     1      -2.317  11.128  18.187  0.00  0.00    +0.000 A 
ATOM     24  C   UNL     1      -1.947  10.294  17.114  0.00  0.00    +0.000 A 
ATOM     25  C   UNL     1      -2.799  10.105  16.024  0.00  0.00    +0.000 A 
ATOM     26  C   UNL     1      -4.033  10.746  15.989  0.00  0.00    +0.000 A 
ATOM     27  C   UNL     1      -4.398  11.594  17.035  0.00  0.00    +0.000 A 
ATOM     28 CL   UNL     1      -5.935  12.368  17.005  0.00  0.00    +0.000 Cl
ATOM     29  C   UNL     1      -3.549  11.791  18.125  0.00  0.00    +0.000 A 
ENDBRANCH  22  23
ENDBRANCH   1  22
TORSDOF 6
ENDMDL
