MODEL 1
REMARK VINA RESULT:      -7.3      0.000      0.000
REMARK  Name = 
REMARK  6 active torsions:
REMARK  status: ('A' for Active; 'I' for Inactive)
REMARK    1  A    between atoms: C_1  and  N_2
REMARK    2  A    between atoms: N_9  and  C_10
REMARK    3  A    between atoms: N_16  and  C_17
REMARK    4  A    between atoms: C_17  and  C_18
REMARK    5  A    between atoms: C_18  and  C_20
REMARK    6  A    between atoms: N_30  and  C_31
REMARK                            x       y       z     vdW  Elec       q    Type
REMARK                         _______ _______ _______ _____ _____    ______ ____
ROOT
ATOM      1  C   UNL     1       1.885  17.314  17.921  0.00  0.00    +0.000 C 
ATOM      2  N   UNL     1       2.474  16.515  18.979  0.00  0.00    +0.000 N 
ATOM      3  C   UNL     1       3.870  16.368  19.023  0.00  0.00    +0.000 A 
ATOM      4  O   UNL     1       4.633  16.868  18.201  0.00  0.00    +0.000 OA
ATOM      5  C   UNL     1       4.324  15.567  20.118  0.00  0.00    +0.000 A 
ATOM      6  C   UNL     1       3.455  14.989  20.990  0.00  0.00    +0.000 A 
ATOM      7  N   UNL     1       4.090  14.236  21.907  0.00  0.00    +0.000 NA
ATOM      8  C   UNL     1       5.377  14.322  21.629  0.00  0.00    +0.000 A 
ATOM      9  N   UNL     1       6.355  13.669  22.311  0.00  0.00    +0.000 N 
ATOM     10  N   UNL     1       5.592  15.173  20.546  0.00  0.00    +0.000 N 
ATOM     11  N   UNL     1       2.088  15.151  20.897  0.00  0.00    +0.000 N 
ATOM     12  C   UNL     1       1.173  14.529  21.832  0.00  0.00    +0.000 C 
ATOM     13  C   UNL     1       1.561  15.932  19.876  0.00  0.00    +0.000 A 
ATOM     14  O   UNL     1       0.342  16.103  19.757  0.00  0.00    +0.000 OA
ATOM     15  H   UNL     1       7.301  14.061  22.267  0.00  0.00    +0.000 HD
ENDROOT
BRANCH   9  16
ATOM     16  C   UNL     1       6.026  13.169  23.659  0.00  0.00    +0.000 C 
ATOM     17  C   UNL     1       6.523  11.728  23.847  0.00  0.00    +0.000 C 
ATOM     18  C   UNL     1       8.002  11.606  24.201  0.00  0.00    +0.000 C 
ATOM     19  C   UNL     1       8.362  12.475  25.398  0.00  0.00    +0.000 C 
ATOM     20  C   UNL     1       8.017  13.932  25.134  0.00  0.00    +0.000 C 
ATOM     21  C   UNL     1       6.549  14.124  24.749  0.00  0.00    +0.000 C 
ENDBRANCH   9  16
BRANCH  10  22
ATOM     22  C   UNL     1       6.834  15.517  19.824  0.00  0.00    +0.000 C 
BRANCH  22  23
ATOM     23  C   UNL     1       7.317  14.615  18.696  0.00  0.00    +0.000 C 
ATOM     24  O   UNL     1       6.631  14.384  17.697  0.00  0.00    +0.000 OA
BRANCH  23  25
ATOM     25  C   UNL     1       8.687  13.898  18.826  0.00  0.00    +0.000 C 
ATOM     26  C   UNL     1       8.659  12.647  17.913  0.00  0.00    +0.000 C 
ATOM     27  C   UNL     1      10.028  11.947  17.898  0.00  0.00    +0.000 C 
ATOM     28  C   UNL     1      10.404  11.529  19.330  0.00  0.00    +0.000 C 
ATOM     29  C   UNL     1      10.473  12.768  20.239  0.00  0.00    +0.000 C 
ATOM     30  C   UNL     1      11.547  13.720  19.686  0.00  0.00    +0.000 C 
ATOM     31  C   UNL     1      11.168  14.162  18.267  0.00  0.00    +0.000 C 
ATOM     32  C   UNL     1      11.078  12.929  17.353  0.00  0.00    +0.000 C 
ATOM     33  C   UNL     1       9.802  14.862  18.320  0.00  0.00    +0.000 C 
ATOM     34  C   UNL     1       9.085  13.456  20.252  0.00  0.00    +0.000 C 
ENDBRANCH  23  25
ENDBRANCH  22  23
ENDBRANCH  10  22
TORSDOF 4
ENDMDL
MODEL 2
REMARK VINA RESULT:      -7.2      1.583      2.241
REMARK  Name = 
REMARK  6 active torsions:
REMARK  status: ('A' for Active; 'I' for Inactive)
REMARK    1  A    between atoms: C_1  and  N_2
REMARK    2  A    between atoms: N_9  and  C_10
REMARK    3  A    between atoms: N_16  and  C_17
REMARK    4  A    between atoms: C_17  and  C_18
REMARK    5  A    between atoms: C_18  and  C_20
REMARK    6  A    between atoms: N_30  and  C_31
REMARK                            x       y       z     vdW  Elec       q    Type
REMARK                         _______ _______ _______ _____ _____    ______ ____
ROOT
ATOM      1  C   UNL     1       3.578  15.975  17.239  0.00  0.00    +0.000 C 
ATOM      2  N   UNL     1       3.809  15.444  18.569  0.00  0.00    +0.000 N 
ATOM      3  C   UNL     1       5.100  15.515  19.114  0.00  0.00    +0.000 A 
ATOM      4  O   UNL     1       6.065  15.991  18.522  0.00  0.00    +0.000 OA
ATOM      5  C   UNL     1       5.192  14.967  20.433  0.00  0.00    +0.000 A 
ATOM      6  C   UNL     1       4.118  14.407  21.051  0.00  0.00    +0.000 A 
ATOM      7  N   UNL     1       4.439  13.906  22.259  0.00  0.00    +0.000 NA
ATOM      8  C   UNL     1       5.727  14.139  22.426  0.00  0.00    +0.000 A 
ATOM      9  N   UNL     1       6.442  13.751  23.514  0.00  0.00    +0.000 N 
ATOM     10  N   UNL     1       6.248  14.837  21.337  0.00  0.00    +0.000 N 
ATOM     11  N   UNL     1       2.870  14.347  20.467  0.00  0.00    +0.000 N 
ATOM     12  C   UNL     1       1.734  13.746  21.136  0.00  0.00    +0.000 C 
ATOM     13  C   UNL     1       2.685  14.876  19.196  0.00  0.00    +0.000 A 
ATOM     14  O   UNL     1       1.582  14.844  18.637  0.00  0.00    +0.000 OA
ATOM     15  H   UNL     1       7.303  14.268  23.720  0.00  0.00    +0.000 HD
ENDROOT
BRANCH   9  16
ATOM     16  C   UNL     1       5.691  13.420  24.739  0.00  0.00    +0.000 C 
ATOM     17  C   UNL     1       6.033  12.004  25.228  0.00  0.00    +0.000 C 
ATOM     18  C   UNL     1       7.324  11.905  26.036  0.00  0.00    +0.000 C 
ATOM     19  C   UNL     1       7.341  12.904  27.183  0.00  0.00    +0.000 C 
ATOM     20  C   UNL     1       7.167  14.325  26.668  0.00  0.00    +0.000 C 
ATOM     21  C   UNL     1       5.900  14.490  25.826  0.00  0.00    +0.000 C 
ENDBRANCH   9  16
BRANCH  10  22
ATOM     22  C   UNL     1       7.633  15.248  21.030  0.00  0.00    +0.000 C 
BRANCH  22  23
ATOM     23  C   UNL     1       8.777  14.283  21.309  0.00  0.00    +0.000 C 
ATOM     24  O   UNL     1       9.307  14.190  22.420  0.00  0.00    +0.000 OA
BRANCH  23  25
ATOM     25  C   UNL     1       9.356  13.430  20.149  0.00  0.00    +0.000 C 
ATOM     26  C   UNL     1      10.816  13.886  19.904  0.00  0.00    +0.000 C 
ATOM     27  C   UNL     1      11.497  13.003  18.844  0.00  0.00    +0.000 C 
ATOM     28  C   UNL     1      10.706  13.085  17.527  0.00  0.00    +0.000 C 
ATOM     29  C   UNL     1       9.263  12.598  17.747  0.00  0.00    +0.000 C 
ATOM     30  C   UNL     1       9.309  11.137  18.227  0.00  0.00    +0.000 C 
ATOM     31  C   UNL     1      10.075  11.049  19.553  0.00  0.00    +0.000 C 
ATOM     32  C   UNL     1      11.514  11.551  19.348  0.00  0.00    +0.000 C 
ATOM     33  C   UNL     1       9.365  11.935  20.589  0.00  0.00    +0.000 C 
ATOM     34  C   UNL     1       8.588  13.501  18.810  0.00  0.00    +0.000 C 
ENDBRANCH  23  25
ENDBRANCH  22  23
ENDBRANCH  10  22
TORSDOF 4
ENDMDL
MODEL 3
REMARK VINA RESULT:      -7.1      1.486      1.762
REMARK  Name = 
REMARK  6 active torsions:
REMARK  status: ('A' for Active; 'I' for Inactive)
REMARK    1  A    between atoms: C_1  and  N_2
REMARK    2  A    between atoms: N_9  and  C_10
REMARK    3  A    between atoms: N_16  and  C_17
REMARK    4  A    between atoms: C_17  and  C_18
REMARK    5  A    between atoms: C_18  and  C_20
REMARK    6  A    between atoms: N_30  and  C_31
REMARK                            x       y       z     vdW  Elec       q    Type
REMARK                         _______ _______ _______ _____ _____    ______ ____
ROOT
ATOM      1  C   UNL     1       3.395  16.381  17.403  0.00  0.00    +0.000 C 
ATOM      2  N   UNL     1       3.653  15.736  18.676  0.00  0.00    +0.000 N 
ATOM      3  C   UNL     1       4.968  15.700  19.165  0.00  0.00    +0.000 A 
ATOM      4  O   UNL     1       5.931  16.173  18.568  0.00  0.00    +0.000 OA
ATOM      5  C   UNL     1       5.087  15.045  20.432  0.00  0.00    +0.000 A 
ATOM      6  C   UNL     1       4.011  14.492  21.055  0.00  0.00    +0.000 A 
ATOM      7  N   UNL     1       4.356  13.882  22.204  0.00  0.00    +0.000 NA
ATOM      8  C   UNL     1       5.660  14.038  22.329  0.00  0.00    +0.000 A 
ATOM      9  N   UNL     1       6.399  13.530  23.350  0.00  0.00    +0.000 N 
ATOM     10  N   UNL     1       6.171  14.792  21.274  0.00  0.00    +0.000 N 
ATOM     11  N   UNL     1       2.738  14.540  20.526  0.00  0.00    +0.000 N 
ATOM     12  C   UNL     1       1.601  13.945  21.199  0.00  0.00    +0.000 C 
ATOM     13  C   UNL     1       2.528  15.176  19.309  0.00  0.00    +0.000 A 
ATOM     14  O   UNL     1       1.402  15.242  18.800  0.00  0.00    +0.000 OA
ATOM     15  H   UNL     1       7.293  13.986  23.556  0.00  0.00    +0.000 HD
ENDROOT
BRANCH   9  16
ATOM     16  C   UNL     1       5.683  13.140  24.580  0.00  0.00    +0.000 C 
ATOM     17  C   UNL     1       6.225  11.814  25.135  0.00  0.00    +0.000 C 
ATOM     18  C   UNL     1       7.501  11.943  25.961  0.00  0.00    +0.000 C 
ATOM     19  C   UNL     1       7.347  12.981  27.063  0.00  0.00    +0.000 C 
ATOM     20  C   UNL     1       6.972  14.336  26.485  0.00  0.00    +0.000 C 
ATOM     21  C   UNL     1       5.710  14.274  25.622  0.00  0.00    +0.000 C 
ENDBRANCH   9  16
BRANCH  10  22
ATOM     22  C   UNL     1       7.561  15.158  20.936  0.00  0.00    +0.000 C 
BRANCH  22  23
ATOM     23  C   UNL     1       8.696  14.222  21.333  0.00  0.00    +0.000 C 
ATOM     24  O   UNL     1       9.151  14.184  22.479  0.00  0.00    +0.000 OA
BRANCH  23  25
ATOM     25  C   UNL     1       9.362  13.330  20.251  0.00  0.00    +0.000 C 
ATOM     26  C   UNL     1       8.573  13.512  18.931  0.00  0.00    +0.000 C 
ATOM     27  C   UNL     1       9.246  12.749  17.778  0.00  0.00    +0.000 C 
ATOM     28  C   UNL     1       9.320  11.253  18.130  0.00  0.00    +0.000 C 
ATOM     29  C   UNL     1      10.135  11.055  19.419  0.00  0.00    +0.000 C 
ATOM     30  C   UNL     1      11.556  11.597  19.187  0.00  0.00    +0.000 C 
ATOM     31  C   UNL     1      11.494  13.094  18.860  0.00  0.00    +0.000 C 
ATOM     32  C   UNL     1      10.666  13.304  17.581  0.00  0.00    +0.000 C 
ATOM     33  C   UNL     1      10.824  13.825  20.032  0.00  0.00    +0.000 C 
ATOM     34  C   UNL     1       9.440  11.821  20.573  0.00  0.00    +0.000 C 
ENDBRANCH  23  25
ENDBRANCH  22  23
ENDBRANCH  10  22
TORSDOF 4
ENDMDL
MODEL 4
REMARK VINA RESULT:      -7.1      1.266      1.746
REMARK  Name = 
REMARK  6 active torsions:
REMARK  status: ('A' for Active; 'I' for Inactive)
REMARK    1  A    between atoms: C_1  and  N_2
REMARK    2  A    between atoms: N_9  and  C_10
REMARK    3  A    between atoms: N_16  and  C_17
REMARK    4  A    between atoms: C_17  and  C_18
REMARK    5  A    between atoms: C_18  and  C_20
REMARK    6  A    between atoms: N_30  and  C_31
REMARK                            x       y       z     vdW  Elec       q    Type
REMARK                         _______ _______ _______ _____ _____    ______ ____
ROOT
ATOM      1  C   UNL     1       2.968  16.756  17.458  0.00  0.00    +0.000 C 
ATOM      2  N   UNL     1       3.351  16.016  18.646  0.00  0.00    +0.000 N 
ATOM      3  C   UNL     1       4.709  15.946  18.994  0.00  0.00    +0.000 A 
ATOM      4  O   UNL     1       5.608  16.465  18.339  0.00  0.00    +0.000 OA
ATOM      5  C   UNL     1       4.952  15.197  20.189  0.00  0.00    +0.000 A 
ATOM      6  C   UNL     1       3.943  14.595  20.874  0.00  0.00    +0.000 A 
ATOM      7  N   UNL     1       4.399  13.900  21.933  0.00  0.00    +0.000 NA
ATOM      8  C   UNL     1       5.710  14.048  21.936  0.00  0.00    +0.000 A 
ATOM      9  N   UNL     1       6.547  13.466  22.834  0.00  0.00    +0.000 N 
ATOM     10  N   UNL     1       6.115  14.882  20.894  0.00  0.00    +0.000 N 
ATOM     11  N   UNL     1       2.622  14.681  20.484  0.00  0.00    +0.000 N 
ATOM     12  C   UNL     1       1.557  14.034  21.221  0.00  0.00    +0.000 C 
ATOM     13  C   UNL     1       2.293  15.407  19.346  0.00  0.00    +0.000 A 
ATOM     14  O   UNL     1       1.122  15.510  18.961  0.00  0.00    +0.000 OA
ATOM     15  H   UNL     1       7.460  13.906  22.982  0.00  0.00    +0.000 HD
ENDROOT
BRANCH   9  16
ATOM     16  C   UNL     1       5.958  12.982  24.097  0.00  0.00    +0.000 C 
ATOM     17  C   UNL     1       6.643  11.689  24.564  0.00  0.00    +0.000 C 
ATOM     18  C   UNL     1       7.963  11.900  25.301  0.00  0.00    +0.000 C 
ATOM     19  C   UNL     1       7.808  12.888  26.448  0.00  0.00    +0.000 C 
ATOM     20  C   UNL     1       7.284  14.224  25.946  0.00  0.00    +0.000 C 
ATOM     21  C   UNL     1       5.970  14.083  25.174  0.00  0.00    +0.000 C 
ENDBRANCH   9  16
BRANCH  10  22
ATOM     22  C   UNL     1       7.466  15.275  20.445  0.00  0.00    +0.000 C 
BRANCH  22  23
ATOM     23  C   UNL     1       8.679  14.532  20.989  0.00  0.00    +0.000 C 
ATOM     24  O   UNL     1       9.107  14.715  22.132  0.00  0.00    +0.000 OA
BRANCH  23  25
ATOM     25  C   UNL     1       9.457  13.560  20.062  0.00  0.00    +0.000 C 
ATOM     26  C   UNL     1       9.523  12.182  20.764  0.00  0.00    +0.000 C 
ATOM     27  C   UNL     1      10.179  11.131  19.851  0.00  0.00    +0.000 C 
ATOM     28  C   UNL     1      11.601  11.589  19.484  0.00  0.00    +0.000 C 
ATOM     29  C   UNL     1      11.546  12.940  18.751  0.00  0.00    +0.000 C 
ATOM     30  C   UNL     1      10.717  12.766  17.467  0.00  0.00    +0.000 C 
ATOM     31  C   UNL     1       9.290  12.333  17.825  0.00  0.00    +0.000 C 
ATOM     32  C   UNL     1       9.334  10.991  18.574  0.00  0.00    +0.000 C 
ATOM     33  C   UNL     1       8.664  13.406  18.729  0.00  0.00    +0.000 C 
ATOM     34  C   UNL     1      10.892  13.989  19.686  0.00  0.00    +0.000 C 
ENDBRANCH  23  25
ENDBRANCH  22  23
ENDBRANCH  10  22
TORSDOF 4
ENDMDL
MODEL 5
REMARK VINA RESULT:      -6.8      0.999      1.146
REMARK  Name = 
REMARK  6 active torsions:
REMARK  status: ('A' for Active; 'I' for Inactive)
REMARK    1  A    between atoms: C_1  and  N_2
REMARK    2  A    between atoms: N_9  and  C_10
REMARK    3  A    between atoms: N_16  and  C_17
REMARK    4  A    between atoms: C_17  and  C_18
REMARK    5  A    between atoms: C_18  and  C_20
REMARK    6  A    between atoms: N_30  and  C_31
REMARK                            x       y       z     vdW  Elec       q    Type
REMARK                         _______ _______ _______ _____ _____    ______ ____
ROOT
ATOM      1  C   UNL     1       2.055  17.292  17.938  0.00  0.00    +0.000 C 
ATOM      2  N   UNL     1       2.588  16.559  19.071  0.00  0.00    +0.000 N 
ATOM      3  C   UNL     1       3.931  16.151  19.046  0.00  0.00    +0.000 A 
ATOM      4  O   UNL     1       4.690  16.366  18.105  0.00  0.00    +0.000 OA
ATOM      5  C   UNL     1       4.334  15.447  20.224  0.00  0.00    +0.000 A 
ATOM      6  C   UNL     1       3.462  15.185  21.234  0.00  0.00    +0.000 A 
ATOM      7  N   UNL     1       4.035  14.466  22.218  0.00  0.00    +0.000 NA
ATOM      8  C   UNL     1       5.283  14.259  21.846  0.00  0.00    +0.000 A 
ATOM      9  N   UNL     1       6.186  13.536  22.559  0.00  0.00    +0.000 N 
ATOM     10  N   UNL     1       5.545  14.882  20.626  0.00  0.00    +0.000 N 
ATOM     11  N   UNL     1       2.144  15.594  21.207  0.00  0.00    +0.000 N 
ATOM     12  C   UNL     1       1.225  15.307  22.289  0.00  0.00    +0.000 C 
ATOM     13  C   UNL     1       1.674  16.304  20.109  0.00  0.00    +0.000 A 
ATOM     14  O   UNL     1       0.500  16.690  20.044  0.00  0.00    +0.000 OA
ATOM     15  H   UNL     1       7.179  13.725  22.390  0.00  0.00    +0.000 HD
ENDROOT
BRANCH   9  16
ATOM     16  C   UNL     1       5.903  13.314  23.989  0.00  0.00    +0.000 C 
ATOM     17  C   UNL     1       6.352  11.912  24.428  0.00  0.00    +0.000 C 
ATOM     18  C   UNL     1       7.840  11.789  24.740  0.00  0.00    +0.000 C 
ATOM     19  C   UNL     1       8.289  12.849  25.735  0.00  0.00    +0.000 C 
ATOM     20  C   UNL     1       7.989  14.245  25.214  0.00  0.00    +0.000 C 
ATOM     21  C   UNL     1       6.512  14.430  24.857  0.00  0.00    +0.000 C 
ENDBRANCH   9  16
BRANCH  10  22
ATOM     22  C   UNL     1       6.754  14.868  19.778  0.00  0.00    +0.000 C 
BRANCH  22  23
ATOM     23  C   UNL     1       8.125  14.763  20.434  0.00  0.00    +0.000 C 
ATOM     24  O   UNL     1       8.507  15.560  21.295  0.00  0.00    +0.000 OA
BRANCH  23  25
ATOM     25  C   UNL     1       9.113  13.663  19.962  0.00  0.00    +0.000 C 
ATOM     26  C   UNL     1       8.792  13.337  18.483  0.00  0.00    +0.000 C 
ATOM     27  C   UNL     1       9.810  12.337  17.907  0.00  0.00    +0.000 C 
ATOM     28  C   UNL     1       9.780  11.042  18.737  0.00  0.00    +0.000 C 
ATOM     29  C   UNL     1      10.135  11.347  20.203  0.00  0.00    +0.000 C 
ATOM     30  C   UNL     1      11.550  11.950  20.247  0.00  0.00    +0.000 C 
ATOM     31  C   UNL     1      11.583  13.255  19.442  0.00  0.00    +0.000 C 
ATOM     32  C   UNL     1      11.212  12.964  17.979  0.00  0.00    +0.000 C 
ATOM     33  C   UNL     1      10.563  14.231  20.047  0.00  0.00    +0.000 C 
ATOM     34  C   UNL     1       9.096  12.347  20.771  0.00  0.00    +0.000 C 
ENDBRANCH  23  25
ENDBRANCH  22  23
ENDBRANCH  10  22
TORSDOF 4
ENDMDL
MODEL 6
REMARK VINA RESULT:      -6.7      1.014      1.456
REMARK  Name = 
REMARK  6 active torsions:
REMARK  status: ('A' for Active; 'I' for Inactive)
REMARK    1  A    between atoms: C_1  and  N_2
REMARK    2  A    between atoms: N_9  and  C_10
REMARK    3  A    between atoms: N_16  and  C_17
REMARK    4  A    between atoms: C_17  and  C_18
REMARK    5  A    between atoms: C_18  and  C_20
REMARK    6  A    between atoms: N_30  and  C_31
REMARK                            x       y       z     vdW  Elec       q    Type
REMARK                         _______ _______ _______ _____ _____    ______ ____
ROOT
ATOM      1  C   UNL     1       2.666  17.232  17.315  0.00  0.00    +0.000 C 
ATOM      2  N   UNL     1       3.194  16.428  18.400  0.00  0.00    +0.000 N 
ATOM      3  C   UNL     1       4.532  16.603  18.787  0.00  0.00    +0.000 A 
ATOM      4  O   UNL     1       5.299  17.395  18.246  0.00  0.00    +0.000 OA
ATOM      5  C   UNL     1       4.927  15.758  19.872  0.00  0.00    +0.000 A 
ATOM      6  C   UNL     1       4.070  14.858  20.426  0.00  0.00    +0.000 A 
ATOM      7  N   UNL     1       4.661  14.132  21.393  0.00  0.00    +0.000 NA
ATOM      8  C   UNL     1       5.908  14.559  21.467  0.00  0.00    +0.000 A 
ATOM      9  N   UNL     1       6.846  14.046  22.305  0.00  0.00    +0.000 N 
ATOM     10  N   UNL     1       6.125  15.604  20.570  0.00  0.00    +0.000 N 
ATOM     11  N   UNL     1       2.765  14.712  20.001  0.00  0.00    +0.000 N 
ATOM     12  C   UNL     1       1.864  13.749  20.599  0.00  0.00    +0.000 C 
ATOM     13  C   UNL     1       2.292  15.508  18.966  0.00  0.00    +0.000 A 
ATOM     14  O   UNL     1       1.129  15.410  18.555  0.00  0.00    +0.000 OA
ATOM     15  H   UNL     1       7.639  14.648  22.549  0.00  0.00    +0.000 HD
ENDROOT
BRANCH   9  16
ATOM     16  C   UNL     1       6.370  13.267  23.464  0.00  0.00    +0.000 C 
ATOM     17  C   UNL     1       6.992  11.863  23.476  0.00  0.00    +0.000 C 
ATOM     18  C   UNL     1       8.401  11.796  24.055  0.00  0.00    +0.000 C 
ATOM     19  C   UNL     1       8.468  12.440  25.432  0.00  0.00    +0.000 C 
ATOM     20  C   UNL     1       8.005  13.888  25.377  0.00  0.00    +0.000 C 
ATOM     21  C   UNL     1       6.603  14.030  24.781  0.00  0.00    +0.000 C 
ENDBRANCH   9  16
BRANCH  10  22
ATOM     22  C   UNL     1       7.359  16.341  20.233  0.00  0.00    +0.000 C 
BRANCH  22  23
ATOM     23  C   UNL     1       8.204  15.883  19.051  0.00  0.00    +0.000 C 
ATOM     24  O   UNL     1       8.183  16.460  17.961  0.00  0.00    +0.000 OA
BRANCH  23  25
ATOM     25  C   UNL     1       9.072  14.603  19.185  0.00  0.00    +0.000 C 
ATOM     26  C   UNL     1      10.240  14.710  18.174  0.00  0.00    +0.000 C 
ATOM     27  C   UNL     1      11.214  13.529  18.331  0.00  0.00    +0.000 C 
ATOM     28  C   UNL     1      10.457  12.210  18.102  0.00  0.00    +0.000 C 
ATOM     29  C   UNL     1       9.317  12.072  19.126  0.00  0.00    +0.000 C 
ATOM     30  C   UNL     1       9.926  12.075  20.539  0.00  0.00    +0.000 C 
ATOM     31  C   UNL     1      10.662  13.397  20.785  0.00  0.00    +0.000 C 
ATOM     32  C   UNL     1      11.793  13.553  19.755  0.00  0.00    +0.000 C 
ATOM     33  C   UNL     1       9.661  14.552  20.628  0.00  0.00    +0.000 C 
ATOM     34  C   UNL     1       8.341  13.262  18.950  0.00  0.00    +0.000 C 
ENDBRANCH  23  25
ENDBRANCH  22  23
ENDBRANCH  10  22
TORSDOF 4
ENDMDL
MODEL 7
REMARK VINA RESULT:      -6.6      1.140      1.759
REMARK  Name = 
REMARK  6 active torsions:
REMARK  status: ('A' for Active; 'I' for Inactive)
REMARK    1  A    between atoms: C_1  and  N_2
REMARK    2  A    between atoms: N_9  and  C_10
REMARK    3  A    between atoms: N_16  and  C_17
REMARK    4  A    between atoms: C_17  and  C_18
REMARK    5  A    between atoms: C_18  and  C_20
REMARK    6  A    between atoms: N_30  and  C_31
REMARK                            x       y       z     vdW  Elec       q    Type
REMARK                         _______ _______ _______ _____ _____    ______ ____
ROOT
ATOM      1  C   UNL     1       2.268  17.123  17.569  0.00  0.00    +0.000 C 
ATOM      2  N   UNL     1       2.892  16.585  18.763  0.00  0.00    +0.000 N 
ATOM      3  C   UNL     1       4.204  16.094  18.681  0.00  0.00    +0.000 A 
ATOM      4  O   UNL     1       4.862  16.076  17.645  0.00  0.00    +0.000 OA
ATOM      5  C   UNL     1       4.707  15.602  19.928  0.00  0.00    +0.000 A 
ATOM      6  C   UNL     1       3.943  15.594  21.053  0.00  0.00    +0.000 A 
ATOM      7  N   UNL     1       4.592  15.040  22.095  0.00  0.00    +0.000 NA
ATOM      8  C   UNL     1       5.780  14.684  21.645  0.00  0.00    +0.000 A 
ATOM      9  N   UNL     1       6.725  14.053  22.389  0.00  0.00    +0.000 N 
ATOM     10  N   UNL     1       5.929  15.046  20.307  0.00  0.00    +0.000 N 
ATOM     11  N   UNL     1       2.651  16.075  21.081  0.00  0.00    +0.000 N 
ATOM     12  C   UNL     1       1.848  16.059  22.286  0.00  0.00    +0.000 C 
ATOM     13  C   UNL     1       2.091  16.592  19.919  0.00  0.00    +0.000 A 
ATOM     14  O   UNL     1       0.935  17.034  19.901  0.00  0.00    +0.000 OA
ATOM     15  H   UNL     1       7.700  14.142  22.086  0.00  0.00    +0.000 HD
ENDROOT
BRANCH   9  16
ATOM     16  C   UNL     1       6.596  14.126  23.857  0.00  0.00    +0.000 C 
ATOM     17  C   UNL     1       5.667  13.021  24.383  0.00  0.00    +0.000 C 
ATOM     18  C   UNL     1       6.329  11.656  24.544  0.00  0.00    +0.000 C 
ATOM     19  C   UNL     1       7.601  11.750  25.375  0.00  0.00    +0.000 C 
ATOM     20  C   UNL     1       8.586  12.727  24.752  0.00  0.00    +0.000 C 
ATOM     21  C   UNL     1       7.976  14.114  24.539  0.00  0.00    +0.000 C 
ENDBRANCH   9  16
BRANCH  10  22
ATOM     22  C   UNL     1       7.033  14.793  19.359  0.00  0.00    +0.000 C 
BRANCH  22  23
ATOM     23  C   UNL     1       8.470  14.817  19.863  0.00  0.00    +0.000 C 
ATOM     24  O   UNL     1       8.931  15.768  20.500  0.00  0.00    +0.000 OA
BRANCH  23  25
ATOM     25  C   UNL     1       9.422  13.643  19.508  0.00  0.00    +0.000 C 
ATOM     26  C   UNL     1       9.543  12.734  20.756  0.00  0.00    +0.000 C 
ATOM     27  C   UNL     1      10.380  11.481  20.444  0.00  0.00    +0.000 C 
ATOM     28  C   UNL     1      11.783  11.906  19.981  0.00  0.00    +0.000 C 
ATOM     29  C   UNL     1      11.679  12.779  18.718  0.00  0.00    +0.000 C 
ATOM     30  C   UNL     1      11.002  11.955  17.609  0.00  0.00    +0.000 C 
ATOM     31  C   UNL     1       9.592  11.547  18.053  0.00  0.00    +0.000 C 
ATOM     32  C   UNL     1       9.683  10.689  19.326  0.00  0.00    +0.000 C 
ATOM     33  C   UNL     1       8.784  12.820  18.349  0.00  0.00    +0.000 C 
ATOM     34  C   UNL     1      10.843  14.040  19.050  0.00  0.00    +0.000 C 
ENDBRANCH  23  25
ENDBRANCH  22  23
ENDBRANCH  10  22
TORSDOF 4
ENDMDL
MODEL 8
REMARK VINA RESULT:      -6.6      2.493      6.534
REMARK  Name = 
REMARK  6 active torsions:
REMARK  status: ('A' for Active; 'I' for Inactive)
REMARK    1  A    between atoms: C_1  and  N_2
REMARK    2  A    between atoms: N_9  and  C_10
REMARK    3  A    between atoms: N_16  and  C_17
REMARK    4  A    between atoms: C_17  and  C_18
REMARK    5  A    between atoms: C_18  and  C_20
REMARK    6  A    between atoms: N_30  and  C_31
REMARK                            x       y       z     vdW  Elec       q    Type
REMARK                         _______ _______ _______ _____ _____    ______ ____
ROOT
ATOM      1  C   UNL     1      11.133  15.624  16.697  0.00  0.00    +0.000 C 
ATOM      2  N   UNL     1      10.614  14.913  17.850  0.00  0.00    +0.000 N 
ATOM      3  C   UNL     1       9.540  15.467  18.563  0.00  0.00    +0.000 A 
ATOM      4  O   UNL     1       9.013  16.539  18.278  0.00  0.00    +0.000 OA
ATOM      5  C   UNL     1       9.117  14.665  19.671  0.00  0.00    +0.000 A 
ATOM      6  C   UNL     1       9.745  13.502  19.992  0.00  0.00    +0.000 A 
ATOM      7  N   UNL     1       9.223  12.939  21.097  0.00  0.00    +0.000 NA
ATOM      8  C   UNL     1       8.253  13.739  21.498  0.00  0.00    +0.000 A 
ATOM      9  N   UNL     1       7.500  13.535  22.610  0.00  0.00    +0.000 N 
ATOM     10  N   UNL     1       8.109  14.816  20.624  0.00  0.00    +0.000 N 
ATOM     11  N   UNL     1      10.809  13.004  19.268  0.00  0.00    +0.000 N 
ATOM     12  C   UNL     1      11.470  11.765  19.622  0.00  0.00    +0.000 C 
ATOM     13  C   UNL     1      11.271  13.709  18.163  0.00  0.00    +0.000 A 
ATOM     14  O   UNL     1      12.221  13.298  17.486  0.00  0.00    +0.000 OA
ATOM     15  H   UNL     1       6.577  13.979  22.642  0.00  0.00    +0.000 HD
ENDROOT
BRANCH   9  16
ATOM     16  C   UNL     1       7.475  12.172  23.174  0.00  0.00    +0.000 C 
ATOM     17  C   UNL     1       8.592  11.986  24.212  0.00  0.00    +0.000 C 
ATOM     18  C   UNL     1       8.267  12.529  25.601  0.00  0.00    +0.000 C 
ATOM     19  C   UNL     1       6.941  11.986  26.114  0.00  0.00    +0.000 C 
ATOM     20  C   UNL     1       5.810  12.323  25.155  0.00  0.00    +0.000 C 
ATOM     21  C   UNL     1       6.082  11.827  23.733  0.00  0.00    +0.000 C 
ENDBRANCH   9  16
BRANCH  10  22
ATOM     22  C   UNL     1       7.229  16.000  20.692  0.00  0.00    +0.000 C 
BRANCH  22  23
ATOM     23  C   UNL     1       5.799  15.839  21.192  0.00  0.00    +0.000 C 
ATOM     24  O   UNL     1       5.528  15.727  22.391  0.00  0.00    +0.000 OA
BRANCH  23  25
ATOM     25  C   UNL     1       4.639  15.738  20.166  0.00  0.00    +0.000 C 
ATOM     26  C   UNL     1       5.260  15.506  18.766  0.00  0.00    +0.000 C 
ATOM     27  C   UNL     1       4.164  15.277  17.711  0.00  0.00    +0.000 C 
ATOM     28  C   UNL     1       3.236  16.503  17.664  0.00  0.00    +0.000 C 
ATOM     29  C   UNL     1       2.582  16.721  19.040  0.00  0.00    +0.000 C 
ATOM     30  C   UNL     1       1.761  15.470  19.394  0.00  0.00    +0.000 C 
ATOM     31  C   UNL     1       2.683  14.247  19.468  0.00  0.00    +0.000 C 
ATOM     32  C   UNL     1       3.355  14.030  18.102  0.00  0.00    +0.000 C 
ATOM     33  C   UNL     1       3.758  14.506  20.534  0.00  0.00    +0.000 C 
ATOM     34  C   UNL     1       3.697  16.960  20.089  0.00  0.00    +0.000 C 
ENDBRANCH  23  25
ENDBRANCH  22  23
ENDBRANCH  10  22
TORSDOF 4
ENDMDL
MODEL 9
REMARK VINA RESULT:      -6.4      7.758      8.868
REMARK  Name = 
REMARK  6 active torsions:
REMARK  status: ('A' for Active; 'I' for Inactive)
REMARK    1  A    between atoms: C_1  and  N_2
REMARK    2  A    between atoms: N_9  and  C_10
REMARK    3  A    between atoms: N_16  and  C_17
REMARK    4  A    between atoms: C_17  and  C_18
REMARK    5  A    between atoms: C_18  and  C_20
REMARK    6  A    between atoms: N_30  and  C_31
REMARK                            x       y       z     vdW  Elec       q    Type
REMARK                         _______ _______ _______ _____ _____    ______ ____
ROOT
ATOM      1  C   UNL     1       0.872  12.734  19.676  0.00  0.00    +0.000 C 
ATOM      2  N   UNL     1       1.002  11.318  19.967  0.00  0.00    +0.000 N 
ATOM      3  C   UNL     1       1.645  10.489  19.035  0.00  0.00    +0.000 A 
ATOM      4  O   UNL     1       2.097  10.889  17.965  0.00  0.00    +0.000 OA
ATOM      5  C   UNL     1       1.716   9.120  19.444  0.00  0.00    +0.000 A 
ATOM      6  C   UNL     1       1.170   8.694  20.615  0.00  0.00    +0.000 A 
ATOM      7  N   UNL     1       1.303   7.364  20.776  0.00  0.00    +0.000 NA
ATOM      8  C   UNL     1       1.937   6.923  19.706  0.00  0.00    +0.000 A 
ATOM      9  N   UNL     1       2.231   5.617  19.472  0.00  0.00    +0.000 N 
ATOM     10  N   UNL     1       2.259   7.978  18.853  0.00  0.00    +0.000 N 
ATOM     11  N   UNL     1       0.534   9.546  21.494  0.00  0.00    +0.000 N 
ATOM     12  C   UNL     1      -0.044   9.079  22.737  0.00  0.00    +0.000 C 
ATOM     13  C   UNL     1       0.439  10.898  21.185  0.00  0.00    +0.000 A 
ATOM     14  O   UNL     1      -0.123  11.695  21.946  0.00  0.00    +0.000 OA
ATOM     15  H   UNL     1       3.007   5.417  18.834  0.00  0.00    +0.000 HD
ENDROOT
BRANCH   9  16
ATOM     16  C   UNL     1       2.218   4.700  20.628  0.00  0.00    +0.000 C 
ATOM     17  C   UNL     1       0.924   3.872  20.657  0.00  0.00    +0.000 C 
ATOM     18  C   UNL     1       0.926   2.656  19.736  0.00  0.00    +0.000 C 
ATOM     19  C   UNL     1       2.147   1.780  19.974  0.00  0.00    +0.000 C 
ATOM     20  C   UNL     1       3.430   2.572  19.778  0.00  0.00    +0.000 C 
ATOM     21  C   UNL     1       3.484   3.824  20.657  0.00  0.00    +0.000 C 
ENDBRANCH   9  16
BRANCH  10  22
ATOM     22  C   UNL     1       2.886   7.978  17.516  0.00  0.00    +0.000 C 
BRANCH  22  23
ATOM     23  C   UNL     1       4.390   7.763  17.397  0.00  0.00    +0.000 C 
ATOM     24  O   UNL     1       5.205   8.658  17.638  0.00  0.00    +0.000 OA
BRANCH  23  25
ATOM     25  C   UNL     1       4.927   6.399  16.887  0.00  0.00    +0.000 C 
ATOM     26  C   UNL     1       5.211   6.536  15.371  0.00  0.00    +0.000 C 
ATOM     27  C   UNL     1       5.860   5.256  14.816  0.00  0.00    +0.000 C 
ATOM     28  C   UNL     1       4.922   4.062  15.056  0.00  0.00    +0.000 C 
ATOM     29  C   UNL     1       4.662   3.891  16.563  0.00  0.00    +0.000 C 
ATOM     30  C   UNL     1       6.007   3.635  17.265  0.00  0.00    +0.000 C 
ATOM     31  C   UNL     1       6.941   4.832  17.051  0.00  0.00    +0.000 C 
ATOM     32  C   UNL     1       7.193   5.022  15.546  0.00  0.00    +0.000 C 
ATOM     33  C   UNL     1       6.266   6.089  17.622  0.00  0.00    +0.000 C 
ATOM     34  C   UNL     1       4.000   5.183  17.105  0.00  0.00    +0.000 C 
ENDBRANCH  23  25
ENDBRANCH  22  23
ENDBRANCH  10  22
TORSDOF 4
ENDMDL
