MODEL 1
REMARK VINA RESULT:      -8.6      0.000      0.000
REMARK  Name = 
REMARK  6 active torsions:
REMARK  status: ('A' for Active; 'I' for Inactive)
REMARK    1  A    between atoms: C_1  and  O_2
REMARK    2  A    between atoms: O_2  and  C_3
REMARK    3  A    between atoms: C_6  and  C_7
REMARK    4  A    between atoms: C_13  and  C_14
REMARK    5  A    between atoms: C_18  and  O_19
REMARK    6  A    between atoms: O_19  and  C_20
REMARK                            x       y       z     vdW  Elec       q    Type
REMARK                         _______ _______ _______ _____ _____    ______ ____
ROOT
ATOM      1  C   UNL     1       4.396   3.897  18.512  0.00  0.00    +0.000 A 
ATOM      2  C   UNL     1       4.282   2.688  19.193  0.00  0.00    +0.000 A 
ATOM      3  N   UNL     1       3.378   2.749  20.225  0.00  0.00    +0.000 NA
ATOM      4  C   UNL     1       2.931   3.980  20.177  0.00  0.00    +0.000 A 
ATOM      5  C   UNL     1       1.962   4.605  21.036  0.00  0.00    +0.000 A 
ATOM      6  N   UNL     1       1.582   5.842  20.864  0.00  0.00    +0.000 NA
ATOM      7  C   UNL     1       2.154   6.544  19.816  0.00  0.00    +0.000 A 
ATOM      8  C   UNL     1       3.055   6.018  18.960  0.00  0.00    +0.000 A 
ATOM      9  N   UNL     1       3.477   4.713  19.153  0.00  0.00    +0.000 N 
ENDROOT
BRANCH   7  10
ATOM     10  C   UNL     1       1.771   7.951  19.625  0.00  0.00    +0.000 A 
ATOM     11  C   UNL     1       1.853   8.532  18.353  0.00  0.00    +0.000 A 
ATOM     12  C   UNL     1       1.554   9.882  18.183  0.00  0.00    +0.000 A 
ATOM     13  C   UNL     1       1.168  10.654  19.282  0.00  0.00    +0.000 A 
ATOM     14  C   UNL     1       1.073  10.091  20.558  0.00  0.00    +0.000 A 
ATOM     15  C   UNL     1       1.378   8.736  20.721  0.00  0.00    +0.000 A 
ATOM     16  F   UNL     1       1.332   8.161  21.934  0.00  0.00    +0.000 F 
BRANCH  14  17
ATOM     17  O   UNL     1       0.698  10.980  21.530  0.00  0.00    +0.000 OA
ATOM     18  C   UNL     1      -0.677  11.007  21.892  0.00  0.00    +0.000 C 
ENDBRANCH  14  17
ENDBRANCH   7  10
BRANCH   1  22
ATOM     19  C   UNL     1       6.962   4.985  15.243  0.00  0.00    +0.000 A 
ATOM     20  C   UNL     1       7.421   5.031  16.558  0.00  0.00    +0.000 A 
ATOM     21  C   UNL     1       6.589   4.655  17.618  0.00  0.00    +0.000 A 
ATOM     22  C   UNL     1       5.266   4.253  17.385  0.00  0.00    +0.000 A 
ATOM     23  C   UNL     1       4.803   4.260  16.063  0.00  0.00    +0.000 A 
ATOM     24  C   UNL     1       5.646   4.604  14.998  0.00  0.00    +0.000 A 
BRANCH  19  26
ATOM     25  C   UNL     1       7.576   4.970  12.961  0.00  0.00    +0.000 C 
ATOM     26  O   UNL     1       7.861   5.382  14.293  0.00  0.00    +0.000 OA
ENDBRANCH  19  26
ENDBRANCH   1  22
TORSDOF 4
ENDMDL
MODEL 2
REMARK VINA RESULT:      -8.0      1.273      2.031
REMARK  Name = 
REMARK  6 active torsions:
REMARK  status: ('A' for Active; 'I' for Inactive)
REMARK    1  A    between atoms: C_1  and  O_2
REMARK    2  A    between atoms: O_2  and  C_3
REMARK    3  A    between atoms: C_6  and  C_7
REMARK    4  A    between atoms: C_13  and  C_14
REMARK    5  A    between atoms: C_18  and  O_19
REMARK    6  A    between atoms: O_19  and  C_20
REMARK                            x       y       z     vdW  Elec       q    Type
REMARK                         _______ _______ _______ _____ _____    ______ ____
ROOT
ATOM      1  C   UNL     1       4.245   3.681  18.481  0.00  0.00    +0.000 A 
ATOM      2  C   UNL     1       4.045   2.386  18.953  0.00  0.00    +0.000 A 
ATOM      3  N   UNL     1       3.089   2.326  19.937  0.00  0.00    +0.000 NA
ATOM      4  C   UNL     1       2.696   3.570  20.066  0.00  0.00    +0.000 A 
ATOM      5  C   UNL     1       1.707   4.097  20.967  0.00  0.00    +0.000 A 
ATOM      6  N   UNL     1       1.387   5.363  20.978  0.00  0.00    +0.000 NA
ATOM      7  C   UNL     1       2.043   6.194  20.084  0.00  0.00    +0.000 A 
ATOM      8  C   UNL     1       2.967   5.766  19.198  0.00  0.00    +0.000 A 
ATOM      9  N   UNL     1       3.325   4.428  19.200  0.00  0.00    +0.000 N 
ENDROOT
BRANCH   7  10
ATOM     10  C   UNL     1       1.727   7.630  20.103  0.00  0.00    +0.000 A 
ATOM     11  C   UNL     1       1.176   8.210  21.252  0.00  0.00    +0.000 A 
ATOM     12  C   UNL     1       0.816   9.556  21.248  0.00  0.00    +0.000 A 
ATOM     13  C   UNL     1       1.008  10.326  20.099  0.00  0.00    +0.000 A 
ATOM     14  C   UNL     1       1.563   9.766  18.943  0.00  0.00    +0.000 A 
ATOM     15  C   UNL     1       1.920   8.415  18.954  0.00  0.00    +0.000 A 
ATOM     16  F   UNL     1       2.425   7.827  17.857  0.00  0.00    +0.000 F 
BRANCH  14  17
ATOM     17  O   UNL     1       1.671  10.645  17.898  0.00  0.00    +0.000 OA
ATOM     18  C   UNL     1       2.251  11.915  18.174  0.00  0.00    +0.000 C 
ENDBRANCH  14  17
ENDBRANCH   7  10
BRANCH   1  22
ATOM     19  C   UNL     1       6.991   5.059  15.479  0.00  0.00    +0.000 A 
ATOM     20  C   UNL     1       5.721   4.605  15.131  0.00  0.00    +0.000 A 
ATOM     21  C   UNL     1       4.822   4.177  16.114  0.00  0.00    +0.000 A 
ATOM     22  C   UNL     1       5.188   4.167  17.467  0.00  0.00    +0.000 A 
ATOM     23  C   UNL     1       6.486   4.579  17.797  0.00  0.00    +0.000 A 
ATOM     24  C   UNL     1       7.375   5.040  16.817  0.00  0.00    +0.000 A 
BRANCH  19  26
ATOM     25  C   UNL     1       7.437   4.906  13.163  0.00  0.00    +0.000 C 
ATOM     26  O   UNL     1       7.784   5.444  14.434  0.00  0.00    +0.000 OA
ENDBRANCH  19  26
ENDBRANCH   1  22
TORSDOF 4
ENDMDL
MODEL 3
REMARK VINA RESULT:      -7.7      1.443      1.836
REMARK  Name = 
REMARK  6 active torsions:
REMARK  status: ('A' for Active; 'I' for Inactive)
REMARK    1  A    between atoms: C_1  and  O_2
REMARK    2  A    between atoms: O_2  and  C_3
REMARK    3  A    between atoms: C_6  and  C_7
REMARK    4  A    between atoms: C_13  and  C_14
REMARK    5  A    between atoms: C_18  and  O_19
REMARK    6  A    between atoms: O_19  and  C_20
REMARK                            x       y       z     vdW  Elec       q    Type
REMARK                         _______ _______ _______ _____ _____    ______ ____
ROOT
ATOM      1  C   UNL     1       3.976   3.356  17.908  0.00  0.00    +0.000 A 
ATOM      2  C   UNL     1       3.663   2.026  18.173  0.00  0.00    +0.000 A 
ATOM      3  N   UNL     1       2.677   1.896  19.120  0.00  0.00    +0.000 NA
ATOM      4  C   UNL     1       2.377   3.134  19.431  0.00  0.00    +0.000 A 
ATOM      5  C   UNL     1       1.406   3.597  20.385  0.00  0.00    +0.000 A 
ATOM      6  N   UNL     1       1.185   4.868  20.584  0.00  0.00    +0.000 NA
ATOM      7  C   UNL     1       1.929   5.769  19.839  0.00  0.00    +0.000 A 
ATOM      8  C   UNL     1       2.843   5.407  18.914  0.00  0.00    +0.000 A 
ATOM      9  N   UNL     1       3.096   4.059  18.717  0.00  0.00    +0.000 N 
ENDROOT
BRANCH   7  10
ATOM     10  C   UNL     1       1.725   7.206  20.071  0.00  0.00    +0.000 A 
ATOM     11  C   UNL     1       1.375   7.666  21.347  0.00  0.00    +0.000 A 
ATOM     12  C   UNL     1       1.117   9.019  21.553  0.00  0.00    +0.000 A 
ATOM     13  C   UNL     1       1.212   9.918  20.487  0.00  0.00    +0.000 A 
ATOM     14  C   UNL     1       1.566   9.478  19.207  0.00  0.00    +0.000 A 
ATOM     15  C   UNL     1       1.821   8.119  19.008  0.00  0.00    +0.000 A 
ATOM     16  F   UNL     1       2.133   7.648  17.789  0.00  0.00    +0.000 F 
BRANCH  14  17
ATOM     17  O   UNL     1       1.600  10.476  18.268  0.00  0.00    +0.000 OA
ATOM     18  C   UNL     1       0.961  11.703  18.601  0.00  0.00    +0.000 C 
ENDBRANCH  14  17
ENDBRANCH   7  10
BRANCH   1  22
ATOM     19  C   UNL     1       6.931   5.031  15.279  0.00  0.00    +0.000 A 
ATOM     20  C   UNL     1       7.129   5.014  16.658  0.00  0.00    +0.000 A 
ATOM     21  C   UNL     1       6.173   4.448  17.509  0.00  0.00    +0.000 A 
ATOM     22  C   UNL     1       4.983   3.913  16.997  0.00  0.00    +0.000 A 
ATOM     23  C   UNL     1       4.775   3.983  15.613  0.00  0.00    +0.000 A 
ATOM     24  C   UNL     1       5.747   4.518  14.757  0.00  0.00    +0.000 A 
BRANCH  19  26
ATOM     25  C   UNL     1       7.910   5.350  13.152  0.00  0.00    +0.000 C 
ATOM     26  O   UNL     1       7.929   5.616  14.549  0.00  0.00    +0.000 OA
ENDBRANCH  19  26
ENDBRANCH   1  22
TORSDOF 4
ENDMDL
MODEL 4
REMARK VINA RESULT:      -7.5      2.088      7.429
REMARK  Name = 
REMARK  6 active torsions:
REMARK  status: ('A' for Active; 'I' for Inactive)
REMARK    1  A    between atoms: C_1  and  O_2
REMARK    2  A    between atoms: O_2  and  C_3
REMARK    3  A    between atoms: C_6  and  C_7
REMARK    4  A    between atoms: C_13  and  C_14
REMARK    5  A    between atoms: C_18  and  O_19
REMARK    6  A    between atoms: O_19  and  C_20
REMARK                            x       y       z     vdW  Elec       q    Type
REMARK                         _______ _______ _______ _____ _____    ______ ____
ROOT
ATOM      1  C   UNL     1       2.196   6.259  20.060  0.00  0.00    +0.000 A 
ATOM      2  C   UNL     1       1.687   5.551  21.146  0.00  0.00    +0.000 A 
ATOM      3  N   UNL     1       2.192   4.276  21.227  0.00  0.00    +0.000 NA
ATOM      4  C   UNL     1       3.011   4.200  20.207  0.00  0.00    +0.000 A 
ATOM      5  C   UNL     1       3.814   3.079  19.798  0.00  0.00    +0.000 A 
ATOM      6  N   UNL     1       4.614   3.142  18.768  0.00  0.00    +0.000 NA
ATOM      7  C   UNL     1       4.662   4.337  18.070  0.00  0.00    +0.000 A 
ATOM      8  C   UNL     1       3.952   5.435  18.407  0.00  0.00    +0.000 A 
ATOM      9  N   UNL     1       3.085   5.365  19.485  0.00  0.00    +0.000 N 
ENDROOT
BRANCH   7  10
ATOM     10  C   UNL     1       5.527   4.421  16.884  0.00  0.00    +0.000 A 
ATOM     11  C   UNL     1       6.818   4.954  16.996  0.00  0.00    +0.000 A 
ATOM     12  C   UNL     1       7.614   5.094  15.861  0.00  0.00    +0.000 A 
ATOM     13  C   UNL     1       7.125   4.701  14.613  0.00  0.00    +0.000 A 
ATOM     14  C   UNL     1       5.841   4.160  14.482  0.00  0.00    +0.000 A 
ATOM     15  C   UNL     1       5.048   4.025  15.625  0.00  0.00    +0.000 A 
ATOM     16  F   UNL     1       3.797   3.542  15.541  0.00  0.00    +0.000 F 
BRANCH  14  17
ATOM     17  O   UNL     1       5.503   3.839  13.194  0.00  0.00    +0.000 OA
ATOM     18  C   UNL     1       6.569   3.648  12.271  0.00  0.00    +0.000 C 
ENDBRANCH  14  17
ENDBRANCH   7  10
BRANCH   1  22
ATOM     19  C   UNL     1       1.243  10.243  18.769  0.00  0.00    +0.000 A 
ATOM     20  C   UNL     1       0.938   9.818  20.060  0.00  0.00    +0.000 A 
ATOM     21  C   UNL     1       1.269   8.526  20.483  0.00  0.00    +0.000 A 
ATOM     22  C   UNL     1       1.889   7.621  19.610  0.00  0.00    +0.000 A 
ATOM     23  C   UNL     1       2.144   8.046  18.300  0.00  0.00    +0.000 A 
ATOM     24  C   UNL     1       1.844   9.350  17.886  0.00  0.00    +0.000 A 
BRANCH  19  26
ATOM     25  C   UNL     1       0.025  12.161  19.420  0.00  0.00    +0.000 C 
ATOM     26  O   UNL     1       0.866  11.522  18.466  0.00  0.00    +0.000 OA
ENDBRANCH  19  26
ENDBRANCH   1  22
TORSDOF 4
ENDMDL
MODEL 5
REMARK VINA RESULT:      -7.5      4.102      6.471
REMARK  Name = 
REMARK  6 active torsions:
REMARK  status: ('A' for Active; 'I' for Inactive)
REMARK    1  A    between atoms: C_1  and  O_2
REMARK    2  A    between atoms: O_2  and  C_3
REMARK    3  A    between atoms: C_6  and  C_7
REMARK    4  A    between atoms: C_13  and  C_14
REMARK    5  A    between atoms: C_18  and  O_19
REMARK    6  A    between atoms: O_19  and  C_20
REMARK                            x       y       z     vdW  Elec       q    Type
REMARK                         _______ _______ _______ _____ _____    ______ ____
ROOT
ATOM      1  C   UNL     1       1.060   8.796  21.008  0.00  0.00    +0.000 A 
ATOM      2  C   UNL     1       1.402   9.212  22.292  0.00  0.00    +0.000 A 
ATOM      3  N   UNL     1       0.672  10.300  22.705  0.00  0.00    +0.000 NA
ATOM      4  C   UNL     1      -0.120  10.548  21.691  0.00  0.00    +0.000 A 
ATOM      5  C   UNL     1      -1.101  11.592  21.568  0.00  0.00    +0.000 A 
ATOM      6  N   UNL     1      -1.849  11.716  20.505  0.00  0.00    +0.000 NA
ATOM      7  C   UNL     1      -1.660  10.800  19.483  0.00  0.00    +0.000 A 
ATOM      8  C   UNL     1      -0.772   9.785  19.536  0.00  0.00    +0.000 A 
ATOM      9  N   UNL     1       0.039   9.664  20.653  0.00  0.00    +0.000 N 
ENDROOT
BRANCH   7  10
ATOM     10  C   UNL     1      -2.463  10.941  18.259  0.00  0.00    +0.000 A 
ATOM     11  C   UNL     1      -3.681  11.631  18.298  0.00  0.00    +0.000 A 
ATOM     12  C   UNL     1      -4.474  11.709  17.155  0.00  0.00    +0.000 A 
ATOM     13  C   UNL     1      -4.052  11.100  15.970  0.00  0.00    +0.000 A 
ATOM     14  C   UNL     1      -2.835  10.412  15.910  0.00  0.00    +0.000 A 
ATOM     15  C   UNL     1      -2.047  10.337  17.062  0.00  0.00    +0.000 A 
ATOM     16  F   UNL     1      -0.887   9.658  17.059  0.00  0.00    +0.000 F 
BRANCH  14  17
ATOM     17  O   UNL     1      -2.571   9.859  14.685  0.00  0.00    +0.000 OA
ATOM     18  C   UNL     1      -3.593   9.945  13.699  0.00  0.00    +0.000 C 
ENDBRANCH  14  17
ENDBRANCH   7  10
BRANCH   1  22
ATOM     19  C   UNL     1       2.731   5.586  18.695  0.00  0.00    +0.000 A 
ATOM     20  C   UNL     1       2.202   5.353  19.963  0.00  0.00    +0.000 A 
ATOM     21  C   UNL     1       1.639   6.398  20.704  0.00  0.00    +0.000 A 
ATOM     22  C   UNL     1       1.621   7.707  20.201  0.00  0.00    +0.000 A 
ATOM     23  C   UNL     1       2.202   7.934  18.947  0.00  0.00    +0.000 A 
ATOM     24  C   UNL     1       2.735   6.883  18.190  0.00  0.00    +0.000 A 
BRANCH  19  26
ATOM     25  C   UNL     1       2.327   3.653  17.396  0.00  0.00    +0.000 C 
ATOM     26  O   UNL     1       3.259   4.491  18.069  0.00  0.00    +0.000 OA
ENDBRANCH  19  26
ENDBRANCH   1  22
TORSDOF 4
ENDMDL
MODEL 6
REMARK VINA RESULT:      -7.4      4.178      6.248
REMARK  Name = 
REMARK  6 active torsions:
REMARK  status: ('A' for Active; 'I' for Inactive)
REMARK    1  A    between atoms: C_1  and  O_2
REMARK    2  A    between atoms: O_2  and  C_3
REMARK    3  A    between atoms: C_6  and  C_7
REMARK    4  A    between atoms: C_13  and  C_14
REMARK    5  A    between atoms: C_18  and  O_19
REMARK    6  A    between atoms: O_19  and  C_20
REMARK                            x       y       z     vdW  Elec       q    Type
REMARK                         _______ _______ _______ _____ _____    ______ ____
ROOT
ATOM      1  C   UNL     1       1.195   8.610  20.899  0.00  0.00    +0.000 A 
ATOM      2  C   UNL     1       1.595   9.100  22.140  0.00  0.00    +0.000 A 
ATOM      3  N   UNL     1       0.921  10.241  22.497  0.00  0.00    +0.000 NA
ATOM      4  C   UNL     1       0.107  10.451  21.492  0.00  0.00    +0.000 A 
ATOM      5  C   UNL     1      -0.838  11.522  21.326  0.00  0.00    +0.000 A 
ATOM      6  N   UNL     1      -1.614  11.603  20.280  0.00  0.00    +0.000 NA
ATOM      7  C   UNL     1      -1.495  10.612  19.319  0.00  0.00    +0.000 A 
ATOM      8  C   UNL     1      -0.644   9.568  19.417  0.00  0.00    +0.000 A 
ATOM      9  N   UNL     1       0.197   9.492  20.514  0.00  0.00    +0.000 N 
ENDROOT
BRANCH   7  10
ATOM     10  C   UNL     1      -2.331  10.701  18.114  0.00  0.00    +0.000 A 
ATOM     11  C   UNL     1      -1.900  10.113  16.918  0.00  0.00    +0.000 A 
ATOM     12  C   UNL     1      -2.661  10.253  15.759  0.00  0.00    +0.000 A 
ATOM     13  C   UNL     1      -3.855  10.978  15.792  0.00  0.00    +0.000 A 
ATOM     14  C   UNL     1      -4.305  11.567  16.978  0.00  0.00    +0.000 A 
ATOM     15  C   UNL     1      -3.536  11.423  18.136  0.00  0.00    +0.000 A 
ATOM     16  F   UNL     1      -3.913  12.000  19.289  0.00  0.00    +0.000 F 
BRANCH  14  17
ATOM     17  O   UNL     1      -5.482  12.255  16.843  0.00  0.00    +0.000 OA
ATOM     18  C   UNL     1      -6.556  11.880  17.697  0.00  0.00    +0.000 C 
ENDBRANCH  14  17
ENDBRANCH   7  10
BRANCH   1  22
ATOM     19  C   UNL     1       2.660   5.180  18.769  0.00  0.00    +0.000 A 
ATOM     20  C   UNL     1       2.047   5.041  20.012  0.00  0.00    +0.000 A 
ATOM     21  C   UNL     1       1.552   6.159  20.693  0.00  0.00    +0.000 A 
ATOM     22  C   UNL     1       1.688   7.446  20.154  0.00  0.00    +0.000 A 
ATOM     23  C   UNL     1       2.352   7.575  18.927  0.00  0.00    +0.000 A 
ATOM     24  C   UNL     1       2.817   6.453  18.229  0.00  0.00    +0.000 A 
BRANCH  19  26
ATOM     25  C   UNL     1       3.948   4.172  17.063  0.00  0.00    +0.000 C 
ATOM     26  O   UNL     1       3.111   4.019  18.203  0.00  0.00    +0.000 OA
ENDBRANCH  19  26
ENDBRANCH   1  22
TORSDOF 4
ENDMDL
MODEL 7
REMARK VINA RESULT:      -7.4      4.083      6.153
REMARK  Name = 
REMARK  6 active torsions:
REMARK  status: ('A' for Active; 'I' for Inactive)
REMARK    1  A    between atoms: C_1  and  O_2
REMARK    2  A    between atoms: O_2  and  C_3
REMARK    3  A    between atoms: C_6  and  C_7
REMARK    4  A    between atoms: C_13  and  C_14
REMARK    5  A    between atoms: C_18  and  O_19
REMARK    6  A    between atoms: O_19  and  C_20
REMARK                            x       y       z     vdW  Elec       q    Type
REMARK                         _______ _______ _______ _____ _____    ______ ____
ROOT
ATOM      1  C   UNL     1       1.342   8.478  20.852  0.00  0.00    +0.000 A 
ATOM      2  C   UNL     1       1.769   8.955  22.088  0.00  0.00    +0.000 A 
ATOM      3  N   UNL     1       1.111  10.098  22.468  0.00  0.00    +0.000 NA
ATOM      4  C   UNL     1       0.278  10.321  21.481  0.00  0.00    +0.000 A 
ATOM      5  C   UNL     1      -0.662  11.400  21.343  0.00  0.00    +0.000 A 
ATOM      6  N   UNL     1      -1.459  11.494  20.313  0.00  0.00    +0.000 NA
ATOM      7  C   UNL     1      -1.366  10.510  19.343  0.00  0.00    +0.000 A 
ATOM      8  C   UNL     1      -0.521   9.460  19.415  0.00  0.00    +0.000 A 
ATOM      9  N   UNL     1       0.342   9.369  20.494  0.00  0.00    +0.000 N 
ENDROOT
BRANCH   7  10
ATOM     10  C   UNL     1      -2.226  10.614  18.155  0.00  0.00    +0.000 A 
ATOM     11  C   UNL     1      -1.858   9.971  16.966  0.00  0.00    +0.000 A 
ATOM     12  C   UNL     1      -2.639  10.123  15.822  0.00  0.00    +0.000 A 
ATOM     13  C   UNL     1      -3.790  10.915  15.863  0.00  0.00    +0.000 A 
ATOM     14  C   UNL     1      -4.177  11.559  17.042  0.00  0.00    +0.000 A 
ATOM     15  C   UNL     1      -3.388  11.403  18.185  0.00  0.00    +0.000 A 
ATOM     16  F   UNL     1      -3.704  12.030  19.330  0.00  0.00    +0.000 F 
BRANCH  14  17
ATOM     17  O   UNL     1      -5.317  12.309  16.916  0.00  0.00    +0.000 OA
ATOM     18  C   UNL     1      -6.471  11.860  17.615  0.00  0.00    +0.000 C 
ENDBRANCH  14  17
ENDBRANCH   7  10
BRANCH   1  22
ATOM     19  C   UNL     1       2.692   5.101  18.566  0.00  0.00    +0.000 A 
ATOM     20  C   UNL     1       2.822   6.397  18.072  0.00  0.00    +0.000 A 
ATOM     21  C   UNL     1       2.401   7.495  18.829  0.00  0.00    +0.000 A 
ATOM     22  C   UNL     1       1.811   7.316  20.088  0.00  0.00    +0.000 A 
ATOM     23  C   UNL     1       1.640   6.005  20.550  0.00  0.00    +0.000 A 
ATOM     24  C   UNL     1       2.093   4.906  19.808  0.00  0.00    +0.000 A 
BRANCH  19  26
ATOM     25  C   UNL     1       3.974   3.130  18.333  0.00  0.00    +0.000 C 
ATOM     26  O   UNL     1       3.131   4.108  17.735  0.00  0.00    +0.000 OA
ENDBRANCH  19  26
ENDBRANCH   1  22
TORSDOF 4
ENDMDL
MODEL 8
REMARK VINA RESULT:      -7.4      0.554      1.081
REMARK  Name = 
REMARK  6 active torsions:
REMARK  status: ('A' for Active; 'I' for Inactive)
REMARK    1  A    between atoms: C_1  and  O_2
REMARK    2  A    between atoms: O_2  and  C_3
REMARK    3  A    between atoms: C_6  and  C_7
REMARK    4  A    between atoms: C_13  and  C_14
REMARK    5  A    between atoms: C_18  and  O_19
REMARK    6  A    between atoms: O_19  and  C_20
REMARK                            x       y       z     vdW  Elec       q    Type
REMARK                         _______ _______ _______ _____ _____    ______ ____
ROOT
ATOM      1  C   UNL     1       4.501   3.945  18.229  0.00  0.00    +0.000 A 
ATOM      2  C   UNL     1       4.514   2.770  18.976  0.00  0.00    +0.000 A 
ATOM      3  N   UNL     1       3.714   2.844  20.090  0.00  0.00    +0.000 NA
ATOM      4  C   UNL     1       3.204   4.050  20.027  0.00  0.00    +0.000 A 
ATOM      5  C   UNL     1       2.294   4.675  20.949  0.00  0.00    +0.000 A 
ATOM      6  N   UNL     1       1.838   5.884  20.756  0.00  0.00    +0.000 NA
ATOM      7  C   UNL     1       2.268   6.555  19.623  0.00  0.00    +0.000 A 
ATOM      8  C   UNL     1       3.106   6.024  18.707  0.00  0.00    +0.000 A 
ATOM      9  N   UNL     1       3.609   4.752  18.919  0.00  0.00    +0.000 N 
ENDROOT
BRANCH   7  10
ATOM     10  C   UNL     1       1.799   7.931  19.404  0.00  0.00    +0.000 A 
ATOM     11  C   UNL     1       1.935   8.523  18.142  0.00  0.00    +0.000 A 
ATOM     12  C   UNL     1       1.551   9.849  17.950  0.00  0.00    +0.000 A 
ATOM     13  C   UNL     1       1.027  10.585  19.017  0.00  0.00    +0.000 A 
ATOM     14  C   UNL     1       0.878  10.008  20.282  0.00  0.00    +0.000 A 
ATOM     15  C   UNL     1       1.267   8.678  20.467  0.00  0.00    +0.000 A 
ATOM     16  F   UNL     1       1.172   8.095  21.673  0.00  0.00    +0.000 F 
BRANCH  14  17
ATOM     17  O   UNL     1       0.366  10.862  21.223  0.00  0.00    +0.000 OA
ATOM     18  C   UNL     1      -0.808  11.586  20.874  0.00  0.00    +0.000 C 
ENDBRANCH  14  17
ENDBRANCH   7  10
BRANCH   1  22
ATOM     19  C   UNL     1       6.640   4.867  14.621  0.00  0.00    +0.000 A 
ATOM     20  C   UNL     1       5.399   4.236  14.574  0.00  0.00    +0.000 A 
ATOM     21  C   UNL     1       4.696   3.956  15.751  0.00  0.00    +0.000 A 
ATOM     22  C   UNL     1       5.236   4.278  17.004  0.00  0.00    +0.000 A 
ATOM     23  C   UNL     1       6.507   4.867  17.038  0.00  0.00    +0.000 A 
ATOM     24  C   UNL     1       7.196   5.178  15.858  0.00  0.00    +0.000 A 
BRANCH  19  26
ATOM     25  C   UNL     1       8.572   5.569  13.455  0.00  0.00    +0.000 C 
ATOM     26  O   UNL     1       7.236   5.082  13.409  0.00  0.00    +0.000 OA
ENDBRANCH  19  26
ENDBRANCH   1  22
TORSDOF 4
ENDMDL
MODEL 9
REMARK VINA RESULT:      -7.2      2.001      7.394
REMARK  Name = 
REMARK  6 active torsions:
REMARK  status: ('A' for Active; 'I' for Inactive)
REMARK    1  A    between atoms: C_1  and  O_2
REMARK    2  A    between atoms: O_2  and  C_3
REMARK    3  A    between atoms: C_6  and  C_7
REMARK    4  A    between atoms: C_13  and  C_14
REMARK    5  A    between atoms: C_18  and  O_19
REMARK    6  A    between atoms: O_19  and  C_20
REMARK                            x       y       z     vdW  Elec       q    Type
REMARK                         _______ _______ _______ _____ _____    ______ ____
ROOT
ATOM      1  C   UNL     1       2.495   5.906  19.702  0.00  0.00    +0.000 A 
ATOM      2  C   UNL     1       2.185   5.137  20.820  0.00  0.00    +0.000 A 
ATOM      3  N   UNL     1       2.684   3.861  20.738  0.00  0.00    +0.000 NA
ATOM      4  C   UNL     1       3.305   3.843  19.583  0.00  0.00    +0.000 A 
ATOM      5  C   UNL     1       4.010   2.748  18.974  0.00  0.00    +0.000 A 
ATOM      6  N   UNL     1       4.612   2.869  17.822  0.00  0.00    +0.000 NA
ATOM      7  C   UNL     1       4.544   4.103  17.194  0.00  0.00    +0.000 A 
ATOM      8  C   UNL     1       3.916   5.178  17.714  0.00  0.00    +0.000 A 
ATOM      9  N   UNL     1       3.258   5.047  18.925  0.00  0.00    +0.000 N 
ENDROOT
BRANCH   7  10
ATOM     10  C   UNL     1       5.182   4.254  15.878  0.00  0.00    +0.000 A 
ATOM     11  C   UNL     1       4.616   3.643  14.752  0.00  0.00    +0.000 A 
ATOM     12  C   UNL     1       5.254   3.731  13.517  0.00  0.00    +0.000 A 
ATOM     13  C   UNL     1       6.457   4.431  13.402  0.00  0.00    +0.000 A 
ATOM     14  C   UNL     1       7.035   5.054  14.514  0.00  0.00    +0.000 A 
ATOM     15  C   UNL     1       6.389   4.960  15.750  0.00  0.00    +0.000 A 
ATOM     16  F   UNL     1       6.924   5.515  16.850  0.00  0.00    +0.000 F 
BRANCH  14  17
ATOM     17  O   UNL     1       8.219   5.687  14.241  0.00  0.00    +0.000 OA
ATOM     18  C   UNL     1       8.574   5.841  12.872  0.00  0.00    +0.000 C 
ENDBRANCH  14  17
ENDBRANCH   7  10
BRANCH   1  22
ATOM     19  C   UNL     1       1.357   9.953  18.820  0.00  0.00    +0.000 A 
ATOM     20  C   UNL     1       1.128   9.404  20.080  0.00  0.00    +0.000 A 
ATOM     21  C   UNL     1       1.520   8.093  20.369  0.00  0.00    +0.000 A 
ATOM     22  C   UNL     1       2.124   7.291  19.391  0.00  0.00    +0.000 A 
ATOM     23  C   UNL     1       2.302   7.839  18.114  0.00  0.00    +0.000 A 
ATOM     24  C   UNL     1       1.941   9.164  17.833  0.00  0.00    +0.000 A 
BRANCH  19  26
ATOM     25  C   UNL     1       0.570  11.933  19.842  0.00  0.00    +0.000 C 
ATOM     26  O   UNL     1       0.925  11.239  18.652  0.00  0.00    +0.000 OA
ENDBRANCH  19  26
ENDBRANCH   1  22
TORSDOF 4
ENDMDL
