MODEL 1
REMARK VINA RESULT:      -6.4      0.000      0.000
REMARK  Name = 
REMARK  20 active torsions:
REMARK  status: ('A' for Active; 'I' for Inactive)
REMARK    1  A    between atoms: C_1  and  C_2
REMARK    2  A    between atoms: C_2  and  O_3
REMARK    3  A    between atoms: O_3  and  P_4
REMARK    4  A    between atoms: P_4  and  O_6
REMARK    5  A    between atoms: P_4  and  C_9
REMARK    6  A    between atoms: O_6  and  C_7
REMARK    7  A    between atoms: C_7  and  C_8
REMARK    8  A    between atoms: C_9  and  C_10
REMARK    9  A    between atoms: C_9  and  P_21
REMARK   10  A    between atoms: C_10  and  N_11
REMARK   11  A    between atoms: N_11  and  C_12
REMARK   12  A    between atoms: C_12  and  C_13
REMARK   13  A    between atoms: C_13  and  O_14
REMARK   14  A    between atoms: O_14  and  C_15
REMARK   15  A    between atoms: P_21  and  O_23
REMARK   16  A    between atoms: P_21  and  O_26
REMARK   17  A    between atoms: O_23  and  C_24
REMARK   18  A    between atoms: C_24  and  C_25
REMARK   19  A    between atoms: O_26  and  C_27
REMARK   20  A    between atoms: C_27  and  C_28
REMARK                            x       y       z     vdW  Elec       q    Type
REMARK                         _______ _______ _______ _____ _____    ______ ____
ROOT
ATOM      1  C   UNL     1       4.374   5.784  17.920  0.00  0.00    +0.000 C 
ENDROOT
BRANCH   1   2
ATOM      2  P   UNL     1       5.171   5.633  16.280  0.00  0.00    +0.000 P 
ATOM      3  O   UNL     1       4.695   4.179  16.163  0.00  0.00    +0.000 OA
BRANCH   2   4
ATOM      4  O   UNL     1       6.743   5.947  16.841  0.00  0.00    +0.000 OA
BRANCH   4   5
ATOM      5  C   UNL     1       7.172   7.215  17.397  0.00  0.00    +0.000 C 
ATOM      6  C   UNL     1       8.112   7.210  18.608  0.00  0.00    +0.000 C 
ENDBRANCH   4   5
ENDBRANCH   2   4
BRANCH   2   7
ATOM      7  O   UNL     1       5.924   5.491  14.729  0.00  0.00    +0.000 OA
BRANCH   7   9
ATOM      8  C   UNL     1       6.222   3.744  13.120  0.00  0.00    +0.000 C 
ATOM      9  C   UNL     1       6.609   4.266  14.488  0.00  0.00    +0.000 C 
ENDBRANCH   7   9
ENDBRANCH   2   7
ENDBRANCH   1   2
BRANCH   1  10
ATOM     10  P   UNL     1       4.269   4.132  18.701  0.00  0.00    +0.000 P 
ATOM     11  O   UNL     1       5.720   4.123  19.138  0.00  0.00    +0.000 OA
BRANCH  10  12
ATOM     12  O   UNL     1       4.169   2.571  19.440  0.00  0.00    +0.000 OA
BRANCH  12  13
ATOM     13  C   UNL     1       3.614   1.499  18.661  0.00  0.00    +0.000 C 
ATOM     14  C   UNL     1       2.599   2.005  17.659  0.00  0.00    +0.000 C 
ENDBRANCH  12  13
ENDBRANCH  10  12
BRANCH  10  15
ATOM     15  O   UNL     1       3.292   4.775  19.880  0.00  0.00    +0.000 OA
BRANCH  15  16
ATOM     16  C   UNL     1       2.480   4.027  20.778  0.00  0.00    +0.000 C 
ATOM     17  C   UNL     1       1.034   4.054  20.428  0.00  0.00    +0.000 C 
ENDBRANCH  15  16
ENDBRANCH  10  15
ENDBRANCH   1  10
BRANCH   1  18
ATOM     18  C   UNL     1       3.018   6.451  17.811  0.00  0.00    +0.000 C 
BRANCH  18  19
ATOM     19  N   UNL     1       2.739   7.421  18.876  0.00  0.00    +0.000 NA
ATOM     20  H   UNL     1       3.581   7.608  19.426  0.00  0.00    +0.000 HD
BRANCH  19  21
ATOM     21  C   UNL     1       2.261   8.707  18.314  0.00  0.00    +0.000 C 
BRANCH  21  22
ATOM     22  C   UNL     1       1.083   9.325  19.086  0.00  0.00    +0.000 C 
BRANCH  22  23
ATOM     23  O   UNL     1       1.192   9.019  20.475  0.00  0.00    +0.000 OA
BRANCH  23  24
ATOM     24  C   UNL     1       0.452   9.840  21.287  0.00  0.00    +0.000 A 
ATOM     25  C   UNL     1       0.406  11.174  20.889  0.00  0.00    +0.000 A 
ATOM     26  C   UNL     1      -0.296  12.115  21.645  0.00  0.00    +0.000 A 
ATOM     27  C   UNL     1      -0.981  11.720  22.793  0.00  0.00    +0.000 A 
ATOM     28  C   UNL     1      -0.961  10.383  23.179  0.00  0.00    +0.000 A 
ATOM     29  C   UNL     1      -0.250   9.444  22.430  0.00  0.00    +0.000 A 
ENDBRANCH  23  24
ENDBRANCH  22  23
ENDBRANCH  21  22
ENDBRANCH  19  21
ENDBRANCH  18  19
ENDBRANCH   1  18
TORSDOF 16
ENDMDL
MODEL 2
REMARK VINA RESULT:      -6.3      0.876      1.228
REMARK  Name = 
REMARK  20 active torsions:
REMARK  status: ('A' for Active; 'I' for Inactive)
REMARK    1  A    between atoms: C_1  and  C_2
REMARK    2  A    between atoms: C_2  and  O_3
REMARK    3  A    between atoms: O_3  and  P_4
REMARK    4  A    between atoms: P_4  and  O_6
REMARK    5  A    between atoms: P_4  and  C_9
REMARK    6  A    between atoms: O_6  and  C_7
REMARK    7  A    between atoms: C_7  and  C_8
REMARK    8  A    between atoms: C_9  and  C_10
REMARK    9  A    between atoms: C_9  and  P_21
REMARK   10  A    between atoms: C_10  and  N_11
REMARK   11  A    between atoms: N_11  and  C_12
REMARK   12  A    between atoms: C_12  and  C_13
REMARK   13  A    between atoms: C_13  and  O_14
REMARK   14  A    between atoms: O_14  and  C_15
REMARK   15  A    between atoms: P_21  and  O_23
REMARK   16  A    between atoms: P_21  and  O_26
REMARK   17  A    between atoms: O_23  and  C_24
REMARK   18  A    between atoms: C_24  and  C_25
REMARK   19  A    between atoms: O_26  and  C_27
REMARK   20  A    between atoms: C_27  and  C_28
REMARK                            x       y       z     vdW  Elec       q    Type
REMARK                         _______ _______ _______ _____ _____    ______ ____
ROOT
ATOM      1  C   UNL     1       4.445   6.208  18.199  0.00  0.00    +0.000 C 
ENDROOT
BRANCH   1   2
ATOM      2  P   UNL     1       5.060   5.939  16.497  0.00  0.00    +0.000 P 
ATOM      3  O   UNL     1       5.431   4.491  16.842  0.00  0.00    +0.000 OA
BRANCH   2   4
ATOM      4  O   UNL     1       6.259   7.140  16.573  0.00  0.00    +0.000 OA
BRANCH   4   5
ATOM      5  C   UNL     1       7.360   7.135  17.518  0.00  0.00    +0.000 C 
ATOM      6  C   UNL     1       8.038   8.464  17.867  0.00  0.00    +0.000 C 
ENDBRANCH   4   5
ENDBRANCH   2   4
BRANCH   2   7
ATOM      7  O   UNL     1       5.643   5.684  14.888  0.00  0.00    +0.000 OA
BRANCH   7   9
ATOM      8  C   UNL     1       6.609   4.142  13.332  0.00  0.00    +0.000 C 
ATOM      9  C   UNL     1       5.564   4.345  14.410  0.00  0.00    +0.000 C 
ENDBRANCH   7   9
ENDBRANCH   2   7
ENDBRANCH   1   2
BRANCH   1  10
ATOM     10  P   UNL     1       4.339   4.603  19.071  0.00  0.00    +0.000 P 
ATOM     11  O   UNL     1       5.683   4.758  19.754  0.00  0.00    +0.000 OA
BRANCH  10  12
ATOM     12  O   UNL     1       4.239   3.085  19.896  0.00  0.00    +0.000 OA
BRANCH  12  13
ATOM     13  C   UNL     1       4.042   1.906  19.100  0.00  0.00    +0.000 C 
ATOM     14  C   UNL     1       2.982   2.118  18.041  0.00  0.00    +0.000 C 
ENDBRANCH  12  13
ENDBRANCH  10  12
BRANCH  10  15
ATOM     15  O   UNL     1       3.115   5.218  20.010  0.00  0.00    +0.000 OA
BRANCH  15  16
ATOM     16  C   UNL     1       2.332   4.473  20.937  0.00  0.00    +0.000 C 
ATOM     17  C   UNL     1       0.958   4.181  20.449  0.00  0.00    +0.000 C 
ENDBRANCH  15  16
ENDBRANCH  10  15
ENDBRANCH   1  10
BRANCH   1  18
ATOM     18  C   UNL     1       3.120   6.942  18.192  0.00  0.00    +0.000 C 
BRANCH  18  19
ATOM     19  N   UNL     1       3.044   8.034  17.214  0.00  0.00    +0.000 NA
ATOM     20  H   UNL     1       2.506   7.750  16.393  0.00  0.00    +0.000 HD
BRANCH  19  21
ATOM     21  C   UNL     1       2.392   9.231  17.801  0.00  0.00    +0.000 C 
BRANCH  21  22
ATOM     22  C   UNL     1       1.437   8.911  18.964  0.00  0.00    +0.000 C 
BRANCH  22  23
ATOM     23  O   UNL     1       0.546  10.004  19.181  0.00  0.00    +0.000 OA
BRANCH  23  24
ATOM     24  C   UNL     1       0.124  10.130  20.480  0.00  0.00    +0.000 A 
ATOM     25  C   UNL     1       0.586   9.142  21.347  0.00  0.00    +0.000 A 
ATOM     26  C   UNL     1       0.208   9.146  22.691  0.00  0.00    +0.000 A 
ATOM     27  C   UNL     1      -0.614  10.157  23.184  0.00  0.00    +0.000 A 
ATOM     28  C   UNL     1      -1.056  11.162  22.328  0.00  0.00    +0.000 A 
ATOM     29  C   UNL     1      -0.688  11.152  20.982  0.00  0.00    +0.000 A 
ENDBRANCH  23  24
ENDBRANCH  22  23
ENDBRANCH  21  22
ENDBRANCH  19  21
ENDBRANCH  18  19
ENDBRANCH   1  18
TORSDOF 16
ENDMDL
MODEL 3
REMARK VINA RESULT:      -6.1      1.408      2.313
REMARK  Name = 
REMARK  20 active torsions:
REMARK  status: ('A' for Active; 'I' for Inactive)
REMARK    1  A    between atoms: C_1  and  C_2
REMARK    2  A    between atoms: C_2  and  O_3
REMARK    3  A    between atoms: O_3  and  P_4
REMARK    4  A    between atoms: P_4  and  O_6
REMARK    5  A    between atoms: P_4  and  C_9
REMARK    6  A    between atoms: O_6  and  C_7
REMARK    7  A    between atoms: C_7  and  C_8
REMARK    8  A    between atoms: C_9  and  C_10
REMARK    9  A    between atoms: C_9  and  P_21
REMARK   10  A    between atoms: C_10  and  N_11
REMARK   11  A    between atoms: N_11  and  C_12
REMARK   12  A    between atoms: C_12  and  C_13
REMARK   13  A    between atoms: C_13  and  O_14
REMARK   14  A    between atoms: O_14  and  C_15
REMARK   15  A    between atoms: P_21  and  O_23
REMARK   16  A    between atoms: P_21  and  O_26
REMARK   17  A    between atoms: O_23  and  C_24
REMARK   18  A    between atoms: C_24  and  C_25
REMARK   19  A    between atoms: O_26  and  C_27
REMARK   20  A    between atoms: C_27  and  C_28
REMARK                            x       y       z     vdW  Elec       q    Type
REMARK                         _______ _______ _______ _____ _____    ______ ____
ROOT
ATOM      1  C   UNL     1       3.753   5.795  19.645  0.00  0.00    +0.000 C 
ENDROOT
BRANCH   1   2
ATOM      2  P   UNL     1       4.737   5.034  18.303  0.00  0.00    +0.000 P 
ATOM      3  O   UNL     1       5.379   4.062  19.301  0.00  0.00    +0.000 OA
BRANCH   2   4
ATOM      4  O   UNL     1       5.563   6.460  17.888  0.00  0.00    +0.000 OA
BRANCH   4   5
ATOM      5  C   UNL     1       6.997   6.540  17.682  0.00  0.00    +0.000 C 
ATOM      6  C   UNL     1       7.930   6.247  18.861  0.00  0.00    +0.000 C 
ENDBRANCH   4   5
ENDBRANCH   2   4
BRANCH   2   7
ATOM      7  O   UNL     1       5.667   4.315  17.034  0.00  0.00    +0.000 OA
BRANCH   7   9
ATOM      8  C   UNL     1       6.060   4.116  14.681  0.00  0.00    +0.000 C 
ATOM      9  C   UNL     1       5.015   4.217  15.772  0.00  0.00    +0.000 C 
ENDBRANCH   7   9
ENDBRANCH   2   7
ENDBRANCH   1   2
BRANCH   1  10
ATOM     10  P   UNL     1       2.348   4.701  20.066  0.00  0.00    +0.000 P 
ATOM     11  O   UNL     1       1.473   5.832  20.570  0.00  0.00    +0.000 OA
BRANCH  10  12
ATOM     12  O   UNL     1       1.019   3.667  20.464  0.00  0.00    +0.000 OA
BRANCH  12  13
ATOM     13  C   UNL     1       1.244   2.639  21.443  0.00  0.00    +0.000 C 
ATOM     14  C   UNL     1       2.720   2.372  21.643  0.00  0.00    +0.000 C 
ENDBRANCH  12  13
ENDBRANCH  10  12
BRANCH  10  15
ATOM     15  O   UNL     1       2.102   4.429  18.447  0.00  0.00    +0.000 OA
BRANCH  15  16
ATOM     16  C   UNL     1       1.536   3.251  17.884  0.00  0.00    +0.000 C 
ATOM     17  C   UNL     1       2.508   2.133  17.751  0.00  0.00    +0.000 C 
ENDBRANCH  15  16
ENDBRANCH  10  15
ENDBRANCH   1  10
BRANCH   1  18
ATOM     18  C   UNL     1       3.298   7.189  19.267  0.00  0.00    +0.000 C 
BRANCH  18  19
ATOM     19  N   UNL     1       2.705   7.285  17.928  0.00  0.00    +0.000 NA
ATOM     20  H   UNL     1       1.914   6.644  17.836  0.00  0.00    +0.000 HD
BRANCH  19  21
ATOM     21  C   UNL     1       2.219   8.660  17.658  0.00  0.00    +0.000 C 
BRANCH  21  22
ATOM     22  C   UNL     1       0.967   9.047  18.464  0.00  0.00    +0.000 C 
BRANCH  22  23
ATOM     23  O   UNL     1       1.258  10.148  19.323  0.00  0.00    +0.000 OA
BRANCH  23  24
ATOM     24  C   UNL     1       0.592  10.111  20.522  0.00  0.00    +0.000 A 
ATOM     25  C   UNL     1       0.245  11.357  21.040  0.00  0.00    +0.000 A 
ATOM     26  C   UNL     1      -0.415  11.454  22.266  0.00  0.00    +0.000 A 
ATOM     27  C   UNL     1      -0.757  10.302  22.971  0.00  0.00    +0.000 A 
ATOM     28  C   UNL     1      -0.437   9.054  22.445  0.00  0.00    +0.000 A 
ATOM     29  C   UNL     1       0.233   8.956  21.224  0.00  0.00    +0.000 A 
ENDBRANCH  23  24
ENDBRANCH  22  23
ENDBRANCH  21  22
ENDBRANCH  19  21
ENDBRANCH  18  19
ENDBRANCH   1  18
TORSDOF 16
ENDMDL
MODEL 4
REMARK VINA RESULT:      -6.0      1.471      1.947
REMARK  Name = 
REMARK  20 active torsions:
REMARK  status: ('A' for Active; 'I' for Inactive)
REMARK    1  A    between atoms: C_1  and  C_2
REMARK    2  A    between atoms: C_2  and  O_3
REMARK    3  A    between atoms: O_3  and  P_4
REMARK    4  A    between atoms: P_4  and  O_6
REMARK    5  A    between atoms: P_4  and  C_9
REMARK    6  A    between atoms: O_6  and  C_7
REMARK    7  A    between atoms: C_7  and  C_8
REMARK    8  A    between atoms: C_9  and  C_10
REMARK    9  A    between atoms: C_9  and  P_21
REMARK   10  A    between atoms: C_10  and  N_11
REMARK   11  A    between atoms: N_11  and  C_12
REMARK   12  A    between atoms: C_12  and  C_13
REMARK   13  A    between atoms: C_13  and  O_14
REMARK   14  A    between atoms: O_14  and  C_15
REMARK   15  A    between atoms: P_21  and  O_23
REMARK   16  A    between atoms: P_21  and  O_26
REMARK   17  A    between atoms: O_23  and  C_24
REMARK   18  A    between atoms: C_24  and  C_25
REMARK   19  A    between atoms: O_26  and  C_27
REMARK   20  A    between atoms: C_27  and  C_28
REMARK                            x       y       z     vdW  Elec       q    Type
REMARK                         _______ _______ _______ _____ _____    ______ ____
ROOT
ATOM      1  C   UNL     1       4.388   5.647  18.470  0.00  0.00    +0.000 C 
ENDROOT
BRANCH   1   2
ATOM      2  P   UNL     1       4.996   5.748  16.747  0.00  0.00    +0.000 P 
ATOM      3  O   UNL     1       4.245   4.459  16.389  0.00  0.00    +0.000 OA
BRANCH   2   4
ATOM      4  O   UNL     1       6.642   5.661  17.157  0.00  0.00    +0.000 OA
BRANCH   4   5
ATOM      5  C   UNL     1       7.314   6.600  18.035  0.00  0.00    +0.000 C 
ATOM      6  C   UNL     1       8.128   6.056  19.214  0.00  0.00    +0.000 C 
ENDBRANCH   4   5
ENDBRANCH   2   4
BRANCH   2   7
ATOM      7  O   UNL     1       5.570   5.844  15.118  0.00  0.00    +0.000 OA
BRANCH   7   9
ATOM      8  C   UNL     1       6.194   4.025  13.692  0.00  0.00    +0.000 C 
ATOM      9  C   UNL     1       6.643   4.966  14.792  0.00  0.00    +0.000 C 
ENDBRANCH   7   9
ENDBRANCH   2   7
ENDBRANCH   1   2
BRANCH   1  10
ATOM     10  P   UNL     1       4.229   3.891  18.959  0.00  0.00    +0.000 P 
ATOM     11  O   UNL     1       5.643   3.796  19.495  0.00  0.00    +0.000 OA
BRANCH  10  12
ATOM     12  O   UNL     1       4.078   2.230  19.422  0.00  0.00    +0.000 OA
BRANCH  12  13
ATOM     13  C   UNL     1       3.545   1.314  18.452  0.00  0.00    +0.000 C 
ATOM     14  C   UNL     1       2.423   1.940  17.651  0.00  0.00    +0.000 C 
ENDBRANCH  12  13
ENDBRANCH  10  12
BRANCH  10  15
ATOM     15  O   UNL     1       3.165   4.342  20.152  0.00  0.00    +0.000 OA
BRANCH  15  16
ATOM     16  C   UNL     1       2.573   3.465  21.104  0.00  0.00    +0.000 C 
ATOM     17  C   UNL     1       1.116   3.255  20.889  0.00  0.00    +0.000 C 
ENDBRANCH  15  16
ENDBRANCH  10  15
ENDBRANCH   1  10
BRANCH   1  18
ATOM     18  C   UNL     1       3.088   6.406  18.637  0.00  0.00    +0.000 C 
BRANCH  18  19
ATOM     19  N   UNL     1       2.974   7.128  19.910  0.00  0.00    +0.000 NA
ATOM     20  H   UNL     1       3.404   8.054  19.842  0.00  0.00    +0.000 HD
BRANCH  19  21
ATOM     21  C   UNL     1       1.552   7.308  20.295  0.00  0.00    +0.000 C 
BRANCH  21  22
ATOM     22  C   UNL     1       1.161   8.771  20.566  0.00  0.00    +0.000 C 
BRANCH  22  23
ATOM     23  O   UNL     1       1.175   9.516  19.350  0.00  0.00    +0.000 OA
BRANCH  23  24
ATOM     24  C   UNL     1       0.001  10.175  19.086  0.00  0.00    +0.000 A 
ATOM     25  C   UNL     1      -0.606   9.832  17.879  0.00  0.00    +0.000 A 
ATOM     26  C   UNL     1      -1.794  10.449  17.484  0.00  0.00    +0.000 A 
ATOM     27  C   UNL     1      -2.398  11.397  18.307  0.00  0.00    +0.000 A 
ATOM     28  C   UNL     1      -1.810  11.724  19.526  0.00  0.00    +0.000 A 
ATOM     29  C   UNL     1      -0.616  11.115  19.917  0.00  0.00    +0.000 A 
ENDBRANCH  23  24
ENDBRANCH  22  23
ENDBRANCH  21  22
ENDBRANCH  19  21
ENDBRANCH  18  19
ENDBRANCH   1  18
TORSDOF 16
ENDMDL
MODEL 5
REMARK VINA RESULT:      -6.0      1.700      2.150
REMARK  Name = 
REMARK  20 active torsions:
REMARK  status: ('A' for Active; 'I' for Inactive)
REMARK    1  A    between atoms: C_1  and  C_2
REMARK    2  A    between atoms: C_2  and  O_3
REMARK    3  A    between atoms: O_3  and  P_4
REMARK    4  A    between atoms: P_4  and  O_6
REMARK    5  A    between atoms: P_4  and  C_9
REMARK    6  A    between atoms: O_6  and  C_7
REMARK    7  A    between atoms: C_7  and  C_8
REMARK    8  A    between atoms: C_9  and  C_10
REMARK    9  A    between atoms: C_9  and  P_21
REMARK   10  A    between atoms: C_10  and  N_11
REMARK   11  A    between atoms: N_11  and  C_12
REMARK   12  A    between atoms: C_12  and  C_13
REMARK   13  A    between atoms: C_13  and  O_14
REMARK   14  A    between atoms: O_14  and  C_15
REMARK   15  A    between atoms: P_21  and  O_23
REMARK   16  A    between atoms: P_21  and  O_26
REMARK   17  A    between atoms: O_23  and  C_24
REMARK   18  A    between atoms: C_24  and  C_25
REMARK   19  A    between atoms: O_26  and  C_27
REMARK   20  A    between atoms: C_27  and  C_28
REMARK                            x       y       z     vdW  Elec       q    Type
REMARK                         _______ _______ _______ _____ _____    ______ ____
ROOT
ATOM      1  C   UNL     1       5.252   5.157  19.152  0.00  0.00    +0.000 C 
ENDROOT
BRANCH   1   2
ATOM      2  P   UNL     1       6.394   5.182  17.723  0.00  0.00    +0.000 P 
ATOM      3  O   UNL     1       7.433   4.379  18.517  0.00  0.00    +0.000 OA
BRANCH   2   4
ATOM      4  O   UNL     1       6.528   6.874  17.659  0.00  0.00    +0.000 OA
BRANCH   4   5
ATOM      5  C   UNL     1       7.738   7.583  17.291  0.00  0.00    +0.000 C 
ATOM      6  C   UNL     1       8.018   8.948  17.929  0.00  0.00    +0.000 C 
ENDBRANCH   4   5
ENDBRANCH   2   4
BRANCH   2   7
ATOM      7  O   UNL     1       7.474   5.205  16.371  0.00  0.00    +0.000 OA
BRANCH   7   9
ATOM      8  C   UNL     1       5.579   4.951  14.931  0.00  0.00    +0.000 C 
ATOM      9  C   UNL     1       7.011   4.538  15.202  0.00  0.00    +0.000 C 
ENDBRANCH   7   9
ENDBRANCH   2   7
ENDBRANCH   1   2
BRANCH   1  10
ATOM     10  P   UNL     1       4.247   3.628  19.103  0.00  0.00    +0.000 P 
ATOM     11  O   UNL     1       5.240   2.816  19.911  0.00  0.00    +0.000 OA
BRANCH  10  12
ATOM     12  O   UNL     1       3.296   2.183  19.058  0.00  0.00    +0.000 OA
BRANCH  12  13
ATOM     13  C   UNL     1       2.638   1.857  17.823  0.00  0.00    +0.000 C 
ATOM     14  C   UNL     1       2.600   3.042  16.882  0.00  0.00    +0.000 C 
ENDBRANCH  12  13
ENDBRANCH  10  12
BRANCH  10  15
ATOM     15  O   UNL     1       3.128   4.358  20.089  0.00  0.00    +0.000 OA
BRANCH  15  16
ATOM     16  C   UNL     1       1.879   3.796  20.479  0.00  0.00    +0.000 C 
ATOM     17  C   UNL     1       1.907   3.172  21.828  0.00  0.00    +0.000 C 
ENDBRANCH  15  16
ENDBRANCH  10  15
ENDBRANCH   1  10
BRANCH   1  18
ATOM     18  C   UNL     1       4.393   6.404  19.188  0.00  0.00    +0.000 C 
BRANCH  18  19
ATOM     19  N   UNL     1       3.723   6.707  17.919  0.00  0.00    +0.000 NA
ATOM     20  H   UNL     1       3.778   5.911  17.280  0.00  0.00    +0.000 HD
BRANCH  19  21
ATOM     21  C   UNL     1       2.290   7.027  18.135  0.00  0.00    +0.000 C 
BRANCH  21  22
ATOM     22  C   UNL     1       2.053   8.201  19.100  0.00  0.00    +0.000 C 
BRANCH  22  23
ATOM     23  O   UNL     1       1.829   9.402  18.366  0.00  0.00    +0.000 OA
BRANCH  23  24
ATOM     24  C   UNL     1       0.718  10.101  18.765  0.00  0.00    +0.000 A 
ATOM     25  C   UNL     1      -0.408   9.922  17.964  0.00  0.00    +0.000 A 
ATOM     26  C   UNL     1      -1.596  10.597  18.251  0.00  0.00    +0.000 A 
ATOM     27  C   UNL     1      -1.673  11.437  19.359  0.00  0.00    +0.000 A 
ATOM     28  C   UNL     1      -0.559  11.598  20.179  0.00  0.00    +0.000 A 
ATOM     29  C   UNL     1       0.632  10.933  19.886  0.00  0.00    +0.000 A 
ENDBRANCH  23  24
ENDBRANCH  22  23
ENDBRANCH  21  22
ENDBRANCH  19  21
ENDBRANCH  18  19
ENDBRANCH   1  18
TORSDOF 16
ENDMDL
MODEL 6
REMARK VINA RESULT:      -5.9      1.640      1.923
REMARK  Name = 
REMARK  20 active torsions:
REMARK  status: ('A' for Active; 'I' for Inactive)
REMARK    1  A    between atoms: C_1  and  C_2
REMARK    2  A    between atoms: C_2  and  O_3
REMARK    3  A    between atoms: O_3  and  P_4
REMARK    4  A    between atoms: P_4  and  O_6
REMARK    5  A    between atoms: P_4  and  C_9
REMARK    6  A    between atoms: O_6  and  C_7
REMARK    7  A    between atoms: C_7  and  C_8
REMARK    8  A    between atoms: C_9  and  C_10
REMARK    9  A    between atoms: C_9  and  P_21
REMARK   10  A    between atoms: C_10  and  N_11
REMARK   11  A    between atoms: N_11  and  C_12
REMARK   12  A    between atoms: C_12  and  C_13
REMARK   13  A    between atoms: C_13  and  O_14
REMARK   14  A    between atoms: O_14  and  C_15
REMARK   15  A    between atoms: P_21  and  O_23
REMARK   16  A    between atoms: P_21  and  O_26
REMARK   17  A    between atoms: O_23  and  C_24
REMARK   18  A    between atoms: C_24  and  C_25
REMARK   19  A    between atoms: O_26  and  C_27
REMARK   20  A    between atoms: C_27  and  C_28
REMARK                            x       y       z     vdW  Elec       q    Type
REMARK                         _______ _______ _______ _____ _____    ______ ____
ROOT
ATOM      1  C   UNL     1       4.556   5.756  18.604  0.00  0.00    +0.000 C 
ENDROOT
BRANCH   1   2
ATOM      2  P   UNL     1       5.143   5.871  16.875  0.00  0.00    +0.000 P 
ATOM      3  O   UNL     1       4.364   4.601  16.508  0.00  0.00    +0.000 OA
BRANCH   2   4
ATOM      4  O   UNL     1       6.792   5.748  17.260  0.00  0.00    +0.000 OA
BRANCH   4   5
ATOM      5  C   UNL     1       7.483   6.632  18.179  0.00  0.00    +0.000 C 
ATOM      6  C   UNL     1       7.811   8.058  17.725  0.00  0.00    +0.000 C 
ENDBRANCH   4   5
ENDBRANCH   2   4
BRANCH   2   7
ATOM      7  O   UNL     1       5.697   5.979  15.239  0.00  0.00    +0.000 OA
BRANCH   7   9
ATOM      8  C   UNL     1       6.199   4.104  13.839  0.00  0.00    +0.000 C 
ATOM      9  C   UNL     1       6.730   5.069  14.879  0.00  0.00    +0.000 C 
ENDBRANCH   7   9
ENDBRANCH   2   7
ENDBRANCH   1   2
BRANCH   1  10
ATOM     10  P   UNL     1       4.342   3.997  19.060  0.00  0.00    +0.000 P 
ATOM     11  O   UNL     1       5.662   3.911  19.799  0.00  0.00    +0.000 OA
BRANCH  10  12
ATOM     12  O   UNL     1       4.138   2.334  19.492  0.00  0.00    +0.000 OA
BRANCH  12  13
ATOM     13  C   UNL     1       3.527   1.465  18.525  0.00  0.00    +0.000 C 
ATOM     14  C   UNL     1       2.523   2.204  17.666  0.00  0.00    +0.000 C 
ENDBRANCH  12  13
ENDBRANCH  10  12
BRANCH  10  15
ATOM     15  O   UNL     1       3.110   4.435  20.084  0.00  0.00    +0.000 OA
BRANCH  15  16
ATOM     16  C   UNL     1       2.582   3.630  21.132  0.00  0.00    +0.000 C 
ATOM     17  C   UNL     1       1.141   3.304  20.959  0.00  0.00    +0.000 C 
ENDBRANCH  15  16
ENDBRANCH  10  15
ENDBRANCH   1  10
BRANCH   1  18
ATOM     18  C   UNL     1       3.287   6.558  18.806  0.00  0.00    +0.000 C 
BRANCH  18  19
ATOM     19  N   UNL     1       2.697   7.069  17.564  0.00  0.00    +0.000 NA
ATOM     20  H   UNL     1       1.935   6.464  17.248  0.00  0.00    +0.000 HD
BRANCH  19  21
ATOM     21  C   UNL     1       2.151   8.435  17.756  0.00  0.00    +0.000 C 
BRANCH  21  22
ATOM     22  C   UNL     1       1.891   8.800  19.227  0.00  0.00    +0.000 C 
BRANCH  22  23
ATOM     23  O   UNL     1       0.532   9.198  19.401  0.00  0.00    +0.000 OA
BRANCH  23  24
ATOM     24  C   UNL     1       0.298  10.521  19.121  0.00  0.00    +0.000 A 
ATOM     25  C   UNL     1      -0.926  10.785  18.510  0.00  0.00    +0.000 A 
ATOM     26  C   UNL     1      -1.273  12.090  18.154  0.00  0.00    +0.000 A 
ATOM     27  C   UNL     1      -0.405  13.145  18.430  0.00  0.00    +0.000 A 
ATOM     28  C   UNL     1       0.807  12.890  19.065  0.00  0.00    +0.000 A 
ATOM     29  C   UNL     1       1.159  11.585  19.412  0.00  0.00    +0.000 A 
ENDBRANCH  23  24
ENDBRANCH  22  23
ENDBRANCH  21  22
ENDBRANCH  19  21
ENDBRANCH  18  19
ENDBRANCH   1  18
TORSDOF 16
ENDMDL
MODEL 7
REMARK VINA RESULT:      -5.9      1.650      2.158
REMARK  Name = 
REMARK  20 active torsions:
REMARK  status: ('A' for Active; 'I' for Inactive)
REMARK    1  A    between atoms: C_1  and  C_2
REMARK    2  A    between atoms: C_2  and  O_3
REMARK    3  A    between atoms: O_3  and  P_4
REMARK    4  A    between atoms: P_4  and  O_6
REMARK    5  A    between atoms: P_4  and  C_9
REMARK    6  A    between atoms: O_6  and  C_7
REMARK    7  A    between atoms: C_7  and  C_8
REMARK    8  A    between atoms: C_9  and  C_10
REMARK    9  A    between atoms: C_9  and  P_21
REMARK   10  A    between atoms: C_10  and  N_11
REMARK   11  A    between atoms: N_11  and  C_12
REMARK   12  A    between atoms: C_12  and  C_13
REMARK   13  A    between atoms: C_13  and  O_14
REMARK   14  A    between atoms: O_14  and  C_15
REMARK   15  A    between atoms: P_21  and  O_23
REMARK   16  A    between atoms: P_21  and  O_26
REMARK   17  A    between atoms: O_23  and  C_24
REMARK   18  A    between atoms: C_24  and  C_25
REMARK   19  A    between atoms: O_26  and  C_27
REMARK   20  A    between atoms: C_27  and  C_28
REMARK                            x       y       z     vdW  Elec       q    Type
REMARK                         _______ _______ _______ _____ _____    ______ ____
ROOT
ATOM      1  C   UNL     1       3.909   5.798  18.656  0.00  0.00    +0.000 C 
ENDROOT
BRANCH   1   2
ATOM      2  P   UNL     1       4.731   6.087  17.047  0.00  0.00    +0.000 P 
ATOM      3  O   UNL     1       4.488   4.628  16.641  0.00  0.00    +0.000 OA
BRANCH   2   4
ATOM      4  O   UNL     1       6.231   6.523  17.714  0.00  0.00    +0.000 OA
BRANCH   4   5
ATOM      5  C   UNL     1       7.038   7.634  17.249  0.00  0.00    +0.000 C 
ATOM      6  C   UNL     1       8.207   8.112  18.118  0.00  0.00    +0.000 C 
ENDBRANCH   4   5
ENDBRANCH   2   4
BRANCH   2   7
ATOM      7  O   UNL     1       5.507   6.361  15.526  0.00  0.00    +0.000 OA
BRANCH   7   9
ATOM      8  C   UNL     1       7.163   4.846  14.694  0.00  0.00    +0.000 C 
ATOM      9  C   UNL     1       5.692   5.207  14.713  0.00  0.00    +0.000 C 
ENDBRANCH   7   9
ENDBRANCH   2   7
ENDBRANCH   1   2
BRANCH   1  10
ATOM     10  P   UNL     1       4.008   4.020  19.080  0.00  0.00    +0.000 P 
ATOM     11  O   UNL     1       5.377   4.134  19.721  0.00  0.00    +0.000 OA
BRANCH  10  12
ATOM     12  O   UNL     1       4.101   2.340  19.482  0.00  0.00    +0.000 OA
BRANCH  12  13
ATOM     13  C   UNL     1       3.567   1.398  18.537  0.00  0.00    +0.000 C 
ATOM     14  C   UNL     1       2.528   2.036  17.640  0.00  0.00    +0.000 C 
ENDBRANCH  12  13
ENDBRANCH  10  12
BRANCH  10  15
ATOM     15  O   UNL     1       2.802   4.243  20.200  0.00  0.00    +0.000 OA
BRANCH  15  16
ATOM     16  C   UNL     1       2.645   3.497  21.403  0.00  0.00    +0.000 C 
ATOM     17  C   UNL     1       1.315   2.841  21.521  0.00  0.00    +0.000 C 
ENDBRANCH  15  16
ENDBRANCH  10  15
ENDBRANCH   1  10
BRANCH   1  18
ATOM     18  C   UNL     1       2.481   6.302  18.640  0.00  0.00    +0.000 C 
BRANCH  18  19
ATOM     19  N   UNL     1       2.343   7.722  18.985  0.00  0.00    +0.000 NA
ATOM     20  H   UNL     1       1.676   8.183  18.361  0.00  0.00    +0.000 HD
BRANCH  19  21
ATOM     21  C   UNL     1       1.860   7.888  20.378  0.00  0.00    +0.000 C 
BRANCH  21  22
ATOM     22  C   UNL     1       0.669   8.851  20.514  0.00  0.00    +0.000 C 
BRANCH  22  23
ATOM     23  O   UNL     1       0.847   9.976  19.655  0.00  0.00    +0.000 OA
BRANCH  23  24
ATOM     24  C   UNL     1      -0.304  10.396  19.039  0.00  0.00    +0.000 A 
ATOM     25  C   UNL     1      -0.988  11.414  19.701  0.00  0.00    +0.000 A 
ATOM     26  C   UNL     1      -2.187  11.912  19.187  0.00  0.00    +0.000 A 
ATOM     27  C   UNL     1      -2.698  11.412  17.992  0.00  0.00    +0.000 A 
ATOM     28  C   UNL     1      -2.005  10.413  17.313  0.00  0.00    +0.000 A 
ATOM     29  C   UNL     1      -0.812   9.907  17.831  0.00  0.00    +0.000 A 
ENDBRANCH  23  24
ENDBRANCH  22  23
ENDBRANCH  21  22
ENDBRANCH  19  21
ENDBRANCH  18  19
ENDBRANCH   1  18
TORSDOF 16
ENDMDL
MODEL 8
REMARK VINA RESULT:      -5.9      3.547      6.104
REMARK  Name = 
REMARK  20 active torsions:
REMARK  status: ('A' for Active; 'I' for Inactive)
REMARK    1  A    between atoms: C_1  and  C_2
REMARK    2  A    between atoms: C_2  and  O_3
REMARK    3  A    between atoms: O_3  and  P_4
REMARK    4  A    between atoms: P_4  and  O_6
REMARK    5  A    between atoms: P_4  and  C_9
REMARK    6  A    between atoms: O_6  and  C_7
REMARK    7  A    between atoms: C_7  and  C_8
REMARK    8  A    between atoms: C_9  and  C_10
REMARK    9  A    between atoms: C_9  and  P_21
REMARK   10  A    between atoms: C_10  and  N_11
REMARK   11  A    between atoms: N_11  and  C_12
REMARK   12  A    between atoms: C_12  and  C_13
REMARK   13  A    between atoms: C_13  and  O_14
REMARK   14  A    between atoms: O_14  and  C_15
REMARK   15  A    between atoms: P_21  and  O_23
REMARK   16  A    between atoms: P_21  and  O_26
REMARK   17  A    between atoms: O_23  and  C_24
REMARK   18  A    between atoms: C_24  and  C_25
REMARK   19  A    between atoms: O_26  and  C_27
REMARK   20  A    between atoms: C_27  and  C_28
REMARK                            x       y       z     vdW  Elec       q    Type
REMARK                         _______ _______ _______ _____ _____    ______ ____
ROOT
ATOM      1  C   UNL     1       6.085   4.576  18.004  0.00  0.00    +0.000 C 
ENDROOT
BRANCH   1   2
ATOM      2  P   UNL     1       6.603   4.575  16.249  0.00  0.00    +0.000 P 
ATOM      3  O   UNL     1       8.030   4.181  16.653  0.00  0.00    +0.000 OA
BRANCH   2   4
ATOM      4  O   UNL     1       6.242   6.213  15.979  0.00  0.00    +0.000 OA
BRANCH   4   5
ATOM      5  C   UNL     1       4.926   6.711  15.629  0.00  0.00    +0.000 C 
ATOM      6  C   UNL     1       4.149   7.535  16.662  0.00  0.00    +0.000 C 
ENDBRANCH   4   5
ENDBRANCH   2   4
BRANCH   2   7
ATOM      7  O   UNL     1       7.093   4.575  14.590  0.00  0.00    +0.000 OA
BRANCH   7   9
ATOM      8  C   UNL     1       6.869   3.845  12.321  0.00  0.00    +0.000 C 
ATOM      9  C   UNL     1       6.229   3.883  13.694  0.00  0.00    +0.000 C 
ENDBRANCH   7   9
ENDBRANCH   2   7
ENDBRANCH   1   2
BRANCH   1  10
ATOM     10  P   UNL     1       4.302   4.176  18.114  0.00  0.00    +0.000 P 
ATOM     11  O   UNL     1       4.533   2.796  18.697  0.00  0.00    +0.000 OA
BRANCH  10  12
ATOM     12  O   UNL     1       2.617   3.798  18.218  0.00  0.00    +0.000 OA
BRANCH  12  13
ATOM     13  C   UNL     1       2.246   2.410  18.250  0.00  0.00    +0.000 C 
ATOM     14  C   UNL     1       0.855   2.217  18.813  0.00  0.00    +0.000 C 
ENDBRANCH  12  13
ENDBRANCH  10  12
BRANCH  10  15
ATOM     15  O   UNL     1       4.143   5.314  19.312  0.00  0.00    +0.000 OA
BRANCH  15  16
ATOM     16  C   UNL     1       2.915   5.886  19.749  0.00  0.00    +0.000 C 
ATOM     17  C   UNL     1       2.279   5.139  20.868  0.00  0.00    +0.000 C 
ENDBRANCH  15  16
ENDBRANCH  10  15
ENDBRANCH   1  10
BRANCH   1  18
ATOM     18  C   UNL     1       6.416   5.894  18.672  0.00  0.00    +0.000 C 
BRANCH  18  19
ATOM     19  N   UNL     1       7.786   6.361  18.431  0.00  0.00    +0.000 NA
ATOM     20  H   UNL     1       8.252   5.775  17.734  0.00  0.00    +0.000 HD
BRANCH  19  21
ATOM     21  C   UNL     1       7.794   7.759  17.936  0.00  0.00    +0.000 C 
BRANCH  21  22
ATOM     22  C   UNL     1       8.665   8.711  18.772  0.00  0.00    +0.000 C 
BRANCH  22  23
ATOM     23  O   UNL     1       8.828   9.954  18.091  0.00  0.00    +0.000 OA
BRANCH  23  24
ATOM     24  C   UNL     1       9.679  10.827  18.719  0.00  0.00    +0.000 A 
ATOM     25  C   UNL     1      10.519  11.543  17.869  0.00  0.00    +0.000 A 
ATOM     26  C   UNL     1      11.448  12.447  18.388  0.00  0.00    +0.000 A 
ATOM     27  C   UNL     1      11.525  12.660  19.762  0.00  0.00    +0.000 A 
ATOM     28  C   UNL     1      10.669  11.968  20.615  0.00  0.00    +0.000 A 
ATOM     29  C   UNL     1       9.748  11.056  20.098  0.00  0.00    +0.000 A 
ENDBRANCH  23  24
ENDBRANCH  22  23
ENDBRANCH  21  22
ENDBRANCH  19  21
ENDBRANCH  18  19
ENDBRANCH   1  18
TORSDOF 16
ENDMDL
MODEL 9
REMARK VINA RESULT:      -5.9      1.627      2.492
REMARK  Name = 
REMARK  20 active torsions:
REMARK  status: ('A' for Active; 'I' for Inactive)
REMARK    1  A    between atoms: C_1  and  C_2
REMARK    2  A    between atoms: C_2  and  O_3
REMARK    3  A    between atoms: O_3  and  P_4
REMARK    4  A    between atoms: P_4  and  O_6
REMARK    5  A    between atoms: P_4  and  C_9
REMARK    6  A    between atoms: O_6  and  C_7
REMARK    7  A    between atoms: C_7  and  C_8
REMARK    8  A    between atoms: C_9  and  C_10
REMARK    9  A    between atoms: C_9  and  P_21
REMARK   10  A    between atoms: C_10  and  N_11
REMARK   11  A    between atoms: N_11  and  C_12
REMARK   12  A    between atoms: C_12  and  C_13
REMARK   13  A    between atoms: C_13  and  O_14
REMARK   14  A    between atoms: O_14  and  C_15
REMARK   15  A    between atoms: P_21  and  O_23
REMARK   16  A    between atoms: P_21  and  O_26
REMARK   17  A    between atoms: O_23  and  C_24
REMARK   18  A    between atoms: C_24  and  C_25
REMARK   19  A    between atoms: O_26  and  C_27
REMARK   20  A    between atoms: C_27  and  C_28
REMARK                            x       y       z     vdW  Elec       q    Type
REMARK                         _______ _______ _______ _____ _____    ______ ____
ROOT
ATOM      1  C   UNL     1       5.498   5.451  18.952  0.00  0.00    +0.000 C 
ENDROOT
BRANCH   1   2
ATOM      2  P   UNL     1       6.455   5.029  17.450  0.00  0.00    +0.000 P 
ATOM      3  O   UNL     1       7.430   4.190  18.287  0.00  0.00    +0.000 OA
BRANCH   2   4
ATOM      4  O   UNL     1       6.861   6.634  17.068  0.00  0.00    +0.000 OA
BRANCH   4   5
ATOM      5  C   UNL     1       7.915   7.386  17.722  0.00  0.00    +0.000 C 
ATOM      6  C   UNL     1       7.822   8.915  17.750  0.00  0.00    +0.000 C 
ENDBRANCH   4   5
ENDBRANCH   2   4
BRANCH   2   7
ATOM      7  O   UNL     1       7.360   4.631  16.031  0.00  0.00    +0.000 OA
BRANCH   7   9
ATOM      8  C   UNL     1       6.152   3.897  14.099  0.00  0.00    +0.000 C 
ATOM      9  C   UNL     1       6.799   5.074  14.799  0.00  0.00    +0.000 C 
ENDBRANCH   7   9
ENDBRANCH   2   7
ENDBRANCH   1   2
BRANCH   1  10
ATOM     10  P   UNL     1       4.425   4.039  19.408  0.00  0.00    +0.000 P 
ATOM     11  O   UNL     1       3.450   4.890  20.197  0.00  0.00    +0.000 OA
BRANCH  10  12
ATOM     12  O   UNL     1       3.411   2.705  19.838  0.00  0.00    +0.000 OA
BRANCH  12  13
ATOM     13  C   UNL     1       2.799   2.726  21.138  0.00  0.00    +0.000 C 
ATOM     14  C   UNL     1       1.289   2.671  21.044  0.00  0.00    +0.000 C 
ENDBRANCH  12  13
ENDBRANCH  10  12
BRANCH  10  15
ATOM     15  O   UNL     1       3.958   3.909  17.820  0.00  0.00    +0.000 OA
BRANCH  15  16
ATOM     16  C   UNL     1       2.736   3.340  17.363  0.00  0.00    +0.000 C 
ATOM     17  C   UNL     1       1.562   4.234  17.549  0.00  0.00    +0.000 C 
ENDBRANCH  15  16
ENDBRANCH  10  15
ENDBRANCH   1  10
BRANCH   1  18
ATOM     18  C   UNL     1       4.708   6.728  18.756  0.00  0.00    +0.000 C 
BRANCH  18  19
ATOM     19  N   UNL     1       3.981   6.795  17.483  0.00  0.00    +0.000 NA
ATOM     20  H   UNL     1       3.413   5.955  17.345  0.00  0.00    +0.000 HD
BRANCH  19  21
ATOM     21  C   UNL     1       3.079   7.972  17.446  0.00  0.00    +0.000 C 
BRANCH  21  22
ATOM     22  C   UNL     1       1.941   7.918  18.479  0.00  0.00    +0.000 C 
BRANCH  22  23
ATOM     23  O   UNL     1       1.855   9.157  19.181  0.00  0.00    +0.000 OA
BRANCH  23  24
ATOM     24  C   UNL     1       0.651   9.797  19.036  0.00  0.00    +0.000 A 
ATOM     25  C   UNL     1       0.267  10.580  20.122  0.00  0.00    +0.000 A 
ATOM     26  C   UNL     1      -0.950  11.265  20.108  0.00  0.00    +0.000 A 
ATOM     27  C   UNL     1      -1.781  11.191  18.992  0.00  0.00    +0.000 A 
ATOM     28  C   UNL     1      -1.390  10.432  17.892  0.00  0.00    +0.000 A 
ATOM     29  C   UNL     1      -0.179   9.739  17.911  0.00  0.00    +0.000 A 
ENDBRANCH  23  24
ENDBRANCH  22  23
ENDBRANCH  21  22
ENDBRANCH  19  21
ENDBRANCH  18  19
ENDBRANCH   1  18
TORSDOF 16
ENDMDL
