MODEL 1
REMARK VINA RESULT:      -8.2      0.000      0.000
REMARK  Name = 
REMARK  5 active torsions:
REMARK  status: ('A' for Active; 'I' for Inactive)
REMARK    1  A    between atoms: C_2  and  C_3
REMARK    2  A    between atoms: C_3  and  C_4
REMARK    3  A    between atoms: N_13  and  C_14
REMARK    4  A    between atoms: C_14  and  C_15
REMARK    5  A    between atoms: C_19  and  O_20
REMARK                            x       y       z     vdW  Elec       q    Type
REMARK                         _______ _______ _______ _____ _____    ______ ____
ROOT
ATOM      1  O   UNL     1       1.976   7.976  20.103  0.00  0.00    +0.000 OA
ATOM      2  C   UNL     1       2.076   7.978  18.880  0.00  0.00    +0.000 C 
ATOM      3  N   UNL     1       2.307   6.843  18.135  0.00  0.00    +0.000 N 
ATOM      4  H   UNL     1       2.524   6.985  17.155  0.00  0.00    +0.000 HD
ENDROOT
BRANCH   3   5
ATOM      5  C   UNL     1       2.517   5.474  18.658  0.00  0.00    +0.000 C 
ATOM      6  C   UNL     1       1.795   5.231  19.991  0.00  0.00    +0.000 C 
ATOM      7  C   UNL     1       1.655   3.717  20.101  0.00  0.00    +0.000 C 
ATOM      8  C   UNL     1       1.635   3.187  18.673  0.00  0.00    +0.000 C 
ATOM      9  C   UNL     1       1.958   4.368  17.751  0.00  0.00    +0.000 C 
BRANCH   5  10
ATOM     10  C   UNL     1       4.067   5.306  18.831  0.00  0.00    +0.000 C 
ATOM     11  O   UNL     1       4.620   5.191  19.923  0.00  0.00    +0.000 OA
ATOM     12  N   UNL     1       4.793   5.242  17.654  0.00  0.00    +0.000 N 
ATOM     13  C   UNL     1       6.245   5.052  17.561  0.00  0.00    +0.000 C 
ATOM     14  C   UNL     1       5.980   4.762  16.069  0.00  0.00    +0.000 C 
ATOM     15  C   UNL     1       4.561   4.349  16.513  0.00  0.00    +0.000 C 
BRANCH  14  16
ATOM     16  O   UNL     1       6.052   5.893  15.161  0.00  0.00    +0.000 OA
ATOM     17  H   UNL     1       5.372   6.510  15.486  0.00  0.00    +0.000 HD
ENDBRANCH  14  16
ENDBRANCH   5  10
ENDBRANCH   3   5
BRANCH   2  18
ATOM     18  C   UNL     1       1.834   9.238  18.060  0.00  0.00    +0.000 C 
BRANCH  18  19
ATOM     19  C   UNL     1       0.853  10.205  18.653  0.00  0.00    +0.000 A 
ATOM     20  C   UNL     1       1.134  11.209  19.563  0.00  0.00    +0.000 A 
ATOM     21  N   UNL     1      -0.002  11.948  19.759  0.00  0.00    +0.000 N 
ATOM     22  C   UNL     1      -1.028  11.457  18.987  0.00  0.00    +0.000 A 
ATOM     23  C   UNL     1      -2.343  11.915  18.837  0.00  0.00    +0.000 A 
ATOM     24  C   UNL     1      -3.177  11.223  17.955  0.00  0.00    +0.000 A 
ATOM     25  C   UNL     1      -2.712  10.112  17.256  0.00  0.00    +0.000 A 
ATOM     26  C   UNL     1      -1.391   9.667  17.416  0.00  0.00    +0.000 A 
ATOM     27  C   UNL     1      -0.529  10.352  18.296  0.00  0.00    +0.000 A 
ATOM     28  H   UNL     1      -0.076  12.767  20.350  0.00  0.00    +0.000 HD
ENDBRANCH  18  19
ENDBRANCH   2  18
TORSDOF 5
ENDMDL
MODEL 2
REMARK VINA RESULT:      -8.0      1.913      2.602
REMARK  Name = 
REMARK  5 active torsions:
REMARK  status: ('A' for Active; 'I' for Inactive)
REMARK    1  A    between atoms: C_2  and  C_3
REMARK    2  A    between atoms: C_3  and  C_4
REMARK    3  A    between atoms: N_13  and  C_14
REMARK    4  A    between atoms: C_14  and  C_15
REMARK    5  A    between atoms: C_19  and  O_20
REMARK                            x       y       z     vdW  Elec       q    Type
REMARK                         _______ _______ _______ _____ _____    ______ ____
ROOT
ATOM      1  O   UNL     1       1.318   6.240  17.790  0.00  0.00    +0.000 OA
ATOM      2  C   UNL     1       2.400   6.723  18.115  0.00  0.00    +0.000 C 
ATOM      3  N   UNL     1       3.495   5.965  18.466  0.00  0.00    +0.000 N 
ATOM      4  H   UNL     1       4.281   6.467  18.863  0.00  0.00    +0.000 HD
ENDROOT
BRANCH   3   5
ATOM      5  C   UNL     1       3.550   4.488  18.561  0.00  0.00    +0.000 C 
ATOM      6  C   UNL     1       2.721   3.938  19.731  0.00  0.00    +0.000 C 
ATOM      7  C   UNL     1       2.442   2.481  19.375  0.00  0.00    +0.000 C 
ATOM      8  C   UNL     1       2.473   2.402  17.853  0.00  0.00    +0.000 C 
ATOM      9  C   UNL     1       2.959   3.763  17.343  0.00  0.00    +0.000 C 
BRANCH   5  10
ATOM     10  C   UNL     1       5.063   4.118  18.735  0.00  0.00    +0.000 C 
ATOM     11  O   UNL     1       5.477   3.336  19.589  0.00  0.00    +0.000 OA
ATOM     12  N   UNL     1       5.926   4.695  17.819  0.00  0.00    +0.000 N 
ATOM     13  C   UNL     1       7.375   4.472  17.759  0.00  0.00    +0.000 C 
ATOM     14  C   UNL     1       7.288   5.138  16.369  0.00  0.00    +0.000 C 
ATOM     15  C   UNL     1       5.818   4.667  16.356  0.00  0.00    +0.000 C 
BRANCH  14  16
ATOM     16  O   UNL     1       7.489   6.575  16.321  0.00  0.00    +0.000 OA
ATOM     17  H   UNL     1       7.650   6.830  17.247  0.00  0.00    +0.000 HD
ENDBRANCH  14  16
ENDBRANCH   5  10
ENDBRANCH   3   5
BRANCH   2  18
ATOM     18  C   UNL     1       2.661   8.221  18.043  0.00  0.00    +0.000 C 
BRANCH  18  19
ATOM     19  C   UNL     1       1.555   9.087  18.568  0.00  0.00    +0.000 A 
ATOM     20  C   UNL     1       0.674   9.843  17.817  0.00  0.00    +0.000 A 
ATOM     21  N   UNL     1      -0.260  10.387  18.659  0.00  0.00    +0.000 N 
ATOM     22  C   UNL     1      -0.017   9.996  19.954  0.00  0.00    +0.000 A 
ATOM     23  C   UNL     1      -0.728  10.272  21.129  0.00  0.00    +0.000 A 
ATOM     24  C   UNL     1      -0.256   9.718  22.321  0.00  0.00    +0.000 A 
ATOM     25  C   UNL     1       0.885   8.921  22.336  0.00  0.00    +0.000 A 
ATOM     26  C   UNL     1       1.585   8.651  21.151  0.00  0.00    +0.000 A 
ATOM     27  C   UNL     1       1.126   9.195  19.934  0.00  0.00    +0.000 A 
ATOM     28  H   UNL     1      -1.046  10.958  18.375  0.00  0.00    +0.000 HD
ENDBRANCH  18  19
ENDBRANCH   2  18
TORSDOF 5
ENDMDL
MODEL 3
REMARK VINA RESULT:      -8.0      1.270      1.447
REMARK  Name = 
REMARK  5 active torsions:
REMARK  status: ('A' for Active; 'I' for Inactive)
REMARK    1  A    between atoms: C_2  and  C_3
REMARK    2  A    between atoms: C_3  and  C_4
REMARK    3  A    between atoms: N_13  and  C_14
REMARK    4  A    between atoms: C_14  and  C_15
REMARK    5  A    between atoms: C_19  and  O_20
REMARK                            x       y       z     vdW  Elec       q    Type
REMARK                         _______ _______ _______ _____ _____    ______ ____
ROOT
ATOM      1  O   UNL     1       1.942   7.741  19.915  0.00  0.00    +0.000 OA
ATOM      2  C   UNL     1       2.119   7.679  18.702  0.00  0.00    +0.000 C 
ATOM      3  N   UNL     1       2.377   6.504  18.031  0.00  0.00    +0.000 N 
ATOM      4  H   UNL     1       2.658   6.592  17.061  0.00  0.00    +0.000 HD
ENDROOT
BRANCH   3   5
ATOM      5  C   UNL     1       2.531   5.161  18.635  0.00  0.00    +0.000 C 
ATOM      6  C   UNL     1       3.455   5.165  19.861  0.00  0.00    +0.000 C 
ATOM      7  C   UNL     1       3.086   3.911  20.646  0.00  0.00    +0.000 C 
ATOM      8  C   UNL     1       1.631   3.611  20.307  0.00  0.00    +0.000 C 
ATOM      9  C   UNL     1       1.223   4.572  19.186  0.00  0.00    +0.000 C 
BRANCH   5  10
ATOM     10  C   UNL     1       3.112   4.239  17.508  0.00  0.00    +0.000 C 
ATOM     11  O   UNL     1       2.424   3.477  16.832  0.00  0.00    +0.000 OA
ATOM     12  N   UNL     1       4.470   4.368  17.275  0.00  0.00    +0.000 N 
ATOM     13  C   UNL     1       5.230   3.641  16.252  0.00  0.00    +0.000 C 
ATOM     14  C   UNL     1       6.345   4.669  16.536  0.00  0.00    +0.000 C 
ATOM     15  C   UNL     1       5.212   5.605  17.007  0.00  0.00    +0.000 C 
BRANCH  14  16
ATOM     16  O   UNL     1       7.325   4.308  17.546  0.00  0.00    +0.000 OA
ATOM     17  H   UNL     1       7.518   3.370  17.373  0.00  0.00    +0.000 HD
ENDBRANCH  14  16
ENDBRANCH   5  10
ENDBRANCH   3   5
BRANCH   2  18
ATOM     18  C   UNL     1       1.950   8.898  17.805  0.00  0.00    +0.000 C 
BRANCH  18  19
ATOM     19  C   UNL     1       1.121  10.005  18.385  0.00  0.00    +0.000 A 
ATOM     20  C   UNL     1       1.577  11.056  19.162  0.00  0.00    +0.000 A 
ATOM     21  N   UNL     1       0.535  11.915  19.385  0.00  0.00    +0.000 N 
ATOM     22  C   UNL     1      -0.602  11.457  18.763  0.00  0.00    +0.000 A 
ATOM     23  C   UNL     1      -1.880  12.024  18.687  0.00  0.00    +0.000 A 
ATOM     24  C   UNL     1      -2.855  11.337  17.959  0.00  0.00    +0.000 A 
ATOM     25  C   UNL     1      -2.560  10.128  17.335  0.00  0.00    +0.000 A 
ATOM     26  C   UNL     1      -1.274   9.575  17.417  0.00  0.00    +0.000 A 
ATOM     27  C   UNL     1      -0.272  10.251  18.143  0.00  0.00    +0.000 A 
ATOM     28  H   UNL     1       0.591  12.788  19.896  0.00  0.00    +0.000 HD
ENDBRANCH  18  19
ENDBRANCH   2  18
TORSDOF 5
ENDMDL
MODEL 4
REMARK VINA RESULT:      -8.0      2.408      4.186
REMARK  Name = 
REMARK  5 active torsions:
REMARK  status: ('A' for Active; 'I' for Inactive)
REMARK    1  A    between atoms: C_2  and  C_3
REMARK    2  A    between atoms: C_3  and  C_4
REMARK    3  A    between atoms: N_13  and  C_14
REMARK    4  A    between atoms: C_14  and  C_15
REMARK    5  A    between atoms: C_19  and  O_20
REMARK                            x       y       z     vdW  Elec       q    Type
REMARK                         _______ _______ _______ _____ _____    ______ ____
ROOT
ATOM      1  O   UNL     1       5.034   7.874  17.822  0.00  0.00    +0.000 OA
ATOM      2  C   UNL     1       3.993   7.300  17.516  0.00  0.00    +0.000 C 
ATOM      3  N   UNL     1       3.947   5.995  17.077  0.00  0.00    +0.000 N 
ATOM      4  H   UNL     1       3.059   5.676  16.707  0.00  0.00    +0.000 HD
ENDROOT
BRANCH   3   5
ATOM      5  C   UNL     1       5.105   5.099  16.856  0.00  0.00    +0.000 C 
ATOM      6  C   UNL     1       4.874   4.104  15.710  0.00  0.00    +0.000 C 
ATOM      7  C   UNL     1       6.268   3.668  15.271  0.00  0.00    +0.000 C 
ATOM      8  C   UNL     1       7.204   4.819  15.620  0.00  0.00    +0.000 C 
ATOM      9  C   UNL     1       6.387   5.831  16.431  0.00  0.00    +0.000 C 
BRANCH   5  10
ATOM     10  C   UNL     1       5.333   4.339  18.208  0.00  0.00    +0.000 C 
ATOM     11  O   UNL     1       6.280   4.562  18.961  0.00  0.00    +0.000 OA
ATOM     12  N   UNL     1       4.360   3.414  18.543  0.00  0.00    +0.000 N 
ATOM     13  C   UNL     1       4.338   2.610  19.770  0.00  0.00    +0.000 C 
ATOM     14  C   UNL     1       2.877   2.298  19.384  0.00  0.00    +0.000 C 
ATOM     15  C   UNL     1       2.911   3.633  18.611  0.00  0.00    +0.000 C 
BRANCH  14  16
ATOM     16  O   UNL     1       2.653   1.110  18.580  0.00  0.00    +0.000 OA
ATOM     17  H   UNL     1       3.187   0.420  19.012  0.00  0.00    +0.000 HD
ENDBRANCH  14  16
ENDBRANCH   5  10
ENDBRANCH   3   5
BRANCH   2  18
ATOM     18  C   UNL     1       2.631   7.954  17.709  0.00  0.00    +0.000 C 
BRANCH  18  19
ATOM     19  C   UNL     1       2.081   7.879  19.102  0.00  0.00    +0.000 A 
ATOM     20  C   UNL     1       2.345   6.897  20.040  0.00  0.00    +0.000 A 
ATOM     21  N   UNL     1       1.754   7.256  21.222  0.00  0.00    +0.000 N 
ATOM     22  C   UNL     1       1.110   8.463  21.085  0.00  0.00    +0.000 A 
ATOM     23  C   UNL     1       0.412   9.226  22.030  0.00  0.00    +0.000 A 
ATOM     24  C   UNL     1      -0.133  10.442  21.611  0.00  0.00    +0.000 A 
ATOM     25  C   UNL     1       0.013  10.874  20.295  0.00  0.00    +0.000 A 
ATOM     26  C   UNL     1       0.717  10.100  19.361  0.00  0.00    +0.000 A 
ATOM     27  C   UNL     1       1.280   8.871  19.761  0.00  0.00    +0.000 A 
ATOM     28  H   UNL     1       1.813   6.739  22.090  0.00  0.00    +0.000 HD
ENDBRANCH  18  19
ENDBRANCH   2  18
TORSDOF 5
ENDMDL
MODEL 5
REMARK VINA RESULT:      -8.0      1.937      2.767
REMARK  Name = 
REMARK  5 active torsions:
REMARK  status: ('A' for Active; 'I' for Inactive)
REMARK    1  A    between atoms: C_2  and  C_3
REMARK    2  A    between atoms: C_3  and  C_4
REMARK    3  A    between atoms: N_13  and  C_14
REMARK    4  A    between atoms: C_14  and  C_15
REMARK    5  A    between atoms: C_19  and  O_20
REMARK                            x       y       z     vdW  Elec       q    Type
REMARK                         _______ _______ _______ _____ _____    ______ ____
ROOT
ATOM      1  O   UNL     1       1.857   5.597  19.881  0.00  0.00    +0.000 OA
ATOM      2  C   UNL     1       2.512   6.236  19.062  0.00  0.00    +0.000 C 
ATOM      3  N   UNL     1       3.425   5.662  18.206  0.00  0.00    +0.000 N 
ATOM      4  H   UNL     1       4.016   6.299  17.685  0.00  0.00    +0.000 HD
ENDROOT
BRANCH   3   5
ATOM      5  C   UNL     1       3.804   4.231  18.153  0.00  0.00    +0.000 C 
ATOM      6  C   UNL     1       3.796   3.564  19.535  0.00  0.00    +0.000 C 
ATOM      7  C   UNL     1       3.663   2.070  19.258  0.00  0.00    +0.000 C 
ATOM      8  C   UNL     1       2.944   1.947  17.921  0.00  0.00    +0.000 C 
ATOM      9  C   UNL     1       2.836   3.360  17.338  0.00  0.00    +0.000 C 
BRANCH   5  10
ATOM     10  C   UNL     1       5.240   4.183  17.525  0.00  0.00    +0.000 C 
ATOM     11  O   UNL     1       5.477   3.733  16.405  0.00  0.00    +0.000 OA
ATOM     12  N   UNL     1       6.247   4.732  18.299  0.00  0.00    +0.000 N 
ATOM     13  C   UNL     1       7.658   4.833  17.911  0.00  0.00    +0.000 C 
ATOM     14  C   UNL     1       7.781   5.805  19.104  0.00  0.00    +0.000 C 
ATOM     15  C   UNL     1       6.274   6.068  18.905  0.00  0.00    +0.000 C 
BRANCH  14  16
ATOM     16  O   UNL     1       8.156   5.225  20.382  0.00  0.00    +0.000 OA
ATOM     17  H   UNL     1       7.581   5.670  21.030  0.00  0.00    +0.000 HD
ENDBRANCH  14  16
ENDBRANCH   5  10
ENDBRANCH   3   5
BRANCH   2  18
ATOM     18  C   UNL     1       2.283   7.725  18.842  0.00  0.00    +0.000 C 
BRANCH  18  19
ATOM     19  C   UNL     1       1.478   8.410  19.906  0.00  0.00    +0.000 A 
ATOM     20  C   UNL     1       1.561   8.191  21.269  0.00  0.00    +0.000 A 
ATOM     21  N   UNL     1       0.756   9.099  21.905  0.00  0.00    +0.000 N 
ATOM     22  C   UNL     1       0.148   9.921  20.985  0.00  0.00    +0.000 A 
ATOM     23  C   UNL     1      -0.717  11.005  21.177  0.00  0.00    +0.000 A 
ATOM     24  C   UNL     1      -1.175  11.682  20.044  0.00  0.00    +0.000 A 
ATOM     25  C   UNL     1      -0.783  11.285  18.768  0.00  0.00    +0.000 A 
ATOM     26  C   UNL     1       0.087  10.198  18.593  0.00  0.00    +0.000 A 
ATOM     27  C   UNL     1       0.565   9.502  19.721  0.00  0.00    +0.000 A 
ATOM     28  H   UNL     1       0.650   9.191  22.907  0.00  0.00    +0.000 HD
ENDBRANCH  18  19
ENDBRANCH   2  18
TORSDOF 5
ENDMDL
MODEL 6
REMARK VINA RESULT:      -7.9      2.462      7.575
REMARK  Name = 
REMARK  5 active torsions:
REMARK  status: ('A' for Active; 'I' for Inactive)
REMARK    1  A    between atoms: C_2  and  C_3
REMARK    2  A    between atoms: C_3  and  C_4
REMARK    3  A    between atoms: N_13  and  C_14
REMARK    4  A    between atoms: C_14  and  C_15
REMARK    5  A    between atoms: C_19  and  O_20
REMARK                            x       y       z     vdW  Elec       q    Type
REMARK                         _______ _______ _______ _____ _____    ______ ____
ROOT
ATOM      1  O   UNL     1       1.916   6.938  20.417  0.00  0.00    +0.000 OA
ATOM      2  C   UNL     1       1.884   7.763  19.508  0.00  0.00    +0.000 C 
ATOM      3  N   UNL     1       1.407   9.046  19.664  0.00  0.00    +0.000 N 
ATOM      4  H   UNL     1       1.285   9.586  18.815  0.00  0.00    +0.000 HD
ENDROOT
BRANCH   3   5
ATOM      5  C   UNL     1       0.824   9.625  20.895  0.00  0.00    +0.000 C 
ATOM      6  C   UNL     1      -0.562   9.051  21.222  0.00  0.00    +0.000 C 
ATOM      7  C   UNL     1      -0.763   9.310  22.711  0.00  0.00    +0.000 C 
ATOM      8  C   UNL     1       0.631   9.364  23.325  0.00  0.00    +0.000 C 
ATOM      9  C   UNL     1       1.633   9.330  22.167  0.00  0.00    +0.000 C 
BRANCH   5  10
ATOM     10  C   UNL     1       0.737  11.172  20.652  0.00  0.00    +0.000 C 
ATOM     11  O   UNL     1       1.531  11.980  21.129  0.00  0.00    +0.000 OA
ATOM     12  N   UNL     1      -0.280  11.585  19.809  0.00  0.00    +0.000 N 
ATOM     13  C   UNL     1      -0.538  12.972  19.405  0.00  0.00    +0.000 C 
ATOM     14  C   UNL     1      -1.455  12.351  18.330  0.00  0.00    +0.000 C 
ATOM     15  C   UNL     1      -0.569  11.093  18.457  0.00  0.00    +0.000 C 
BRANCH  14  16
ATOM     16  O   UNL     1      -2.852  12.176  18.686  0.00  0.00    +0.000 OA
ATOM     17  H   UNL     1      -3.341  12.422  17.881  0.00  0.00    +0.000 HD
ENDBRANCH  14  16
ENDBRANCH   5  10
ENDBRANCH   3   5
BRANCH   2  18
ATOM     18  C   UNL     1       2.485   7.470  18.140  0.00  0.00    +0.000 C 
BRANCH  18  19
ATOM     19  C   UNL     1       3.308   6.219  18.061  0.00  0.00    +0.000 A 
ATOM     20  C   UNL     1       4.689   6.140  18.073  0.00  0.00    +0.000 A 
ATOM     21  N   UNL     1       5.048   4.819  18.110  0.00  0.00    +0.000 N 
ATOM     22  C   UNL     1       3.928   4.022  18.132  0.00  0.00    +0.000 A 
ATOM     23  C   UNL     1       3.814   2.628  18.211  0.00  0.00    +0.000 A 
ATOM     24  C   UNL     1       2.529   2.081  18.236  0.00  0.00    +0.000 A 
ATOM     25  C   UNL     1       1.404   2.898  18.180  0.00  0.00    +0.000 A 
ATOM     26  C   UNL     1       1.534   4.293  18.105  0.00  0.00    +0.000 A 
ATOM     27  C   UNL     1       2.820   4.869  18.083  0.00  0.00    +0.000 A 
ATOM     28  H   UNL     1       5.997   4.469  18.161  0.00  0.00    +0.000 HD
ENDBRANCH  18  19
ENDBRANCH   2  18
TORSDOF 5
ENDMDL
MODEL 7
REMARK VINA RESULT:      -7.9      1.935      2.981
REMARK  Name = 
REMARK  5 active torsions:
REMARK  status: ('A' for Active; 'I' for Inactive)
REMARK    1  A    between atoms: C_2  and  C_3
REMARK    2  A    between atoms: C_3  and  C_4
REMARK    3  A    between atoms: N_13  and  C_14
REMARK    4  A    between atoms: C_14  and  C_15
REMARK    5  A    between atoms: C_19  and  O_20
REMARK                            x       y       z     vdW  Elec       q    Type
REMARK                         _______ _______ _______ _____ _____    ______ ____
ROOT
ATOM      1  O   UNL     1       1.453   5.017  20.108  0.00  0.00    +0.000 OA
ATOM      2  C   UNL     1       2.426   5.740  19.910  0.00  0.00    +0.000 C 
ATOM      3  N   UNL     1       3.511   5.363  19.151  0.00  0.00    +0.000 N 
ATOM      4  H   UNL     1       4.318   5.975  19.185  0.00  0.00    +0.000 HD
ENDROOT
BRANCH   3   5
ATOM      5  C   UNL     1       3.717   4.048  18.501  0.00  0.00    +0.000 C 
ATOM      6  C   UNL     1       3.888   2.906  19.512  0.00  0.00    +0.000 C 
ATOM      7  C   UNL     1       3.547   1.634  18.743  0.00  0.00    +0.000 C 
ATOM      8  C   UNL     1       2.586   2.052  17.636  0.00  0.00    +0.000 C 
ATOM      9  C   UNL     1       2.527   3.583  17.647  0.00  0.00    +0.000 C 
BRANCH   5  10
ATOM     10  C   UNL     1       5.000   4.197  17.613  0.00  0.00    +0.000 C 
ATOM     11  O   UNL     1       5.035   3.913  16.416  0.00  0.00    +0.000 OA
ATOM     12  N   UNL     1       6.109   4.724  18.252  0.00  0.00    +0.000 N 
ATOM     13  C   UNL     1       7.408   4.988  17.622  0.00  0.00    +0.000 C 
ATOM     14  C   UNL     1       7.711   5.807  18.895  0.00  0.00    +0.000 C 
ATOM     15  C   UNL     1       6.182   5.970  19.023  0.00  0.00    +0.000 C 
BRANCH  14  16
ATOM     16  O   UNL     1       8.363   5.102  19.985  0.00  0.00    +0.000 OA
ATOM     17  H   UNL     1       8.660   5.807  20.587  0.00  0.00    +0.000 HD
ENDBRANCH  14  16
ENDBRANCH   5  10
ENDBRANCH   3   5
BRANCH   2  18
ATOM     18  C   UNL     1       2.463   7.181  20.401  0.00  0.00    +0.000 C 
BRANCH  18  19
ATOM     19  C   UNL     1       1.893   8.192  19.451  0.00  0.00    +0.000 A 
ATOM     20  C   UNL     1       2.063   8.219  18.078  0.00  0.00    +0.000 A 
ATOM     21  N   UNL     1       1.282   9.221  17.564  0.00  0.00    +0.000 N 
ATOM     22  C   UNL     1       0.591   9.851  18.572  0.00  0.00    +0.000 A 
ATOM     23  C   UNL     1      -0.344  10.892  18.511  0.00  0.00    +0.000 A 
ATOM     24  C   UNL     1      -0.911  11.328  19.711  0.00  0.00    +0.000 A 
ATOM     25  C   UNL     1      -0.552  10.746  20.924  0.00  0.00    +0.000 A 
ATOM     26  C   UNL     1       0.383   9.702  20.968  0.00  0.00    +0.000 A 
ATOM     27  C   UNL     1       0.967   9.241  19.770  0.00  0.00    +0.000 A 
ATOM     28  H   UNL     1       1.185   9.445  16.582  0.00  0.00    +0.000 HD
ENDBRANCH  18  19
ENDBRANCH   2  18
TORSDOF 5
ENDMDL
MODEL 8
REMARK VINA RESULT:      -7.9      1.683      2.294
REMARK  Name = 
REMARK  5 active torsions:
REMARK  status: ('A' for Active; 'I' for Inactive)
REMARK    1  A    between atoms: C_2  and  C_3
REMARK    2  A    between atoms: C_3  and  C_4
REMARK    3  A    between atoms: N_13  and  C_14
REMARK    4  A    between atoms: C_14  and  C_15
REMARK    5  A    between atoms: C_19  and  O_20
REMARK                            x       y       z     vdW  Elec       q    Type
REMARK                         _______ _______ _______ _____ _____    ______ ____
ROOT
ATOM      1  O   UNL     1       0.879   5.523  20.487  0.00  0.00    +0.000 OA
ATOM      2  C   UNL     1       1.913   6.176  20.371  0.00  0.00    +0.000 C 
ATOM      3  N   UNL     1       3.049   5.696  19.759  0.00  0.00    +0.000 N 
ATOM      4  H   UNL     1       3.885   6.260  19.858  0.00  0.00    +0.000 HD
ENDROOT
BRANCH   3   5
ATOM      5  C   UNL     1       3.240   4.340  19.195  0.00  0.00    +0.000 C 
ATOM      6  C   UNL     1       2.634   3.240  20.078  0.00  0.00    +0.000 C 
ATOM      7  C   UNL     1       2.430   2.047  19.149  0.00  0.00    +0.000 C 
ATOM      8  C   UNL     1       2.253   2.624  17.750  0.00  0.00    +0.000 C 
ATOM      9  C   UNL     1       2.546   4.125  17.842  0.00  0.00    +0.000 C 
BRANCH   5  10
ATOM     10  C   UNL     1       4.789   4.142  19.051  0.00  0.00    +0.000 C 
ATOM     11  O   UNL     1       5.418   3.262  19.636  0.00  0.00    +0.000 OA
ATOM     12  N   UNL     1       5.420   5.002  18.169  0.00  0.00    +0.000 N 
ATOM     13  C   UNL     1       6.850   4.985  17.843  0.00  0.00    +0.000 C 
ATOM     14  C   UNL     1       6.459   5.906  16.667  0.00  0.00    +0.000 C 
ATOM     15  C   UNL     1       5.060   5.261  16.771  0.00  0.00    +0.000 C 
BRANCH  14  16
ATOM     16  O   UNL     1       6.513   7.336  16.912  0.00  0.00    +0.000 OA
ATOM     17  H   UNL     1       6.266   7.432  17.849  0.00  0.00    +0.000 HD
ENDBRANCH  14  16
ENDBRANCH   5  10
ENDBRANCH   3   5
BRANCH   2  18
ATOM     18  C   UNL     1       1.988   7.636  20.798  0.00  0.00    +0.000 C 
BRANCH  18  19
ATOM     19  C   UNL     1       1.530   8.625  19.768  0.00  0.00    +0.000 A 
ATOM     20  C   UNL     1       1.829   8.606  18.417  0.00  0.00    +0.000 A 
ATOM     21  N   UNL     1       1.120   9.603  17.801  0.00  0.00    +0.000 N 
ATOM     22  C   UNL     1       0.350  10.276  18.720  0.00  0.00    +0.000 A 
ATOM     23  C   UNL     1      -0.554  11.330  18.539  0.00  0.00    +0.000 A 
ATOM     24  C   UNL     1      -1.223  11.815  19.666  0.00  0.00    +0.000 A 
ATOM     25  C   UNL     1      -0.992  11.266  20.924  0.00  0.00    +0.000 A 
ATOM     26  C   UNL     1      -0.086  10.208  21.089  0.00  0.00    +0.000 A 
ATOM     27  C   UNL     1       0.599   9.699  19.966  0.00  0.00    +0.000 A 
ATOM     28  H   UNL     1       1.120   9.797  16.808  0.00  0.00    +0.000 HD
ENDBRANCH  18  19
ENDBRANCH   2  18
TORSDOF 5
ENDMDL
MODEL 9
REMARK VINA RESULT:      -7.9      2.400      4.125
REMARK  Name = 
REMARK  5 active torsions:
REMARK  status: ('A' for Active; 'I' for Inactive)
REMARK    1  A    between atoms: C_2  and  C_3
REMARK    2  A    between atoms: C_3  and  C_4
REMARK    3  A    between atoms: N_13  and  C_14
REMARK    4  A    between atoms: C_14  and  C_15
REMARK    5  A    between atoms: C_19  and  O_20
REMARK                            x       y       z     vdW  Elec       q    Type
REMARK                         _______ _______ _______ _____ _____    ______ ____
ROOT
ATOM      1  O   UNL     1       2.415   6.808  17.866  0.00  0.00    +0.000 OA
ATOM      2  C   UNL     1       2.751   6.631  19.034  0.00  0.00    +0.000 C 
ATOM      3  N   UNL     1       3.975   6.117  19.401  0.00  0.00    +0.000 N 
ATOM      4  H   UNL     1       4.084   5.871  20.379  0.00  0.00    +0.000 HD
ENDROOT
BRANCH   3   5
ATOM      5  C   UNL     1       5.046   5.655  18.490  0.00  0.00    +0.000 C 
ATOM      6  C   UNL     1       5.537   6.761  17.544  0.00  0.00    +0.000 C 
ATOM      7  C   UNL     1       6.925   6.318  17.095  0.00  0.00    +0.000 C 
ATOM      8  C   UNL     1       7.472   5.436  18.212  0.00  0.00    +0.000 C 
ATOM      9  C   UNL     1       6.330   5.215  19.209  0.00  0.00    +0.000 C 
BRANCH   5  10
ATOM     10  C   UNL     1       4.442   4.460  17.675  0.00  0.00    +0.000 C 
ATOM     11  O   UNL     1       4.606   4.311  16.465  0.00  0.00    +0.000 OA
ATOM     12  N   UNL     1       3.734   3.530  18.417  0.00  0.00    +0.000 N 
ATOM     13  C   UNL     1       3.110   2.314  17.885  0.00  0.00    +0.000 C 
ATOM     14  C   UNL     1       2.989   1.886  19.363  0.00  0.00    +0.000 C 
ATOM     15  C   UNL     1       4.189   2.821  19.619  0.00  0.00    +0.000 C 
BRANCH  14  16
ATOM     16  O   UNL     1       1.757   2.241  20.046  0.00  0.00    +0.000 OA
ATOM     17  H   UNL     1       1.981   2.193  20.992  0.00  0.00    +0.000 HD
ENDBRANCH  14  16
ENDBRANCH   5  10
ENDBRANCH   3   5
BRANCH   2  18
ATOM     18  C   UNL     1       1.876   7.081  20.196  0.00  0.00    +0.000 C 
BRANCH  18  19
ATOM     19  C   UNL     1       1.402   8.502  20.123  0.00  0.00    +0.000 A 
ATOM     20  C   UNL     1       1.449   9.330  19.015  0.00  0.00    +0.000 A 
ATOM     21  N   UNL     1       0.807  10.501  19.321  0.00  0.00    +0.000 N 
ATOM     22  C   UNL     1       0.327  10.458  20.608  0.00  0.00    +0.000 A 
ATOM     23  C   UNL     1      -0.419  11.403  21.324  0.00  0.00    +0.000 A 
ATOM     24  C   UNL     1      -0.793  11.081  22.632  0.00  0.00    +0.000 A 
ATOM     25  C   UNL     1      -0.431   9.862  23.199  0.00  0.00    +0.000 A 
ATOM     26  C   UNL     1       0.314   8.926  22.467  0.00  0.00    +0.000 A 
ATOM     27  C   UNL     1       0.700   9.225  21.145  0.00  0.00    +0.000 A 
ATOM     28  H   UNL     1       0.661  11.274  18.684  0.00  0.00    +0.000 HD
ENDBRANCH  18  19
ENDBRANCH   2  18
TORSDOF 5
ENDMDL
