MODEL 1
REMARK VINA RESULT:      -8.1      0.000      0.000
REMARK  Name = 
REMARK  6 active torsions:
REMARK  status: ('A' for Active; 'I' for Inactive)
REMARK    1  A    between atoms: C_1  and  C_2
REMARK    2  A    between atoms: N_4  and  C_5
REMARK    3  A    between atoms: N_4  and  C_13
REMARK    4  A    between atoms: C_5  and  C_6
REMARK    5  A    between atoms: C_6  and  N_7
REMARK    6  A    between atoms: C_13  and  C_14
REMARK                            x       y       z     vdW  Elec       q    Type
REMARK                         _______ _______ _______ _____ _____    ______ ____
ROOT
ATOM      1  C   UNL     1       2.191   7.037  19.965  0.00  0.00    +0.000 A 
ATOM      2  C   UNL     1       1.513   7.318  21.147  0.00  0.00    +0.000 A 
ATOM      3  C   UNL     1       0.869   8.566  21.325  0.00  0.00    +0.000 A 
ATOM      4  C   UNL     1       0.029   8.893  22.424  0.00  0.00    +0.000 A 
ATOM      5  C   UNL     1      -0.531  10.169  22.443  0.00  0.00    +0.000 A 
ATOM      6  C   UNL     1      -0.188  11.116  21.521  0.00  0.00    +0.000 A 
ATOM      7  C   UNL     1       0.635  10.831  20.472  0.00  0.00    +0.000 A 
ATOM      8  C   UNL     1       1.090   9.536  20.316  0.00  0.00    +0.000 A 
ATOM      9  N   UNL     1       1.672   9.269  19.148  0.00  0.00    +0.000 NA
ATOM     10  C   UNL     1       2.141   8.015  18.977  0.00  0.00    +0.000 A 
ATOM     11 CL   UNL     1       2.582   7.744  17.327  0.00  0.00    +0.000 Cl
ATOM     12  O   UNL     1      -0.847  12.289  21.698  0.00  0.00    +0.000 OA
ATOM     13  C   UNL     1      -1.894  11.826  22.568  0.00  0.00    +0.000 C 
ATOM     14  O   UNL     1      -1.512  10.621  23.276  0.00  0.00    +0.000 OA
ENDROOT
BRANCH   1  15
ATOM     15  C   UNL     1       2.997   5.795  19.633  0.00  0.00    +0.000 C 
BRANCH  15  19
ATOM     16  C   UNL     1       1.326   3.894  20.978  0.00  0.00    +0.000 C 
ATOM     17  C   UNL     1       1.503   3.809  19.479  0.00  0.00    +0.000 C 
ATOM     18  O   UNL     1       0.944   2.905  18.858  0.00  0.00    +0.000 OA
ATOM     19  N   UNL     1       2.333   4.743  18.872  0.00  0.00    +0.000 N 
BRANCH  19  20
ATOM     20  C   UNL     1       2.689   4.628  17.431  0.00  0.00    +0.000 C 
BRANCH  20  21
ATOM     21  C   UNL     1       4.164   4.264  17.102  0.00  0.00    +0.000 C 
BRANCH  21  22
ATOM     22  N   UNL     1       4.995   5.408  16.648  0.00  0.00    +0.000 NA
ATOM     23  C   UNL     1       5.531   5.293  15.272  0.00  0.00    +0.000 C 
ATOM     24  C   UNL     1       6.722   4.327  15.113  0.00  0.00    +0.000 C 
ATOM     25  O   UNL     1       7.773   4.613  16.043  0.00  0.00    +0.000 OA
ATOM     26  C   UNL     1       7.278   4.600  17.388  0.00  0.00    +0.000 C 
ATOM     27  C   UNL     1       6.145   5.627  17.560  0.00  0.00    +0.000 C 
ENDBRANCH  21  22
ENDBRANCH  20  21
ENDBRANCH  19  20
ENDBRANCH  15  19
ENDBRANCH   1  15
TORSDOF 5
ENDMDL
MODEL 2
REMARK VINA RESULT:      -7.9      2.472      3.406
REMARK  Name = 
REMARK  6 active torsions:
REMARK  status: ('A' for Active; 'I' for Inactive)
REMARK    1  A    between atoms: C_1  and  C_2
REMARK    2  A    between atoms: N_4  and  C_5
REMARK    3  A    between atoms: N_4  and  C_13
REMARK    4  A    between atoms: C_5  and  C_6
REMARK    5  A    between atoms: C_6  and  N_7
REMARK    6  A    between atoms: C_13  and  C_14
REMARK                            x       y       z     vdW  Elec       q    Type
REMARK                         _______ _______ _______ _____ _____    ______ ____
ROOT
ATOM      1  C   UNL     1       2.255   5.572  18.934  0.00  0.00    +0.000 A 
ATOM      2  C   UNL     1       2.330   6.648  18.055  0.00  0.00    +0.000 A 
ATOM      3  C   UNL     1       2.044   7.960  18.502  0.00  0.00    +0.000 A 
ATOM      4  C   UNL     1       2.236   9.137  17.729  0.00  0.00    +0.000 A 
ATOM      5  C   UNL     1       1.905  10.353  18.323  0.00  0.00    +0.000 A 
ATOM      6  C   UNL     1       1.297  10.412  19.545  0.00  0.00    +0.000 A 
ATOM      7  C   UNL     1       1.081   9.293  20.294  0.00  0.00    +0.000 A 
ATOM      8  C   UNL     1       1.537   8.077  19.820  0.00  0.00    +0.000 A 
ATOM      9  N   UNL     1       1.523   7.077  20.699  0.00  0.00    +0.000 NA
ATOM     10  C   UNL     1       1.946   5.875  20.256  0.00  0.00    +0.000 A 
ATOM     11 CL   UNL     1       2.158   4.775  21.573  0.00  0.00    +0.000 Cl
ATOM     12  O   UNL     1       1.067  11.683  19.960  0.00  0.00    +0.000 OA
ATOM     13  C   UNL     1       1.941  12.375  19.052  0.00  0.00    +0.000 C 
ATOM     14  O   UNL     1       2.195  11.601  17.854  0.00  0.00    +0.000 OA
ENDROOT
BRANCH   1  15
ATOM     15  C   UNL     1       2.450   4.101  18.616  0.00  0.00    +0.000 C 
BRANCH  15  19
ATOM     16  C   UNL     1       2.688   2.043  20.597  0.00  0.00    +0.000 C 
ATOM     17  C   UNL     1       3.915   2.507  19.846  0.00  0.00    +0.000 C 
ATOM     18  O   UNL     1       5.008   2.009  20.115  0.00  0.00    +0.000 OA
ATOM     19  N   UNL     1       3.754   3.516  18.905  0.00  0.00    +0.000 N 
BRANCH  19  20
ATOM     20  C   UNL     1       4.933   4.140  18.243  0.00  0.00    +0.000 C 
BRANCH  20  21
ATOM     21  C   UNL     1       5.815   5.071  19.121  0.00  0.00    +0.000 C 
BRANCH  21  22
ATOM     22  N   UNL     1       7.251   5.096  18.744  0.00  0.00    +0.000 NA
ATOM     23  C   UNL     1       7.903   6.424  18.822  0.00  0.00    +0.000 C 
ATOM     24  C   UNL     1       7.555   7.391  17.672  0.00  0.00    +0.000 C 
ATOM     25  O   UNL     1       7.770   6.797  16.388  0.00  0.00    +0.000 OA
ATOM     26  C   UNL     1       7.037   5.571  16.266  0.00  0.00    +0.000 C 
ATOM     27  C   UNL     1       7.451   4.579  17.367  0.00  0.00    +0.000 C 
ENDBRANCH  21  22
ENDBRANCH  20  21
ENDBRANCH  19  20
ENDBRANCH  15  19
ENDBRANCH   1  15
TORSDOF 5
ENDMDL
MODEL 3
REMARK VINA RESULT:      -7.8      2.251      3.069
REMARK  Name = 
REMARK  6 active torsions:
REMARK  status: ('A' for Active; 'I' for Inactive)
REMARK    1  A    between atoms: C_1  and  C_2
REMARK    2  A    between atoms: N_4  and  C_5
REMARK    3  A    between atoms: N_4  and  C_13
REMARK    4  A    between atoms: C_5  and  C_6
REMARK    5  A    between atoms: C_6  and  N_7
REMARK    6  A    between atoms: C_13  and  C_14
REMARK                            x       y       z     vdW  Elec       q    Type
REMARK                         _______ _______ _______ _____ _____    ______ ____
ROOT
ATOM      1  C   UNL     1       2.380   6.151  18.788  0.00  0.00    +0.000 A 
ATOM      2  C   UNL     1       2.392   7.324  18.039  0.00  0.00    +0.000 A 
ATOM      3  C   UNL     1       1.961   8.544  18.611  0.00  0.00    +0.000 A 
ATOM      4  C   UNL     1       2.074   9.815  17.985  0.00  0.00    +0.000 A 
ATOM      5  C   UNL     1       1.600  10.920  18.690  0.00  0.00    +0.000 A 
ATOM      6  C   UNL     1       0.933  10.781  19.874  0.00  0.00    +0.000 A 
ATOM      7  C   UNL     1       0.792   9.569  20.481  0.00  0.00    +0.000 A 
ATOM      8  C   UNL     1       1.384   8.462  19.902  0.00  0.00    +0.000 A 
ATOM      9  N   UNL     1       1.425   7.371  20.664  0.00  0.00    +0.000 NA
ATOM     10  C   UNL     1       1.983   6.270  20.116  0.00  0.00    +0.000 A 
ATOM     11 CL   UNL     1       2.238   5.049  21.313  0.00  0.00    +0.000 Cl
ATOM     12  O   UNL     1       0.562  11.971  20.413  0.00  0.00    +0.000 OA
ATOM     13  C   UNL     1       1.407  12.839  19.638  0.00  0.00    +0.000 C 
ATOM     14  O   UNL     1       1.790  12.234  18.379  0.00  0.00    +0.000 OA
ENDROOT
BRANCH   1  15
ATOM     15  C   UNL     1       2.731   4.750  18.321  0.00  0.00    +0.000 C 
BRANCH  15  19
ATOM     16  C   UNL     1       2.534   2.109  19.418  0.00  0.00    +0.000 C 
ATOM     17  C   UNL     1       3.860   2.834  19.440  0.00  0.00    +0.000 C 
ATOM     18  O   UNL     1       4.835   2.286  19.955  0.00  0.00    +0.000 OA
ATOM     19  N   UNL     1       3.905   4.117  18.910  0.00  0.00    +0.000 N 
BRANCH  19  20
ATOM     20  C   UNL     1       5.127   4.958  19.043  0.00  0.00    +0.000 C 
BRANCH  20  21
ATOM     21  C   UNL     1       6.369   4.520  18.217  0.00  0.00    +0.000 C 
BRANCH  21  22
ATOM     22  N   UNL     1       6.987   5.603  17.411  0.00  0.00    +0.000 NA
ATOM     23  C   UNL     1       6.086   6.728  17.067  0.00  0.00    +0.000 C 
ATOM     24  C   UNL     1       5.071   6.432  15.945  0.00  0.00    +0.000 C 
ATOM     25  O   UNL     1       5.704   5.915  14.770  0.00  0.00    +0.000 OA
ATOM     26  C   UNL     1       6.477   4.749  15.081  0.00  0.00    +0.000 C 
ATOM     27  C   UNL     1       7.544   5.072  16.142  0.00  0.00    +0.000 C 
ENDBRANCH  21  22
ENDBRANCH  20  21
ENDBRANCH  19  20
ENDBRANCH  15  19
ENDBRANCH   1  15
TORSDOF 5
ENDMDL
MODEL 4
REMARK VINA RESULT:      -7.7      0.670      1.146
REMARK  Name = 
REMARK  6 active torsions:
REMARK  status: ('A' for Active; 'I' for Inactive)
REMARK    1  A    between atoms: C_1  and  C_2
REMARK    2  A    between atoms: N_4  and  C_5
REMARK    3  A    between atoms: N_4  and  C_13
REMARK    4  A    between atoms: C_5  and  C_6
REMARK    5  A    between atoms: C_6  and  N_7
REMARK    6  A    between atoms: C_13  and  C_14
REMARK                            x       y       z     vdW  Elec       q    Type
REMARK                         _______ _______ _______ _____ _____    ______ ____
ROOT
ATOM      1  C   UNL     1       2.100   7.444  20.013  0.00  0.00    +0.000 A 
ATOM      2  C   UNL     1       1.425   7.685  21.205  0.00  0.00    +0.000 A 
ATOM      3  C   UNL     1       0.720   8.897  21.398  0.00  0.00    +0.000 A 
ATOM      4  C   UNL     1      -0.120   9.176  22.510  0.00  0.00    +0.000 A 
ATOM      5  C   UNL     1      -0.744  10.421  22.544  0.00  0.00    +0.000 A 
ATOM      6  C   UNL     1      -0.462  11.388  21.623  0.00  0.00    +0.000 A 
ATOM      7  C   UNL     1       0.359  11.152  20.561  0.00  0.00    +0.000 A 
ATOM      8  C   UNL     1       0.878   9.882  20.392  0.00  0.00    +0.000 A 
ATOM      9  N   UNL     1       1.457   9.651  19.215  0.00  0.00    +0.000 NA
ATOM     10  C   UNL     1       1.987   8.424  19.030  0.00  0.00    +0.000 A 
ATOM     11 CL   UNL     1       2.419   8.183  17.374  0.00  0.00    +0.000 Cl
ATOM     12  O   UNL     1      -1.179  12.526  21.815  0.00  0.00    +0.000 OA
ATOM     13  C   UNL     1      -2.188  12.005  22.697  0.00  0.00    +0.000 C 
ATOM     14  O   UNL     1      -1.735  10.818  23.393  0.00  0.00    +0.000 OA
ENDROOT
BRANCH   1  15
ATOM     15  C   UNL     1       2.964   6.247  19.663  0.00  0.00    +0.000 C 
BRANCH  15  19
ATOM     16  C   UNL     1       1.417   4.227  20.982  0.00  0.00    +0.000 C 
ATOM     17  C   UNL     1       1.581   4.185  19.480  0.00  0.00    +0.000 C 
ATOM     18  O   UNL     1       1.066   3.264  18.845  0.00  0.00    +0.000 OA
ATOM     19  N   UNL     1       2.350   5.177  18.886  0.00  0.00    +0.000 N 
BRANCH  19  20
ATOM     20  C   UNL     1       2.696   5.113  17.438  0.00  0.00    +0.000 C 
BRANCH  20  21
ATOM     21  C   UNL     1       4.191   5.313  17.067  0.00  0.00    +0.000 C 
BRANCH  21  22
ATOM     22  N   UNL     1       5.046   4.119  17.287  0.00  0.00    +0.000 NA
ATOM     23  C   UNL     1       6.116   4.284  18.299  0.00  0.00    +0.000 C 
ATOM     24  C   UNL     1       7.334   5.106  17.834  0.00  0.00    +0.000 C 
ATOM     25  O   UNL     1       7.875   4.615  16.603  0.00  0.00    +0.000 OA
ATOM     26  C   UNL     1       6.866   4.574  15.585  0.00  0.00    +0.000 C 
ATOM     27  C   UNL     1       5.690   3.683  16.023  0.00  0.00    +0.000 C 
ENDBRANCH  21  22
ENDBRANCH  20  21
ENDBRANCH  19  20
ENDBRANCH  15  19
ENDBRANCH   1  15
TORSDOF 5
ENDMDL
MODEL 5
REMARK VINA RESULT:      -7.6      2.338      3.205
REMARK  Name = 
REMARK  6 active torsions:
REMARK  status: ('A' for Active; 'I' for Inactive)
REMARK    1  A    between atoms: C_1  and  C_2
REMARK    2  A    between atoms: N_4  and  C_5
REMARK    3  A    between atoms: N_4  and  C_13
REMARK    4  A    between atoms: C_5  and  C_6
REMARK    5  A    between atoms: C_6  and  N_7
REMARK    6  A    between atoms: C_13  and  C_14
REMARK                            x       y       z     vdW  Elec       q    Type
REMARK                         _______ _______ _______ _____ _____    ______ ____
ROOT
ATOM      1  C   UNL     1       2.159   6.018  18.682  0.00  0.00    +0.000 A 
ATOM      2  C   UNL     1       2.179   7.194  17.939  0.00  0.00    +0.000 A 
ATOM      3  C   UNL     1       1.891   8.436  18.555  0.00  0.00    +0.000 A 
ATOM      4  C   UNL     1       2.031   9.702  17.926  0.00  0.00    +0.000 A 
ATOM      5  C   UNL     1       1.706  10.830  18.677  0.00  0.00    +0.000 A 
ATOM      6  C   UNL     1       1.150  10.725  19.920  0.00  0.00    +0.000 A 
ATOM      7  C   UNL     1       0.984   9.520  20.534  0.00  0.00    +0.000 A 
ATOM      8  C   UNL     1       1.438   8.381  19.897  0.00  0.00    +0.000 A 
ATOM      9  N   UNL     1       1.478   7.281  20.647  0.00  0.00    +0.000 NA
ATOM     10  C   UNL     1       1.902   6.150  20.043  0.00  0.00    +0.000 A 
ATOM     11 CL   UNL     1       2.187   4.903  21.205  0.00  0.00    +0.000 Cl
ATOM     12  O   UNL     1       0.916  11.932  20.497  0.00  0.00    +0.000 OA
ATOM     13  C   UNL     1       1.740  12.748  19.646  0.00  0.00    +0.000 C 
ATOM     14  O   UNL     1       1.955  12.131  18.353  0.00  0.00    +0.000 OA
ENDROOT
BRANCH   1  15
ATOM     15  C   UNL     1       2.365   4.601  18.178  0.00  0.00    +0.000 C 
BRANCH  15  19
ATOM     16  C   UNL     1       2.193   1.955  19.267  0.00  0.00    +0.000 C 
ATOM     17  C   UNL     1       3.543   2.618  19.115  0.00  0.00    +0.000 C 
ATOM     18  O   UNL     1       4.552   2.019  19.487  0.00  0.00    +0.000 OA
ATOM     19  N   UNL     1       3.576   3.906  18.595  0.00  0.00    +0.000 N 
BRANCH  19  20
ATOM     20  C   UNL     1       4.843   4.688  18.568  0.00  0.00    +0.000 C 
BRANCH  20  21
ATOM     21  C   UNL     1       5.312   5.210  17.181  0.00  0.00    +0.000 C 
BRANCH  21  22
ATOM     22  N   UNL     1       6.779   5.139  16.959  0.00  0.00    +0.000 NA
ATOM     23  C   UNL     1       7.579   4.741  18.141  0.00  0.00    +0.000 C 
ATOM     24  C   UNL     1       7.764   5.841  19.205  0.00  0.00    +0.000 C 
ATOM     25  O   UNL     1       8.268   7.056  18.639  0.00  0.00    +0.000 OA
ATOM     26  C   UNL     1       7.421   7.510  17.575  0.00  0.00    +0.000 C 
ATOM     27  C   UNL     1       7.309   6.438  16.477  0.00  0.00    +0.000 C 
ENDBRANCH  21  22
ENDBRANCH  20  21
ENDBRANCH  19  20
ENDBRANCH  15  19
ENDBRANCH   1  15
TORSDOF 5
ENDMDL
MODEL 6
REMARK VINA RESULT:      -7.4      3.871      8.499
REMARK  Name = 
REMARK  6 active torsions:
REMARK  status: ('A' for Active; 'I' for Inactive)
REMARK    1  A    between atoms: C_1  and  C_2
REMARK    2  A    between atoms: N_4  and  C_5
REMARK    3  A    between atoms: N_4  and  C_13
REMARK    4  A    between atoms: C_5  and  C_6
REMARK    5  A    between atoms: C_6  and  N_7
REMARK    6  A    between atoms: C_13  and  C_14
REMARK                            x       y       z     vdW  Elec       q    Type
REMARK                         _______ _______ _______ _____ _____    ______ ____
ROOT
ATOM      1  C   UNL     1       5.454   5.382  17.630  0.00  0.00    +0.000 A 
ATOM      2  C   UNL     1       4.842   4.671  16.601  0.00  0.00    +0.000 A 
ATOM      3  C   UNL     1       5.503   4.493  15.362  0.00  0.00    +0.000 A 
ATOM      4  C   UNL     1       5.034   3.663  14.307  0.00  0.00    +0.000 A 
ATOM      5  C   UNL     1       5.809   3.598  13.152  0.00  0.00    +0.000 A 
ATOM      6  C   UNL     1       6.903   4.396  12.977  0.00  0.00    +0.000 A 
ATOM      7  C   UNL     1       7.358   5.217  13.966  0.00  0.00    +0.000 A 
ATOM      8  C   UNL     1       6.718   5.200  15.191  0.00  0.00    +0.000 A 
ATOM      9  N   UNL     1       7.356   5.825  16.179  0.00  0.00    +0.000 NA
ATOM     10  C   UNL     1       6.744   5.839  17.382  0.00  0.00    +0.000 A 
ATOM     11 CL   UNL     1       7.819   6.408  18.612  0.00  0.00    +0.000 Cl
ATOM     12  O   UNL     1       7.533   4.177  11.795  0.00  0.00    +0.000 OA
ATOM     13  C   UNL     1       6.940   2.911  11.458  0.00  0.00    +0.000 C 
ATOM     14  O   UNL     1       5.662   2.724  12.115  0.00  0.00    +0.000 OA
ENDROOT
BRANCH   1  15
ATOM     15  C   UNL     1       4.870   5.735  18.985  0.00  0.00    +0.000 C 
BRANCH  15  19
ATOM     16  C   UNL     1       3.936   7.994  17.489  0.00  0.00    +0.000 C 
ATOM     17  C   UNL     1       2.962   7.188  18.318  0.00  0.00    +0.000 C 
ATOM     18  O   UNL     1       1.780   7.531  18.358  0.00  0.00    +0.000 OA
ATOM     19  N   UNL     1       3.463   6.110  19.037  0.00  0.00    +0.000 N 
BRANCH  19  20
ATOM     20  C   UNL     1       2.604   5.369  20.002  0.00  0.00    +0.000 C 
BRANCH  20  21
ATOM     21  C   UNL     1       1.541   4.409  19.399  0.00  0.00    +0.000 C 
BRANCH  21  22
ATOM     22  N   UNL     1       1.602   3.019  19.915  0.00  0.00    +0.000 NA
ATOM     23  C   UNL     1       2.858   2.658  20.614  0.00  0.00    +0.000 C 
ATOM     24  C   UNL     1       4.067   2.399  19.693  0.00  0.00    +0.000 C 
ATOM     25  O   UNL     1       3.767   1.446  18.668  0.00  0.00    +0.000 OA
ATOM     26  C   UNL     1       2.624   1.860  17.908  0.00  0.00    +0.000 C 
ATOM     27  C   UNL     1       1.399   2.035  18.823  0.00  0.00    +0.000 C 
ENDBRANCH  21  22
ENDBRANCH  20  21
ENDBRANCH  19  20
ENDBRANCH  15  19
ENDBRANCH   1  15
TORSDOF 5
ENDMDL
MODEL 7
REMARK VINA RESULT:      -7.4      2.395      8.615
REMARK  Name = 
REMARK  6 active torsions:
REMARK  status: ('A' for Active; 'I' for Inactive)
REMARK    1  A    between atoms: C_1  and  C_2
REMARK    2  A    between atoms: N_4  and  C_5
REMARK    3  A    between atoms: N_4  and  C_13
REMARK    4  A    between atoms: C_5  and  C_6
REMARK    5  A    between atoms: C_6  and  N_7
REMARK    6  A    between atoms: C_13  and  C_14
REMARK                            x       y       z     vdW  Elec       q    Type
REMARK                         _______ _______ _______ _____ _____    ______ ____
ROOT
ATOM      1  C   UNL     1       2.251   7.052  19.310  0.00  0.00    +0.000 A 
ATOM      2  C   UNL     1       2.910   7.417  18.140  0.00  0.00    +0.000 A 
ATOM      3  C   UNL     1       4.030   6.680  17.687  0.00  0.00    +0.000 A 
ATOM      4  C   UNL     1       4.676   6.877  16.437  0.00  0.00    +0.000 A 
ATOM      5  C   UNL     1       5.767   6.061  16.144  0.00  0.00    +0.000 A 
ATOM      6  C   UNL     1       6.283   5.198  17.068  0.00  0.00    +0.000 A 
ATOM      7  C   UNL     1       5.694   5.010  18.283  0.00  0.00    +0.000 A 
ATOM      8  C   UNL     1       4.516   5.677  18.562  0.00  0.00    +0.000 A 
ATOM      9  N   UNL     1       3.865   5.263  19.647  0.00  0.00    +0.000 NA
ATOM     10  C   UNL     1       2.720   5.910  19.952  0.00  0.00    +0.000 A 
ATOM     11 CL   UNL     1       1.849   5.070  21.186  0.00  0.00    +0.000 Cl
ATOM     12  O   UNL     1       7.334   4.482  16.593  0.00  0.00    +0.000 OA
ATOM     13  C   UNL     1       7.146   4.719  15.187  0.00  0.00    +0.000 C 
ATOM     14  O   UNL     1       6.398   5.935  14.942  0.00  0.00    +0.000 OA
ENDROOT
BRANCH   1  15
ATOM     15  C   UNL     1       1.092   7.764  19.981  0.00  0.00    +0.000 C 
BRANCH  15  19
ATOM     16  C   UNL     1       1.274   9.099  22.511  0.00  0.00    +0.000 C 
ATOM     17  C   UNL     1       1.237   9.910  21.236  0.00  0.00    +0.000 C 
ATOM     18  O   UNL     1       1.260  11.139  21.305  0.00  0.00    +0.000 OA
ATOM     19  N   UNL     1       1.135   9.220  20.035  0.00  0.00    +0.000 N 
BRANCH  19  20
ATOM     20  C   UNL     1       0.928   9.947  18.751  0.00  0.00    +0.000 C 
BRANCH  20  21
ATOM     21  C   UNL     1      -0.539  10.086  18.255  0.00  0.00    +0.000 C 
BRANCH  21  22
ATOM     22  N   UNL     1      -0.955  11.476  17.944  0.00  0.00    +0.000 NA
ATOM     23  C   UNL     1      -0.974  12.405  19.098  0.00  0.00    +0.000 C 
ATOM     24  C   UNL     1      -2.169  12.232  20.056  0.00  0.00    +0.000 C 
ATOM     25  O   UNL     1      -3.422  12.261  19.364  0.00  0.00    +0.000 OA
ATOM     26  C   UNL     1      -3.451  11.273  18.326  0.00  0.00    +0.000 C 
ATOM     27  C   UNL     1      -2.304  11.503  17.325  0.00  0.00    +0.000 C 
ENDBRANCH  21  22
ENDBRANCH  20  21
ENDBRANCH  19  20
ENDBRANCH  15  19
ENDBRANCH   1  15
TORSDOF 5
ENDMDL
MODEL 8
REMARK VINA RESULT:      -7.4      2.051      2.724
REMARK  Name = 
REMARK  6 active torsions:
REMARK  status: ('A' for Active; 'I' for Inactive)
REMARK    1  A    between atoms: C_1  and  C_2
REMARK    2  A    between atoms: N_4  and  C_5
REMARK    3  A    between atoms: N_4  and  C_13
REMARK    4  A    between atoms: C_5  and  C_6
REMARK    5  A    between atoms: C_6  and  N_7
REMARK    6  A    between atoms: C_13  and  C_14
REMARK                            x       y       z     vdW  Elec       q    Type
REMARK                         _______ _______ _______ _____ _____    ______ ____
ROOT
ATOM      1  C   UNL     1       2.132   6.735  18.755  0.00  0.00    +0.000 A 
ATOM      2  C   UNL     1       2.042   7.967  18.114  0.00  0.00    +0.000 A 
ATOM      3  C   UNL     1       1.631   9.118  18.827  0.00  0.00    +0.000 A 
ATOM      4  C   UNL     1       1.651  10.441  18.309  0.00  0.00    +0.000 A 
ATOM      5  C   UNL     1       1.214  11.463  19.148  0.00  0.00    +0.000 A 
ATOM      6  C   UNL     1       0.662  11.201  20.369  0.00  0.00    +0.000 A 
ATOM      7  C   UNL     1       0.610   9.937  20.877  0.00  0.00    +0.000 A 
ATOM      8  C   UNL     1       1.177   8.905  20.153  0.00  0.00    +0.000 A 
ATOM      9  N   UNL     1       1.319   7.755  20.808  0.00  0.00    +0.000 NA
ATOM     10  C   UNL     1       1.855   6.726  20.118  0.00  0.00    +0.000 A 
ATOM     11 CL   UNL     1       2.253   5.417  21.175  0.00  0.00    +0.000 Cl
ATOM     12  O   UNL     1       0.309  12.326  21.042  0.00  0.00    +0.000 OA
ATOM     13  C   UNL     1       1.055  13.286  20.275  0.00  0.00    +0.000 C 
ATOM     14  O   UNL     1       1.337  12.805  18.938  0.00  0.00    +0.000 OA
ENDROOT
BRANCH   1  15
ATOM     15  C   UNL     1       2.478   5.392  18.137  0.00  0.00    +0.000 C 
BRANCH  15  19
ATOM     16  C   UNL     1       2.829   2.702  19.060  0.00  0.00    +0.000 C 
ATOM     17  C   UNL     1       4.039   3.569  18.797  0.00  0.00    +0.000 C 
ATOM     18  O   UNL     1       5.163   3.113  19.009  0.00  0.00    +0.000 OA
ATOM     19  N   UNL     1       3.819   4.871  18.364  0.00  0.00    +0.000 N 
BRANCH  19  20
ATOM     20  C   UNL     1       4.947   5.837  18.242  0.00  0.00    +0.000 C 
BRANCH  20  21
ATOM     21  C   UNL     1       5.106   6.555  16.873  0.00  0.00    +0.000 C 
BRANCH  21  22
ATOM     22  N   UNL     1       6.495   6.590  16.352  0.00  0.00    +0.000 NA
ATOM     23  C   UNL     1       6.852   5.488  15.429  0.00  0.00    +0.000 C 
ATOM     24  C   UNL     1       7.109   4.126  16.104  0.00  0.00    +0.000 C 
ATOM     25  O   UNL     1       8.065   4.225  17.166  0.00  0.00    +0.000 OA
ATOM     26  C   UNL     1       7.655   5.205  18.128  0.00  0.00    +0.000 C 
ATOM     27  C   UNL     1       7.481   6.581  17.461  0.00  0.00    +0.000 C 
ENDBRANCH  21  22
ENDBRANCH  20  21
ENDBRANCH  19  20
ENDBRANCH  15  19
ENDBRANCH   1  15
TORSDOF 5
ENDMDL
MODEL 9
REMARK VINA RESULT:      -7.3      3.516      8.436
REMARK  Name = 
REMARK  6 active torsions:
REMARK  status: ('A' for Active; 'I' for Inactive)
REMARK    1  A    between atoms: C_1  and  C_2
REMARK    2  A    between atoms: N_4  and  C_5
REMARK    3  A    between atoms: N_4  and  C_13
REMARK    4  A    between atoms: C_5  and  C_6
REMARK    5  A    between atoms: C_6  and  N_7
REMARK    6  A    between atoms: C_13  and  C_14
REMARK                            x       y       z     vdW  Elec       q    Type
REMARK                         _______ _______ _______ _____ _____    ______ ____
ROOT
ATOM      1  C   UNL     1       1.050   9.506  19.998  0.00  0.00    +0.000 A 
ATOM      2  C   UNL     1       1.868   9.153  18.929  0.00  0.00    +0.000 A 
ATOM      3  C   UNL     1       2.407   7.848  18.839  0.00  0.00    +0.000 A 
ATOM      4  C   UNL     1       3.125   7.345  17.721  0.00  0.00    +0.000 A 
ATOM      5  C   UNL     1       3.586   6.032  17.794  0.00  0.00    +0.000 A 
ATOM      6  C   UNL     1       3.474   5.297  18.939  0.00  0.00    +0.000 A 
ATOM      7  C   UNL     1       2.811   5.768  20.033  0.00  0.00    +0.000 A 
ATOM      8  C   UNL     1       2.195   7.003  19.957  0.00  0.00    +0.000 A 
ATOM      9  N   UNL     1       1.360   7.290  20.954  0.00  0.00    +0.000 NA
ATOM     10  C   UNL     1       0.759   8.498  20.913  0.00  0.00    +0.000 A 
ATOM     11 CL   UNL     1      -0.505   8.596  22.088  0.00  0.00    +0.000 Cl
ATOM     12  O   UNL     1       3.970   4.039  18.810  0.00  0.00    +0.000 OA
ATOM     13  C   UNL     1       4.031   3.972  17.375  0.00  0.00    +0.000 C 
ATOM     14  O   UNL     1       4.109   5.289  16.777  0.00  0.00    +0.000 OA
ENDROOT
BRANCH   1  15
ATOM     15  C   UNL     1       0.451  10.868  20.297  0.00  0.00    +0.000 C 
BRANCH  15  19
ATOM     16  C   UNL     1       2.107  13.190  20.583  0.00  0.00    +0.000 C 
ATOM     17  C   UNL     1       1.289  13.002  19.326  0.00  0.00    +0.000 C 
ATOM     18  O   UNL     1       1.326  13.867  18.450  0.00  0.00    +0.000 OA
ATOM     19  N   UNL     1       0.491  11.869  19.238  0.00  0.00    +0.000 N 
BRANCH  19  20
ATOM     20  C   UNL     1      -0.466  11.693  18.110  0.00  0.00    +0.000 C 
BRANCH  20  21
ATOM     21  C   UNL     1      -1.978  11.809  18.452  0.00  0.00    +0.000 C 
BRANCH  21  22
ATOM     22  N   UNL     1      -2.771  10.589  18.162  0.00  0.00    +0.000 NA
ATOM     23  C   UNL     1      -2.345   9.827  16.964  0.00  0.00    +0.000 C 
ATOM     24  C   UNL     1      -2.754  10.449  15.614  0.00  0.00    +0.000 C 
ATOM     25  O   UNL     1      -4.156  10.735  15.558  0.00  0.00    +0.000 OA
ATOM     26  C   UNL     1      -4.546  11.578  16.650  0.00  0.00    +0.000 C 
ATOM     27  C   UNL     1      -4.210  10.913  17.996  0.00  0.00    +0.000 C 
ENDBRANCH  21  22
ENDBRANCH  20  21
ENDBRANCH  19  20
ENDBRANCH  15  19
ENDBRANCH   1  15
TORSDOF 5
ENDMDL
