MODEL 1
REMARK VINA RESULT:      -6.5      0.000      0.000
REMARK  Name = 
REMARK  16 active torsions:
REMARK  status: ('A' for Active; 'I' for Inactive)
REMARK    1  A    between atoms: C_1  and  C_2
REMARK    2  A    between atoms: N_4  and  C_5
REMARK    3  A    between atoms: C_5  and  C_6
REMARK    4  A    between atoms: C_6  and  C_7
REMARK    5  A    between atoms: C_7  and  C_8
REMARK    6  A    between atoms: C_8  and  O_9
REMARK    7  A    between atoms: O_9  and  C_10
REMARK    8  A    between atoms: C_10  and  P_11
REMARK    9  A    between atoms: P_11  and  O_13
REMARK   10  A    between atoms: P_11  and  O_17
REMARK   11  A    between atoms: O_13  and  C_14
REMARK   12  A    between atoms: C_14  and  C_15
REMARK   13  A    between atoms: C_14  and  C_16
REMARK   14  A    between atoms: O_17  and  C_18
REMARK   15  A    between atoms: C_18  and  C_19
REMARK   16  A    between atoms: C_18  and  C_20
REMARK                            x       y       z     vdW  Elec       q    Type
REMARK                         _______ _______ _______ _____ _____    ______ ____
ROOT
ATOM      1  C   UNL     1       2.730   6.290  19.016  0.00  0.00    +0.000 C 
ENDROOT
BRANCH   1   2
ATOM      2  C   UNL     1       2.909   4.984  18.246  0.00  0.00    +0.000 C 
BRANCH   2   3
ATOM      3  C   UNL     1       4.214   4.255  18.589  0.00  0.00    +0.000 C 
BRANCH   3   7
ATOM      4  C   UNL     1       5.557   4.004  13.835  0.00  0.00    +0.000 C 
ATOM      5  C   UNL     1       5.805   4.367  15.260  0.00  0.00    +0.000 A 
ATOM      6  C   UNL     1       4.964   4.096  16.264  0.00  0.00    +0.000 A 
ATOM      7  N   UNL     1       5.222   4.476  17.562  0.00  0.00    +0.000 N 
ATOM      8  C   UNL     1       6.387   5.161  17.914  0.00  0.00    +0.000 A 
ATOM      9  O   UNL     1       6.627   5.563  19.047  0.00  0.00    +0.000 OA
ATOM     10  N   UNL     1       7.265   5.382  16.896  0.00  0.00    +0.000 N 
ATOM     11  C   UNL     1       7.057   5.093  15.577  0.00  0.00    +0.000 A 
ATOM     12  O   UNL     1       7.853   5.422  14.704  0.00  0.00    +0.000 OA
ATOM     13  H   UNL     1       8.102   5.894  17.124  0.00  0.00    +0.000 HD
ENDBRANCH   3   7
ENDBRANCH   2   3
ENDBRANCH   1   2
BRANCH   1  14
ATOM     14  C   UNL     1       2.848   7.496  18.100  0.00  0.00    +0.000 C 
BRANCH  14  15
ATOM     15  O   UNL     1       1.558   8.063  17.869  0.00  0.00    +0.000 OA
BRANCH  15  16
ATOM     16  C   UNL     1       1.690   9.495  17.885  0.00  0.00    +0.000 C 
BRANCH  16  17
ATOM     17  P   UNL     1       1.025  10.120  19.471  0.00  0.00    +0.000 P 
ATOM     18  O   UNL     1       1.457  11.544  19.081  0.00  0.00    +0.000 OA
BRANCH  17  19
ATOM     19  O   UNL     1      -0.512   9.806  18.918  0.00  0.00    +0.000 OA
BRANCH  19  20
ATOM     20  C   UNL     1      -1.208  10.671  18.025  0.00  0.00    +0.000 C 
ATOM     21  C   UNL     1      -1.978   9.907  16.954  0.00  0.00    +0.000 C 
ATOM     22  C   UNL     1      -2.208  11.500  18.841  0.00  0.00    +0.000 C 
ENDBRANCH  19  20
ENDBRANCH  17  19
BRANCH  17  23
ATOM     23  O   UNL     1       0.397  10.712  20.972  0.00  0.00    +0.000 OA
BRANCH  23  24
ATOM     24  C   UNL     1       0.736   9.841  22.061  0.00  0.00    +0.000 C 
ATOM     25  C   UNL     1      -0.480   9.672  22.957  0.00  0.00    +0.000 C 
ATOM     26  C   UNL     1       1.198   8.478  21.539  0.00  0.00    +0.000 C 
ENDBRANCH  23  24
ENDBRANCH  17  23
ENDBRANCH  16  17
ENDBRANCH  15  16
ENDBRANCH  14  15
ENDBRANCH   1  14
TORSDOF 11
ENDMDL
MODEL 2
REMARK VINA RESULT:      -6.5      3.610      7.905
REMARK  Name = 
REMARK  16 active torsions:
REMARK  status: ('A' for Active; 'I' for Inactive)
REMARK    1  A    between atoms: C_1  and  C_2
REMARK    2  A    between atoms: N_4  and  C_5
REMARK    3  A    between atoms: C_5  and  C_6
REMARK    4  A    between atoms: C_6  and  C_7
REMARK    5  A    between atoms: C_7  and  C_8
REMARK    6  A    between atoms: C_8  and  O_9
REMARK    7  A    between atoms: O_9  and  C_10
REMARK    8  A    between atoms: C_10  and  P_11
REMARK    9  A    between atoms: P_11  and  O_13
REMARK   10  A    between atoms: P_11  and  O_17
REMARK   11  A    between atoms: O_13  and  C_14
REMARK   12  A    between atoms: C_14  and  C_15
REMARK   13  A    between atoms: C_14  and  C_16
REMARK   14  A    between atoms: O_17  and  C_18
REMARK   15  A    between atoms: C_18  and  C_19
REMARK   16  A    between atoms: C_18  and  C_20
REMARK                            x       y       z     vdW  Elec       q    Type
REMARK                         _______ _______ _______ _____ _____    ______ ____
ROOT
ATOM      1  C   UNL     1       3.695   2.070  17.961  0.00  0.00    +0.000 C 
ENDROOT
BRANCH   1   2
ATOM      2  C   UNL     1       2.215   2.238  17.627  0.00  0.00    +0.000 C 
BRANCH   2   3
ATOM      3  C   UNL     1       1.366   2.648  18.837  0.00  0.00    +0.000 C 
BRANCH   3   7
ATOM      4  C   UNL     1       2.177   7.392  17.690  0.00  0.00    +0.000 C 
ATOM      5  C   UNL     1       2.038   6.275  18.669  0.00  0.00    +0.000 A 
ATOM      6  C   UNL     1       1.843   4.996  18.329  0.00  0.00    +0.000 A 
ATOM      7  N   UNL     1       1.691   4.001  19.269  0.00  0.00    +0.000 N 
ATOM      8  C   UNL     1       1.741   4.265  20.639  0.00  0.00    +0.000 A 
ATOM      9  O   UNL     1       1.557   3.416  21.505  0.00  0.00    +0.000 OA
ATOM     10  N   UNL     1       1.997   5.559  20.976  0.00  0.00    +0.000 N 
ATOM     11  C   UNL     1       2.098   6.611  20.110  0.00  0.00    +0.000 A 
ATOM     12  O   UNL     1       2.222   7.767  20.500  0.00  0.00    +0.000 OA
ATOM     13  H   UNL     1       2.016   5.775  21.960  0.00  0.00    +0.000 HD
ENDBRANCH   3   7
ENDBRANCH   2   3
ENDBRANCH   1   2
BRANCH   1  14
ATOM     14  C   UNL     1       4.543   3.127  17.274  0.00  0.00    +0.000 C 
BRANCH  14  15
ATOM     15  O   UNL     1       5.184   3.951  18.248  0.00  0.00    +0.000 OA
BRANCH  15  16
ATOM     16  C   UNL     1       5.337   5.267  17.690  0.00  0.00    +0.000 C 
BRANCH  16  17
ATOM     17  P   UNL     1       6.494   5.167  16.276  0.00  0.00    +0.000 P 
ATOM     18  O   UNL     1       5.826   6.404  15.653  0.00  0.00    +0.000 OA
BRANCH  17  19
ATOM     19  O   UNL     1       7.730   5.623  17.293  0.00  0.00    +0.000 OA
BRANCH  19  20
ATOM     20  C   UNL     1       7.528   6.435  18.446  0.00  0.00    +0.000 C 
ATOM     21  C   UNL     1       8.217   5.872  19.684  0.00  0.00    +0.000 C 
ATOM     22  C   UNL     1       8.106   7.827  18.161  0.00  0.00    +0.000 C 
ENDBRANCH  19  20
ENDBRANCH  17  19
BRANCH  17  23
ATOM     23  O   UNL     1       7.588   5.072  14.939  0.00  0.00    +0.000 OA
BRANCH  23  24
ATOM     24  C   UNL     1       6.886   5.045  13.688  0.00  0.00    +0.000 C 
ATOM     25  C   UNL     1       7.877   5.269  12.557  0.00  0.00    +0.000 C 
ATOM     26  C   UNL     1       6.169   3.706  13.499  0.00  0.00    +0.000 C 
ENDBRANCH  23  24
ENDBRANCH  17  23
ENDBRANCH  16  17
ENDBRANCH  15  16
ENDBRANCH  14  15
ENDBRANCH   1  14
TORSDOF 11
ENDMDL
MODEL 3
REMARK VINA RESULT:      -6.3      3.684      7.704
REMARK  Name = 
REMARK  16 active torsions:
REMARK  status: ('A' for Active; 'I' for Inactive)
REMARK    1  A    between atoms: C_1  and  C_2
REMARK    2  A    between atoms: N_4  and  C_5
REMARK    3  A    between atoms: C_5  and  C_6
REMARK    4  A    between atoms: C_6  and  C_7
REMARK    5  A    between atoms: C_7  and  C_8
REMARK    6  A    between atoms: C_8  and  O_9
REMARK    7  A    between atoms: O_9  and  C_10
REMARK    8  A    between atoms: C_10  and  P_11
REMARK    9  A    between atoms: P_11  and  O_13
REMARK   10  A    between atoms: P_11  and  O_17
REMARK   11  A    between atoms: O_13  and  C_14
REMARK   12  A    between atoms: C_14  and  C_15
REMARK   13  A    between atoms: C_14  and  C_16
REMARK   14  A    between atoms: O_17  and  C_18
REMARK   15  A    between atoms: C_18  and  C_19
REMARK   16  A    between atoms: C_18  and  C_20
REMARK                            x       y       z     vdW  Elec       q    Type
REMARK                         _______ _______ _______ _____ _____    ______ ____
ROOT
ATOM      1  C   UNL     1       3.588   2.126  18.458  0.00  0.00    +0.000 C 
ENDROOT
BRANCH   1   2
ATOM      2  C   UNL     1       2.262   2.294  17.720  0.00  0.00    +0.000 C 
BRANCH   2   3
ATOM      3  C   UNL     1       1.160   2.906  18.593  0.00  0.00    +0.000 C 
BRANCH   3   7
ATOM      4  C   UNL     1       2.510   7.592  17.763  0.00  0.00    +0.000 C 
ATOM      5  C   UNL     1       2.177   6.454  18.667  0.00  0.00    +0.000 A 
ATOM      6  C   UNL     1       1.897   5.215  18.248  0.00  0.00    +0.000 A 
ATOM      7  N   UNL     1       1.567   4.202  19.119  0.00  0.00    +0.000 N 
ATOM      8  C   UNL     1       1.514   4.401  20.500  0.00  0.00    +0.000 A 
ATOM      9  O   UNL     1       1.173   3.539  21.303  0.00  0.00    +0.000 OA
ATOM     10  N   UNL     1       1.857   5.650  20.923  0.00  0.00    +0.000 N 
ATOM     11  C   UNL     1       2.135   6.722  20.124  0.00  0.00    +0.000 A 
ATOM     12  O   UNL     1       2.329   7.843  20.581  0.00  0.00    +0.000 OA
ATOM     13  H   UNL     1       1.805   5.822  21.914  0.00  0.00    +0.000 HD
ENDBRANCH   3   7
ENDBRANCH   2   3
ENDBRANCH   1   2
BRANCH   1  14
ATOM     14  C   UNL     1       4.771   2.415  17.550  0.00  0.00    +0.000 C 
BRANCH  14  15
ATOM     15  O   UNL     1       4.720   3.766  17.092  0.00  0.00    +0.000 OA
BRANCH  15  16
ATOM     16  C   UNL     1       5.583   3.884  15.948  0.00  0.00    +0.000 C 
BRANCH  16  17
ATOM     17  P   UNL     1       6.690   5.319  16.202  0.00  0.00    +0.000 P 
ATOM     18  O   UNL     1       7.833   4.360  16.576  0.00  0.00    +0.000 OA
BRANCH  17  19
ATOM     19  O   UNL     1       6.670   5.588  14.560  0.00  0.00    +0.000 OA
BRANCH  19  20
ATOM     20  C   UNL     1       7.380   4.774  13.631  0.00  0.00    +0.000 C 
ATOM     21  C   UNL     1       6.450   3.966  12.733  0.00  0.00    +0.000 C 
ATOM     22  C   UNL     1       8.234   5.689  12.744  0.00  0.00    +0.000 C 
ENDBRANCH  19  20
ENDBRANCH  17  19
BRANCH  17  23
ATOM     23  O   UNL     1       7.736   6.676  16.443  0.00  0.00    +0.000 OA
BRANCH  23  24
ATOM     24  C   UNL     1       7.428   7.365  17.663  0.00  0.00    +0.000 C 
ATOM     25  C   UNL     1       8.057   6.617  18.828  0.00  0.00    +0.000 C 
ATOM     26  C   UNL     1       7.952   8.802  17.619  0.00  0.00    +0.000 C 
ENDBRANCH  23  24
ENDBRANCH  17  23
ENDBRANCH  16  17
ENDBRANCH  15  16
ENDBRANCH  14  15
ENDBRANCH   1  14
TORSDOF 11
ENDMDL
MODEL 4
REMARK VINA RESULT:      -6.2      1.777      2.319
REMARK  Name = 
REMARK  16 active torsions:
REMARK  status: ('A' for Active; 'I' for Inactive)
REMARK    1  A    between atoms: C_1  and  C_2
REMARK    2  A    between atoms: N_4  and  C_5
REMARK    3  A    between atoms: C_5  and  C_6
REMARK    4  A    between atoms: C_6  and  C_7
REMARK    5  A    between atoms: C_7  and  C_8
REMARK    6  A    between atoms: C_8  and  O_9
REMARK    7  A    between atoms: O_9  and  C_10
REMARK    8  A    between atoms: C_10  and  P_11
REMARK    9  A    between atoms: P_11  and  O_13
REMARK   10  A    between atoms: P_11  and  O_17
REMARK   11  A    between atoms: O_13  and  C_14
REMARK   12  A    between atoms: C_14  and  C_15
REMARK   13  A    between atoms: C_14  and  C_16
REMARK   14  A    between atoms: O_17  and  C_18
REMARK   15  A    between atoms: C_18  and  C_19
REMARK   16  A    between atoms: C_18  and  C_20
REMARK                            x       y       z     vdW  Elec       q    Type
REMARK                         _______ _______ _______ _____ _____    ______ ____
ROOT
ATOM      1  C   UNL     1       2.224   6.147  20.423  0.00  0.00    +0.000 C 
ENDROOT
BRANCH   1   2
ATOM      2  C   UNL     1       2.551   4.977  19.499  0.00  0.00    +0.000 C 
BRANCH   2   3
ATOM      3  C   UNL     1       2.762   5.399  18.041  0.00  0.00    +0.000 C 
BRANCH   3   7
ATOM      4  C   UNL     1       7.368   7.112  17.473  0.00  0.00    +0.000 C 
ATOM      5  C   UNL     1       6.343   6.031  17.404  0.00  0.00    +0.000 A 
ATOM      6  C   UNL     1       5.045   6.205  17.674  0.00  0.00    +0.000 A 
ATOM      7  N   UNL     1       4.139   5.170  17.623  0.00  0.00    +0.000 N 
ATOM      8  C   UNL     1       4.518   3.872  17.277  0.00  0.00    +0.000 A 
ATOM      9  O   UNL     1       3.752   2.913  17.274  0.00  0.00    +0.000 OA
ATOM     10  N   UNL     1       5.830   3.715  16.948  0.00  0.00    +0.000 N 
ATOM     11  C   UNL     1       6.800   4.672  17.031  0.00  0.00    +0.000 A 
ATOM     12  O   UNL     1       7.982   4.423  16.820  0.00  0.00    +0.000 OA
ATOM     13  H   UNL     1       6.129   2.781  16.716  0.00  0.00    +0.000 HD
ENDBRANCH   3   7
ENDBRANCH   2   3
ENDBRANCH   1   2
BRANCH   1  14
ATOM     14  C   UNL     1       2.161   7.459  19.659  0.00  0.00    +0.000 C 
BRANCH  14  15
ATOM     15  O   UNL     1       1.588   8.477  20.479  0.00  0.00    +0.000 OA
BRANCH  15  16
ATOM     16  C   UNL     1       0.782   9.324  19.641  0.00  0.00    +0.000 C 
BRANCH  16  17
ATOM     17  P   UNL     1       0.149  10.709  20.657  0.00  0.00    +0.000 P 
ATOM     18  O   UNL     1       1.259  11.615  20.097  0.00  0.00    +0.000 OA
BRANCH  17  19
ATOM     19  O   UNL     1      -1.199  10.770  19.682  0.00  0.00    +0.000 OA
BRANCH  19  20
ATOM     20  C   UNL     1      -1.129  10.949  18.270  0.00  0.00    +0.000 C 
ATOM     21  C   UNL     1      -2.202  10.161  17.528  0.00  0.00    +0.000 C 
ATOM     22  C   UNL     1      -1.324  12.439  17.964  0.00  0.00    +0.000 C 
ENDBRANCH  19  20
ENDBRANCH  17  19
BRANCH  17  23
ATOM     23  O   UNL     1      -0.449  12.019  21.617  0.00  0.00    +0.000 OA
BRANCH  23  24
ATOM     24  C   UNL     1      -0.897  11.564  22.902  0.00  0.00    +0.000 C 
ATOM     25  C   UNL     1      -2.385  11.845  23.036  0.00  0.00    +0.000 C 
ATOM     26  C   UNL     1      -0.629  10.066  23.069  0.00  0.00    +0.000 C 
ENDBRANCH  23  24
ENDBRANCH  17  23
ENDBRANCH  16  17
ENDBRANCH  15  16
ENDBRANCH  14  15
ENDBRANCH   1  14
TORSDOF 11
ENDMDL
MODEL 5
REMARK VINA RESULT:      -6.2      3.994      8.933
REMARK  Name = 
REMARK  16 active torsions:
REMARK  status: ('A' for Active; 'I' for Inactive)
REMARK    1  A    between atoms: C_1  and  C_2
REMARK    2  A    between atoms: N_4  and  C_5
REMARK    3  A    between atoms: C_5  and  C_6
REMARK    4  A    between atoms: C_6  and  C_7
REMARK    5  A    between atoms: C_7  and  C_8
REMARK    6  A    between atoms: C_8  and  O_9
REMARK    7  A    between atoms: O_9  and  C_10
REMARK    8  A    between atoms: C_10  and  P_11
REMARK    9  A    between atoms: P_11  and  O_13
REMARK   10  A    between atoms: P_11  and  O_17
REMARK   11  A    between atoms: O_13  and  C_14
REMARK   12  A    between atoms: C_14  and  C_15
REMARK   13  A    between atoms: C_14  and  C_16
REMARK   14  A    between atoms: O_17  and  C_18
REMARK   15  A    between atoms: C_18  and  C_19
REMARK   16  A    between atoms: C_18  and  C_20
REMARK                            x       y       z     vdW  Elec       q    Type
REMARK                         _______ _______ _______ _____ _____    ______ ____
ROOT
ATOM      1  C   UNL     1       1.553   9.609  18.112  0.00  0.00    +0.000 C 
ENDROOT
BRANCH   1   2
ATOM      2  C   UNL     1       0.155   9.826  18.684  0.00  0.00    +0.000 C 
BRANCH   2   3
ATOM      3  C   UNL     1      -0.269  11.300  18.700  0.00  0.00    +0.000 C 
BRANCH   3   7
ATOM      4  C   UNL     1      -3.642  10.395  15.196  0.00  0.00    +0.000 C 
ATOM      5  C   UNL     1      -3.221  10.966  16.508  0.00  0.00    +0.000 A 
ATOM      6  C   UNL     1      -1.967  10.943  16.972  0.00  0.00    +0.000 A 
ATOM      7  N   UNL     1      -1.629  11.458  18.203  0.00  0.00    +0.000 N 
ATOM      8  C   UNL     1      -2.577  12.047  19.043  0.00  0.00    +0.000 A 
ATOM      9  O   UNL     1      -2.326  12.467  20.168  0.00  0.00    +0.000 OA
ATOM     10  N   UNL     1      -3.840  12.117  18.540  0.00  0.00    +0.000 N 
ATOM     11  C   UNL     1      -4.267  11.578  17.360  0.00  0.00    +0.000 A 
ATOM     12  O   UNL     1      -5.447  11.590  17.027  0.00  0.00    +0.000 OA
ATOM     13  H   UNL     1      -4.544  12.518  19.139  0.00  0.00    +0.000 HD
ENDBRANCH   3   7
ENDBRANCH   2   3
ENDBRANCH   1   2
BRANCH   1  14
ATOM     14  C   UNL     1       2.157   8.303  18.598  0.00  0.00    +0.000 C 
BRANCH  14  15
ATOM     15  O   UNL     1       1.820   8.086  19.968  0.00  0.00    +0.000 OA
BRANCH  15  16
ATOM     16  C   UNL     1       2.140   6.723  20.297  0.00  0.00    +0.000 C 
BRANCH  16  17
ATOM     17  P   UNL     1       2.751   5.890  18.786  0.00  0.00    +0.000 P 
ATOM     18  O   UNL     1       4.049   5.523  19.525  0.00  0.00    +0.000 OA
BRANCH  17  19
ATOM     19  O   UNL     1       1.601   4.708  19.008  0.00  0.00    +0.000 OA
BRANCH  19  20
ATOM     20  C   UNL     1       1.901   3.423  19.545  0.00  0.00    +0.000 C 
ATOM     21  C   UNL     1       1.244   3.188  20.900  0.00  0.00    +0.000 C 
ATOM     22  C   UNL     1       1.384   2.361  18.566  0.00  0.00    +0.000 C 
ENDBRANCH  19  20
ENDBRANCH  17  19
BRANCH  17  23
ATOM     23  O   UNL     1       3.329   5.103  17.358  0.00  0.00    +0.000 OA
BRANCH  23  24
ATOM     24  C   UNL     1       4.734   5.325  17.170  0.00  0.00    +0.000 C 
ATOM     25  C   UNL     1       5.345   4.103  16.503  0.00  0.00    +0.000 C 
ATOM     26  C   UNL     1       4.974   6.567  16.308  0.00  0.00    +0.000 C 
ENDBRANCH  23  24
ENDBRANCH  17  23
ENDBRANCH  16  17
ENDBRANCH  15  16
ENDBRANCH  14  15
ENDBRANCH   1  14
TORSDOF 11
ENDMDL
MODEL 6
REMARK VINA RESULT:      -6.2      5.715      9.155
REMARK  Name = 
REMARK  16 active torsions:
REMARK  status: ('A' for Active; 'I' for Inactive)
REMARK    1  A    between atoms: C_1  and  C_2
REMARK    2  A    between atoms: N_4  and  C_5
REMARK    3  A    between atoms: C_5  and  C_6
REMARK    4  A    between atoms: C_6  and  C_7
REMARK    5  A    between atoms: C_7  and  C_8
REMARK    6  A    between atoms: C_8  and  O_9
REMARK    7  A    between atoms: O_9  and  C_10
REMARK    8  A    between atoms: C_10  and  P_11
REMARK    9  A    between atoms: P_11  and  O_13
REMARK   10  A    between atoms: P_11  and  O_17
REMARK   11  A    between atoms: O_13  and  C_14
REMARK   12  A    between atoms: C_14  and  C_15
REMARK   13  A    between atoms: C_14  and  C_16
REMARK   14  A    between atoms: O_17  and  C_18
REMARK   15  A    between atoms: C_18  and  C_19
REMARK   16  A    between atoms: C_18  and  C_20
REMARK                            x       y       z     vdW  Elec       q    Type
REMARK                         _______ _______ _______ _____ _____    ______ ____
ROOT
ATOM      1  C   UNL     1       8.213   9.178  17.447  0.00  0.00    +0.000 C 
ENDROOT
BRANCH   1   2
ATOM      2  C   UNL     1       8.820   9.846  18.678  0.00  0.00    +0.000 C 
BRANCH   2   3
ATOM      3  C   UNL     1       9.907  10.871  18.334  0.00  0.00    +0.000 C 
BRANCH   3   7
ATOM      4  C   UNL     1       7.240  14.998  17.755  0.00  0.00    +0.000 C 
ATOM      5  C   UNL     1       8.211  14.147  18.502  0.00  0.00    +0.000 A 
ATOM      6  C   UNL     1       8.665  12.965  18.069  0.00  0.00    +0.000 A 
ATOM      7  N   UNL     1       9.540  12.200  18.806  0.00  0.00    +0.000 N 
ATOM      8  C   UNL     1      10.018  12.615  20.051  0.00  0.00    +0.000 A 
ATOM      9  O   UNL     1      10.755  11.938  20.761  0.00  0.00    +0.000 OA
ATOM     10  N   UNL     1       9.596  13.844  20.458  0.00  0.00    +0.000 N 
ATOM     11  C   UNL     1       8.685  14.635  19.818  0.00  0.00    +0.000 A 
ATOM     12  O   UNL     1       8.275  15.683  20.304  0.00  0.00    +0.000 OA
ATOM     13  H   UNL     1       9.912  14.154  21.363  0.00  0.00    +0.000 HD
ENDBRANCH   3   7
ENDBRANCH   2   3
ENDBRANCH   1   2
BRANCH   1  14
ATOM     14  C   UNL     1       7.653   7.805  17.777  0.00  0.00    +0.000 C 
BRANCH  14  15
ATOM     15  O   UNL     1       8.468   7.167  18.761  0.00  0.00    +0.000 OA
BRANCH  15  16
ATOM     16  C   UNL     1       7.750   6.027  19.265  0.00  0.00    +0.000 C 
BRANCH  16  17
ATOM     17  P   UNL     1       7.037   5.118  17.845  0.00  0.00    +0.000 P 
ATOM     18  O   UNL     1       8.109   4.028  18.016  0.00  0.00    +0.000 OA
BRANCH  17  19
ATOM     19  O   UNL     1       5.701   4.771  18.776  0.00  0.00    +0.000 OA
BRANCH  19  20
ATOM     20  C   UNL     1       4.679   3.870  18.362  0.00  0.00    +0.000 C 
ATOM     21  C   UNL     1       4.441   2.753  19.372  0.00  0.00    +0.000 C 
ATOM     22  C   UNL     1       3.376   4.662  18.201  0.00  0.00    +0.000 C 
ENDBRANCH  19  20
ENDBRANCH  17  19
BRANCH  17  23
ATOM     23  O   UNL     1       6.363   4.258  16.503  0.00  0.00    +0.000 OA
BRANCH  23  24
ATOM     24  C   UNL     1       6.376   5.056  15.311  0.00  0.00    +0.000 C 
ATOM     25  C   UNL     1       6.134   4.157  14.109  0.00  0.00    +0.000 C 
ATOM     26  C   UNL     1       5.300   6.143  15.377  0.00  0.00    +0.000 C 
ENDBRANCH  23  24
ENDBRANCH  17  23
ENDBRANCH  16  17
ENDBRANCH  15  16
ENDBRANCH  14  15
ENDBRANCH   1  14
TORSDOF 11
ENDMDL
MODEL 7
REMARK VINA RESULT:      -6.2      3.805      8.932
REMARK  Name = 
REMARK  16 active torsions:
REMARK  status: ('A' for Active; 'I' for Inactive)
REMARK    1  A    between atoms: C_1  and  C_2
REMARK    2  A    between atoms: N_4  and  C_5
REMARK    3  A    between atoms: C_5  and  C_6
REMARK    4  A    between atoms: C_6  and  C_7
REMARK    5  A    between atoms: C_7  and  C_8
REMARK    6  A    between atoms: C_8  and  O_9
REMARK    7  A    between atoms: O_9  and  C_10
REMARK    8  A    between atoms: C_10  and  P_11
REMARK    9  A    between atoms: P_11  and  O_13
REMARK   10  A    between atoms: P_11  and  O_17
REMARK   11  A    between atoms: O_13  and  C_14
REMARK   12  A    between atoms: C_14  and  C_15
REMARK   13  A    between atoms: C_14  and  C_16
REMARK   14  A    between atoms: O_17  and  C_18
REMARK   15  A    between atoms: C_18  and  C_19
REMARK   16  A    between atoms: C_18  and  C_20
REMARK                            x       y       z     vdW  Elec       q    Type
REMARK                         _______ _______ _______ _____ _____    ______ ____
ROOT
ATOM      1  C   UNL     1       1.989   9.981  18.131  0.00  0.00    +0.000 C 
ENDROOT
BRANCH   1   2
ATOM      2  C   UNL     1       1.052  11.013  18.754  0.00  0.00    +0.000 C 
BRANCH   2   3
ATOM      3  C   UNL     1      -0.234  10.398  19.317  0.00  0.00    +0.000 C 
BRANCH   3   7
ATOM      4  C   UNL     1      -3.082   9.750  15.323  0.00  0.00    +0.000 C 
ATOM      5  C   UNL     1      -2.748  10.421  16.613  0.00  0.00    +0.000 A 
ATOM      6  C   UNL     1      -1.646  10.172  17.329  0.00  0.00    +0.000 A 
ATOM      7  N   UNL     1      -1.393  10.796  18.529  0.00  0.00    +0.000 N 
ATOM      8  C   UNL     1      -2.270  11.738  19.072  0.00  0.00    +0.000 A 
ATOM      9  O   UNL     1      -2.107  12.275  20.163  0.00  0.00    +0.000 OA
ATOM     10  N   UNL     1      -3.361  12.028  18.310  0.00  0.00    +0.000 N 
ATOM     11  C   UNL     1      -3.714  11.412  17.143  0.00  0.00    +0.000 A 
ATOM     12  O   UNL     1      -4.770  11.655  16.571  0.00  0.00    +0.000 OA
ATOM     13  H   UNL     1      -4.018  12.689  18.693  0.00  0.00    +0.000 HD
ENDBRANCH   3   7
ENDBRANCH   2   3
ENDBRANCH   1   2
BRANCH   1  14
ATOM     14  C   UNL     1       1.706   8.584  18.655  0.00  0.00    +0.000 C 
BRANCH  14  15
ATOM     15  O   UNL     1       2.862   7.760  18.505  0.00  0.00    +0.000 OA
BRANCH  15  16
ATOM     16  C   UNL     1       2.425   6.438  18.146  0.00  0.00    +0.000 C 
BRANCH  16  17
ATOM     17  P   UNL     1       3.881   5.329  18.136  0.00  0.00    +0.000 P 
ATOM     18  O   UNL     1       4.154   5.690  19.606  0.00  0.00    +0.000 OA
BRANCH  17  19
ATOM     19  O   UNL     1       2.851   4.025  18.039  0.00  0.00    +0.000 OA
BRANCH  19  20
ATOM     20  C   UNL     1       2.823   2.983  19.010  0.00  0.00    +0.000 C 
ATOM     21  C   UNL     1       1.528   2.971  19.815  0.00  0.00    +0.000 C 
ATOM     22  C   UNL     1       2.951   1.641  18.279  0.00  0.00    +0.000 C 
ENDBRANCH  19  20
ENDBRANCH  17  19
BRANCH  17  23
ATOM     23  O   UNL     1       5.258   4.281  18.127  0.00  0.00    +0.000 OA
BRANCH  23  24
ATOM     24  C   UNL     1       6.025   4.433  16.924  0.00  0.00    +0.000 C 
ATOM     25  C   UNL     1       5.512   5.643  16.159  0.00  0.00    +0.000 C 
ATOM     26  C   UNL     1       7.510   4.609  17.248  0.00  0.00    +0.000 C 
ENDBRANCH  23  24
ENDBRANCH  17  23
ENDBRANCH  16  17
ENDBRANCH  15  16
ENDBRANCH  14  15
ENDBRANCH   1  14
TORSDOF 11
ENDMDL
MODEL 8
REMARK VINA RESULT:      -6.2      1.487      1.980
REMARK  Name = 
REMARK  16 active torsions:
REMARK  status: ('A' for Active; 'I' for Inactive)
REMARK    1  A    between atoms: C_1  and  C_2
REMARK    2  A    between atoms: N_4  and  C_5
REMARK    3  A    between atoms: C_5  and  C_6
REMARK    4  A    between atoms: C_6  and  C_7
REMARK    5  A    between atoms: C_7  and  C_8
REMARK    6  A    between atoms: C_8  and  O_9
REMARK    7  A    between atoms: O_9  and  C_10
REMARK    8  A    between atoms: C_10  and  P_11
REMARK    9  A    between atoms: P_11  and  O_13
REMARK   10  A    between atoms: P_11  and  O_17
REMARK   11  A    between atoms: O_13  and  C_14
REMARK   12  A    between atoms: C_14  and  C_15
REMARK   13  A    between atoms: C_14  and  C_16
REMARK   14  A    between atoms: O_17  and  C_18
REMARK   15  A    between atoms: C_18  and  C_19
REMARK   16  A    between atoms: C_18  and  C_20
REMARK                            x       y       z     vdW  Elec       q    Type
REMARK                         _______ _______ _______ _____ _____    ______ ____
ROOT
ATOM      1  C   UNL     1       2.013   6.500  18.013  0.00  0.00    +0.000 C 
ENDROOT
BRANCH   1   2
ATOM      2  C   UNL     1       2.244   5.240  18.844  0.00  0.00    +0.000 C 
BRANCH   2   3
ATOM      3  C   UNL     1       3.596   5.233  19.567  0.00  0.00    +0.000 C 
BRANCH   3   7
ATOM      4  C   UNL     1       7.643   7.121  17.438  0.00  0.00    +0.000 C 
ATOM      5  C   UNL     1       6.652   6.027  17.654  0.00  0.00    +0.000 A 
ATOM      6  C   UNL     1       5.567   6.136  18.429  0.00  0.00    +0.000 A 
ATOM      7  N   UNL     1       4.694   5.088  18.621  0.00  0.00    +0.000 N 
ATOM      8  C   UNL     1       4.883   3.847  18.011  0.00  0.00    +0.000 A 
ATOM      9  O   UNL     1       4.158   2.875  18.200  0.00  0.00    +0.000 OA
ATOM     10  N   UNL     1       5.958   3.762  17.179  0.00  0.00    +0.000 N 
ATOM     11  C   UNL     1       6.901   4.730  16.982  0.00  0.00    +0.000 A 
ATOM     12  O   UNL     1       7.900   4.538  16.299  0.00  0.00    +0.000 OA
ATOM     13  H   UNL     1       6.124   2.869  16.745  0.00  0.00    +0.000 HD
ENDBRANCH   3   7
ENDBRANCH   2   3
ENDBRANCH   1   2
BRANCH   1  14
ATOM     14  C   UNL     1       2.176   7.757  18.850  0.00  0.00    +0.000 C 
BRANCH  14  15
ATOM     15  O   UNL     1       2.867   8.758  18.103  0.00  0.00    +0.000 OA
BRANCH  15  16
ATOM     16  C   UNL     1       1.963   9.854  17.879  0.00  0.00    +0.000 C 
BRANCH  16  17
ATOM     17  P   UNL     1       0.764   9.908  19.262  0.00  0.00    +0.000 P 
ATOM     18  O   UNL     1       1.225  11.338  19.592  0.00  0.00    +0.000 OA
BRANCH  17  19
ATOM     19  O   UNL     1      -0.473   9.938  18.149  0.00  0.00    +0.000 OA
BRANCH  19  20
ATOM     20  C   UNL     1      -1.720  10.582  18.391  0.00  0.00    +0.000 C 
ATOM     21  C   UNL     1      -1.718  12.042  17.951  0.00  0.00    +0.000 C 
ATOM     22  C   UNL     1      -2.806   9.840  17.602  0.00  0.00    +0.000 C 
ENDBRANCH  19  20
ENDBRANCH  17  19
BRANCH  17  23
ATOM     23  O   UNL     1      -0.368   9.959  20.569  0.00  0.00    +0.000 OA
BRANCH  23  24
ATOM     24  C   UNL     1       0.293  10.156  21.827  0.00  0.00    +0.000 C 
ATOM     25  C   UNL     1      -0.754  10.311  22.918  0.00  0.00    +0.000 C 
ATOM     26  C   UNL     1       1.211   8.974  22.146  0.00  0.00    +0.000 C 
ENDBRANCH  23  24
ENDBRANCH  17  23
ENDBRANCH  16  17
ENDBRANCH  15  16
ENDBRANCH  14  15
ENDBRANCH   1  14
TORSDOF 11
ENDMDL
MODEL 9
REMARK VINA RESULT:      -6.1      5.578      8.073
REMARK  Name = 
REMARK  16 active torsions:
REMARK  status: ('A' for Active; 'I' for Inactive)
REMARK    1  A    between atoms: C_1  and  C_2
REMARK    2  A    between atoms: N_4  and  C_5
REMARK    3  A    between atoms: C_5  and  C_6
REMARK    4  A    between atoms: C_6  and  C_7
REMARK    5  A    between atoms: C_7  and  C_8
REMARK    6  A    between atoms: C_8  and  O_9
REMARK    7  A    between atoms: O_9  and  C_10
REMARK    8  A    between atoms: C_10  and  P_11
REMARK    9  A    between atoms: P_11  and  O_13
REMARK   10  A    between atoms: P_11  and  O_17
REMARK   11  A    between atoms: O_13  and  C_14
REMARK   12  A    between atoms: C_14  and  C_15
REMARK   13  A    between atoms: C_14  and  C_16
REMARK   14  A    between atoms: O_17  and  C_18
REMARK   15  A    between atoms: C_18  and  C_19
REMARK   16  A    between atoms: C_18  and  C_20
REMARK                            x       y       z     vdW  Elec       q    Type
REMARK                         _______ _______ _______ _____ _____    ______ ____
ROOT
ATOM      1  C   UNL     1       7.644   7.550  17.809  0.00  0.00    +0.000 C 
ENDROOT
BRANCH   1   2
ATOM      2  C   UNL     1       8.582   8.754  17.807  0.00  0.00    +0.000 C 
BRANCH   2   3
ATOM      3  C   UNL     1       7.866  10.077  18.101  0.00  0.00    +0.000 C 
BRANCH   3   7
ATOM      4  C   UNL     1      12.333  11.799  19.349  0.00  0.00    +0.000 C 
ATOM      5  C   UNL     1      10.983  11.953  18.734  0.00  0.00    +0.000 A 
ATOM      6  C   UNL     1      10.035  11.009  18.752  0.00  0.00    +0.000 A 
ATOM      7  N   UNL     1       8.811  11.185  18.147  0.00  0.00    +0.000 N 
ATOM      8  C   UNL     1       8.478  12.367  17.482  0.00  0.00    +0.000 A 
ATOM      9  O   UNL     1       7.421  12.541  16.885  0.00  0.00    +0.000 OA
ATOM     10  N   UNL     1       9.427  13.344  17.518  0.00  0.00    +0.000 N 
ATOM     11  C   UNL     1      10.683  13.227  18.041  0.00  0.00    +0.000 A 
ATOM     12  O   UNL     1      11.518  14.119  17.938  0.00  0.00    +0.000 OA
ATOM     13  H   UNL     1       9.215  14.197  17.026  0.00  0.00    +0.000 HD
ENDBRANCH   3   7
ENDBRANCH   2   3
ENDBRANCH   1   2
BRANCH   1  14
ATOM     14  C   UNL     1       8.070   6.514  18.835  0.00  0.00    +0.000 C 
BRANCH  14  15
ATOM     15  O   UNL     1       6.932   5.793  19.306  0.00  0.00    +0.000 OA
BRANCH  15  16
ATOM     16  C   UNL     1       6.505   4.899  18.264  0.00  0.00    +0.000 C 
BRANCH  16  17
ATOM     17  P   UNL     1       4.732   4.521  18.513  0.00  0.00    +0.000 P 
ATOM     18  O   UNL     1       4.663   5.609  19.599  0.00  0.00    +0.000 OA
BRANCH  17  19
ATOM     19  O   UNL     1       4.412   5.173  17.016  0.00  0.00    +0.000 OA
BRANCH  19  20
ATOM     20  C   UNL     1       5.401   5.305  15.999  0.00  0.00    +0.000 C 
ATOM     21  C   UNL     1       5.335   4.182  14.971  0.00  0.00    +0.000 C 
ATOM     22  C   UNL     1       5.171   6.638  15.276  0.00  0.00    +0.000 C 
ENDBRANCH  19  20
ENDBRANCH  17  19
BRANCH  17  23
ATOM     23  O   UNL     1       3.056   4.164  18.750  0.00  0.00    +0.000 OA
BRANCH  23  24
ATOM     24  C   UNL     1       2.851   2.771  19.025  0.00  0.00    +0.000 C 
ATOM     25  C   UNL     1       2.539   2.049  17.724  0.00  0.00    +0.000 C 
ATOM     26  C   UNL     1       4.093   2.161  19.679  0.00  0.00    +0.000 C 
ENDBRANCH  23  24
ENDBRANCH  17  23
ENDBRANCH  16  17
ENDBRANCH  15  16
ENDBRANCH  14  15
ENDBRANCH   1  14
TORSDOF 11
ENDMDL
