MODEL 1
REMARK VINA RESULT:      -6.5      0.000      0.000
REMARK  Name = 
REMARK  11 active torsions:
REMARK  status: ('A' for Active; 'I' for Inactive)
REMARK    1  A    between atoms: C_1  and  O_2
REMARK    2  A    between atoms: O_2  and  N_3
REMARK    3  A    between atoms: C_4  and  C_5
REMARK    4  A    between atoms: C_4  and  C_15
REMARK    5  A    between atoms: C_5  and  C_6
REMARK    6  A    between atoms: C_9  and  O_10
REMARK    7  A    between atoms: O_10  and  C_11
REMARK    8  A    between atoms: N_17  and  C_18
REMARK    9  A    between atoms: C_18  and  C_19
REMARK   10  A    between atoms: C_19  and  S_20
REMARK   11  A    between atoms: S_20  and  C_21
REMARK                            x       y       z     vdW  Elec       q    Type
REMARK                         _______ _______ _______ _____ _____    ______ ____
ROOT
ATOM      1  N   UNL     1       7.333   5.852  15.904  0.00  0.00    +0.000 NA
ATOM      2  C   UNL     1       6.765   6.628  16.789  0.00  0.00    +0.000 C 
ENDROOT
BRANCH   2   3
ATOM      3  C   UNL     1       7.643   7.220  17.899  0.00  0.00    +0.000 C 
ATOM      4  O   UNL     1       7.986   6.526  18.844  0.00  0.00    +0.000 OA
ATOM      5  N   UNL     1       7.970   8.545  17.746  0.00  0.00    +0.000 N 
ATOM      6  H   UNL     1       7.741   8.986  16.859  0.00  0.00    +0.000 HD
BRANCH   5   7
ATOM      7  C   UNL     1       8.792   9.249  18.713  0.00  0.00    +0.000 C 
BRANCH   7   8
ATOM      8  C   UNL     1       9.120  10.690  18.315  0.00  0.00    +0.000 C 
BRANCH   8   9
ATOM      9  S   UNL     1       9.802  11.626  19.731  0.00  0.00    +0.000 S 
ATOM     10  C   UNL     1      11.548  11.606  19.258  0.00  0.00    +0.000 C 
ENDBRANCH   8   9
ENDBRANCH   7   8
ENDBRANCH   5   7
ENDBRANCH   2   3
BRANCH   1  12
ATOM     11  C   UNL     1       6.603   4.059  14.645  0.00  0.00    +0.000 C 
ATOM     12  O   UNL     1       6.394   5.435  14.944  0.00  0.00    +0.000 OA
ENDBRANCH   1  12
BRANCH   2  13
ATOM     13  C   UNL     1       5.311   7.058  16.794  0.00  0.00    +0.000 C 
BRANCH  13  14
ATOM     14  C   UNL     1       4.436   6.390  17.835  0.00  0.00    +0.000 A 
ATOM     15  C   UNL     1       3.296   7.057  18.289  0.00  0.00    +0.000 A 
ATOM     16  C   UNL     1       2.432   6.443  19.201  0.00  0.00    +0.000 A 
ATOM     17  C   UNL     1       2.662   5.143  19.686  0.00  0.00    +0.000 A 
ATOM     18  C   UNL     1       3.811   4.476  19.248  0.00  0.00    +0.000 A 
ATOM     19 BR   UNL     1       4.356   2.714  19.721  0.00  0.00    +0.000 Br
ATOM     20  C   UNL     1       4.689   5.110  18.345  0.00  0.00    +0.000 A 
BRANCH  17  21
ATOM     21  O   UNL     1       1.666   4.763  20.541  0.00  0.00    +0.000 OA
ATOM     22  C   UNL     1       0.814   3.677  20.233  0.00  0.00    +0.000 C 
ENDBRANCH  17  21
ENDBRANCH  13  14
ENDBRANCH   2  13
TORSDOF 8
ENDMDL
MODEL 2
REMARK VINA RESULT:      -6.3      1.661      1.955
REMARK  Name = 
REMARK  11 active torsions:
REMARK  status: ('A' for Active; 'I' for Inactive)
REMARK    1  A    between atoms: C_1  and  O_2
REMARK    2  A    between atoms: O_2  and  N_3
REMARK    3  A    between atoms: C_4  and  C_5
REMARK    4  A    between atoms: C_4  and  C_15
REMARK    5  A    between atoms: C_5  and  C_6
REMARK    6  A    between atoms: C_9  and  O_10
REMARK    7  A    between atoms: O_10  and  C_11
REMARK    8  A    between atoms: N_17  and  C_18
REMARK    9  A    between atoms: C_18  and  C_19
REMARK   10  A    between atoms: C_19  and  S_20
REMARK   11  A    between atoms: S_20  and  C_21
REMARK                            x       y       z     vdW  Elec       q    Type
REMARK                         _______ _______ _______ _____ _____    ______ ____
ROOT
ATOM      1  N   UNL     1       7.291   4.705  16.197  0.00  0.00    +0.000 NA
ATOM      2  C   UNL     1       6.643   5.639  16.840  0.00  0.00    +0.000 C 
ENDROOT
BRANCH   2   3
ATOM      3  C   UNL     1       7.427   6.508  17.833  0.00  0.00    +0.000 C 
ATOM      4  O   UNL     1       7.762   6.051  18.915  0.00  0.00    +0.000 OA
ATOM      5  N   UNL     1       7.684   7.791  17.415  0.00  0.00    +0.000 N 
ATOM      6  H   UNL     1       7.476   8.020  16.447  0.00  0.00    +0.000 HD
BRANCH   5   7
ATOM      7  C   UNL     1       8.413   8.735  18.243  0.00  0.00    +0.000 C 
BRANCH   7   8
ATOM      8  C   UNL     1       8.253  10.193  17.805  0.00  0.00    +0.000 C 
BRANCH   8   9
ATOM      9  S   UNL     1       9.630  11.223  18.429  0.00  0.00    +0.000 S 
ATOM     10  C   UNL     1       9.419  10.920  20.200  0.00  0.00    +0.000 C 
ENDBRANCH   8   9
ENDBRANCH   7   8
ENDBRANCH   5   7
ENDBRANCH   2   3
BRANCH   1  12
ATOM     11  C   UNL     1       6.758   4.404  13.970  0.00  0.00    +0.000 C 
ATOM     12  O   UNL     1       6.432   4.038  15.306  0.00  0.00    +0.000 OA
ENDBRANCH   1  12
BRANCH   2  13
ATOM     13  C   UNL     1       5.182   5.998  16.658  0.00  0.00    +0.000 C 
BRANCH  13  14
ATOM     14  C   UNL     1       4.282   5.687  17.836  0.00  0.00    +0.000 A 
ATOM     15  C   UNL     1       4.309   4.404  18.389  0.00  0.00    +0.000 A 
ATOM     16  C   UNL     1       3.539   4.102  19.516  0.00  0.00    +0.000 A 
ATOM     17  C   UNL     1       2.723   5.062  20.141  0.00  0.00    +0.000 A 
ATOM     18  C   UNL     1       2.678   6.344  19.583  0.00  0.00    +0.000 A 
ATOM     19 BR   UNL     1       1.684   7.834  20.228  0.00  0.00    +0.000 Br
ATOM     20  C   UNL     1       3.440   6.635  18.433  0.00  0.00    +0.000 A 
BRANCH  17  21
ATOM     21  O   UNL     1       2.095   4.528  21.231  0.00  0.00    +0.000 OA
ATOM     22  C   UNL     1       2.234   3.158  21.554  0.00  0.00    +0.000 C 
ENDBRANCH  17  21
ENDBRANCH  13  14
ENDBRANCH   2  13
TORSDOF 8
ENDMDL
MODEL 3
REMARK VINA RESULT:      -6.2      3.953      5.983
REMARK  Name = 
REMARK  11 active torsions:
REMARK  status: ('A' for Active; 'I' for Inactive)
REMARK    1  A    between atoms: C_1  and  O_2
REMARK    2  A    between atoms: O_2  and  N_3
REMARK    3  A    between atoms: C_4  and  C_5
REMARK    4  A    between atoms: C_4  and  C_15
REMARK    5  A    between atoms: C_5  and  C_6
REMARK    6  A    between atoms: C_9  and  O_10
REMARK    7  A    between atoms: O_10  and  C_11
REMARK    8  A    between atoms: N_17  and  C_18
REMARK    9  A    between atoms: C_18  and  C_19
REMARK   10  A    between atoms: C_19  and  S_20
REMARK   11  A    between atoms: S_20  and  C_21
REMARK                            x       y       z     vdW  Elec       q    Type
REMARK                         _______ _______ _______ _____ _____    ______ ____
ROOT
ATOM      1  N   UNL     1       1.899   3.461  19.475  0.00  0.00    +0.000 NA
ATOM      2  C   UNL     1       2.816   4.232  18.955  0.00  0.00    +0.000 C 
ENDROOT
BRANCH   2   3
ATOM      3  C   UNL     1       3.268   3.947  17.516  0.00  0.00    +0.000 C 
ATOM      4  O   UNL     1       2.511   3.387  16.737  0.00  0.00    +0.000 OA
ATOM      5  N   UNL     1       4.547   4.343  17.213  0.00  0.00    +0.000 N 
ATOM      6  H   UNL     1       5.036   4.916  17.895  0.00  0.00    +0.000 HD
BRANCH   5   7
ATOM      7  C   UNL     1       5.120   4.140  15.894  0.00  0.00    +0.000 C 
BRANCH   7   8
ATOM      8  C   UNL     1       6.592   4.549  15.790  0.00  0.00    +0.000 C 
BRANCH   8   9
ATOM      9  S   UNL     1       7.336   4.760  17.448  0.00  0.00    +0.000 S 
ATOM     10  C   UNL     1       7.328   6.567  17.525  0.00  0.00    +0.000 C 
ENDBRANCH   8   9
ENDBRANCH   7   8
ENDBRANCH   5   7
ENDBRANCH   2   3
BRANCH   1  12
ATOM     11  C   UNL     1       1.478   2.759  21.635  0.00  0.00    +0.000 C 
ATOM     12  O   UNL     1       1.581   3.889  20.776  0.00  0.00    +0.000 OA
ENDBRANCH   1  12
BRANCH   2  13
ATOM     13  C   UNL     1       3.449   5.439  19.619  0.00  0.00    +0.000 C 
BRANCH  13  14
ATOM     14  C   UNL     1       2.726   6.754  19.410  0.00  0.00    +0.000 A 
ATOM     15  C   UNL     1       2.775   7.360  18.153  0.00  0.00    +0.000 A 
ATOM     16  C   UNL     1       2.067   8.540  17.908  0.00  0.00    +0.000 A 
ATOM     17  C   UNL     1       1.278   9.156  18.896  0.00  0.00    +0.000 A 
ATOM     18  C   UNL     1       1.238   8.562  20.163  0.00  0.00    +0.000 A 
ATOM     19 BR   UNL     1       0.244   9.163  21.671  0.00  0.00    +0.000 Br
ATOM     20  C   UNL     1       1.973   7.384  20.409  0.00  0.00    +0.000 A 
BRANCH  17  21
ATOM     21  O   UNL     1       0.672  10.277  18.403  0.00  0.00    +0.000 OA
ATOM     22  C   UNL     1      -0.726  10.320  18.196  0.00  0.00    +0.000 C 
ENDBRANCH  17  21
ENDBRANCH  13  14
ENDBRANCH   2  13
TORSDOF 8
ENDMDL
MODEL 4
REMARK VINA RESULT:      -6.2      4.129      6.083
REMARK  Name = 
REMARK  11 active torsions:
REMARK  status: ('A' for Active; 'I' for Inactive)
REMARK    1  A    between atoms: C_1  and  O_2
REMARK    2  A    between atoms: O_2  and  N_3
REMARK    3  A    between atoms: C_4  and  C_5
REMARK    4  A    between atoms: C_4  and  C_15
REMARK    5  A    between atoms: C_5  and  C_6
REMARK    6  A    between atoms: C_9  and  O_10
REMARK    7  A    between atoms: O_10  and  C_11
REMARK    8  A    between atoms: N_17  and  C_18
REMARK    9  A    between atoms: C_18  and  C_19
REMARK   10  A    between atoms: C_19  and  S_20
REMARK   11  A    between atoms: S_20  and  C_21
REMARK                            x       y       z     vdW  Elec       q    Type
REMARK                         _______ _______ _______ _____ _____    ______ ____
ROOT
ATOM      1  N   UNL     1       7.656   4.755  16.971  0.00  0.00    +0.000 NA
ATOM      2  C   UNL     1       6.517   4.537  16.370  0.00  0.00    +0.000 C 
ENDROOT
BRANCH   2   3
ATOM      3  C   UNL     1       6.448   4.761  14.853  0.00  0.00    +0.000 C 
ATOM      4  O   UNL     1       6.273   5.886  14.408  0.00  0.00    +0.000 OA
ATOM      5  N   UNL     1       6.574   3.630  14.086  0.00  0.00    +0.000 N 
ATOM      6  H   UNL     1       6.848   2.771  14.556  0.00  0.00    +0.000 HD
BRANCH   5   7
ATOM      7  C   UNL     1       6.526   3.678  12.636  0.00  0.00    +0.000 C 
BRANCH   7   8
ATOM      8  C   UNL     1       5.303   2.981  12.033  0.00  0.00    +0.000 C 
BRANCH   8   9
ATOM      9  S   UNL     1       5.778   1.424  11.198  0.00  0.00    +0.000 S 
ATOM     10  C   UNL     1       7.540   1.762  10.966  0.00  0.00    +0.000 C 
ENDBRANCH   8   9
ENDBRANCH   7   8
ENDBRANCH   5   7
ENDBRANCH   2   3
BRANCH   1  12
ATOM     11  C   UNL     1       7.778   5.647  19.098  0.00  0.00    +0.000 C 
ATOM     12  O   UNL     1       7.550   4.463  18.343  0.00  0.00    +0.000 OA
ENDBRANCH   1  12
BRANCH   2  13
ATOM     13  C   UNL     1       5.251   4.018  17.021  0.00  0.00    +0.000 C 
BRANCH  13  14
ATOM     14  C   UNL     1       4.375   5.067  17.674  0.00  0.00    +0.000 A 
ATOM     15  C   UNL     1       4.358   6.359  17.145  0.00  0.00    +0.000 A 
ATOM     16  C   UNL     1       3.513   7.334  17.683  0.00  0.00    +0.000 A 
ATOM     17  C   UNL     1       2.648   7.061  18.759  0.00  0.00    +0.000 A 
ATOM     18  C   UNL     1       2.673   5.773  19.305  0.00  0.00    +0.000 A 
ATOM     19 BR   UNL     1       1.604   5.123  20.739  0.00  0.00    +0.000 Br
ATOM     20  C   UNL     1       3.544   4.801  18.770  0.00  0.00    +0.000 A 
BRANCH  17  21
ATOM     21  O   UNL     1       1.914   8.167  19.082  0.00  0.00    +0.000 OA
ATOM     22  C   UNL     1       1.796   9.253  18.185  0.00  0.00    +0.000 C 
ENDBRANCH  17  21
ENDBRANCH  13  14
ENDBRANCH   2  13
TORSDOF 8
ENDMDL
MODEL 5
REMARK VINA RESULT:      -6.2      1.450      1.744
REMARK  Name = 
REMARK  11 active torsions:
REMARK  status: ('A' for Active; 'I' for Inactive)
REMARK    1  A    between atoms: C_1  and  O_2
REMARK    2  A    between atoms: O_2  and  N_3
REMARK    3  A    between atoms: C_4  and  C_5
REMARK    4  A    between atoms: C_4  and  C_15
REMARK    5  A    between atoms: C_5  and  C_6
REMARK    6  A    between atoms: C_9  and  O_10
REMARK    7  A    between atoms: O_10  and  C_11
REMARK    8  A    between atoms: N_17  and  C_18
REMARK    9  A    between atoms: C_18  and  C_19
REMARK   10  A    between atoms: C_19  and  S_20
REMARK   11  A    between atoms: S_20  and  C_21
REMARK                            x       y       z     vdW  Elec       q    Type
REMARK                         _______ _______ _______ _____ _____    ______ ____
ROOT
ATOM      1  N   UNL     1       7.341   5.934  15.679  0.00  0.00    +0.000 NA
ATOM      2  C   UNL     1       6.697   6.565  16.625  0.00  0.00    +0.000 C 
ENDROOT
BRANCH   2   3
ATOM      3  C   UNL     1       7.512   7.145  17.789  0.00  0.00    +0.000 C 
ATOM      4  O   UNL     1       7.724   6.469  18.785  0.00  0.00    +0.000 OA
ATOM      5  N   UNL     1       7.941   8.438  17.619  0.00  0.00    +0.000 N 
ATOM      6  H   UNL     1       7.821   8.856  16.700  0.00  0.00    +0.000 HD
BRANCH   5   7
ATOM      7  C   UNL     1       8.720   9.128  18.631  0.00  0.00    +0.000 C 
BRANCH   7   8
ATOM      8  C   UNL     1       8.698  10.653  18.497  0.00  0.00    +0.000 C 
BRANCH   8   9
ATOM      9  S   UNL     1      10.352  11.299  18.060  0.00  0.00    +0.000 S 
ATOM     10  C   UNL     1      10.939  11.699  19.724  0.00  0.00    +0.000 C 
ENDBRANCH   8   9
ENDBRANCH   7   8
ENDBRANCH   5   7
ENDBRANCH   2   3
BRANCH   1  12
ATOM     11  C   UNL     1       7.071   4.505  13.886  0.00  0.00    +0.000 C 
ATOM     12  O   UNL     1       6.448   5.507  14.681  0.00  0.00    +0.000 OA
ENDBRANCH   1  12
BRANCH   2  13
ATOM     13  C   UNL     1       5.207   6.837  16.661  0.00  0.00    +0.000 C 
BRANCH  13  14
ATOM     14  C   UNL     1       4.360   5.756  17.301  0.00  0.00    +0.000 A 
ATOM     15  C   UNL     1       4.403   4.463  16.775  0.00  0.00    +0.000 A 
ATOM     16  C   UNL     1       3.684   3.428  17.380  0.00  0.00    +0.000 A 
ATOM     17  C   UNL     1       2.906   3.635  18.533  0.00  0.00    +0.000 A 
ATOM     18  C   UNL     1       2.846   4.931  19.056  0.00  0.00    +0.000 A 
ATOM     19 BR   UNL     1       1.895   5.491  20.607  0.00  0.00    +0.000 Br
ATOM     20  C   UNL     1       3.556   5.975  18.427  0.00  0.00    +0.000 A 
BRANCH  17  21
ATOM     21  O   UNL     1       2.325   2.467  18.941  0.00  0.00    +0.000 OA
ATOM     22  C   UNL     1       0.927   2.278  18.855  0.00  0.00    +0.000 C 
ENDBRANCH  17  21
ENDBRANCH  13  14
ENDBRANCH   2  13
TORSDOF 8
ENDMDL
MODEL 6
REMARK VINA RESULT:      -6.1      4.302      6.820
REMARK  Name = 
REMARK  11 active torsions:
REMARK  status: ('A' for Active; 'I' for Inactive)
REMARK    1  A    between atoms: C_1  and  O_2
REMARK    2  A    between atoms: O_2  and  N_3
REMARK    3  A    between atoms: C_4  and  C_5
REMARK    4  A    between atoms: C_4  and  C_15
REMARK    5  A    between atoms: C_5  and  C_6
REMARK    6  A    between atoms: C_9  and  O_10
REMARK    7  A    between atoms: O_10  and  C_11
REMARK    8  A    between atoms: N_17  and  C_18
REMARK    9  A    between atoms: C_18  and  C_19
REMARK   10  A    between atoms: C_19  and  S_20
REMARK   11  A    between atoms: S_20  and  C_21
REMARK                            x       y       z     vdW  Elec       q    Type
REMARK                         _______ _______ _______ _____ _____    ______ ____
ROOT
ATOM      1  N   UNL     1       2.807   4.890  20.526  0.00  0.00    +0.000 NA
ATOM      2  C   UNL     1       2.498   5.687  19.538  0.00  0.00    +0.000 C 
ENDROOT
BRANCH   2   3
ATOM      3  C   UNL     1       2.142   7.142  19.869  0.00  0.00    +0.000 C 
ATOM      4  O   UNL     1       2.260   8.010  19.018  0.00  0.00    +0.000 OA
ATOM      5  N   UNL     1       1.718   7.365  21.156  0.00  0.00    +0.000 N 
ATOM      6  H   UNL     1       1.532   6.551  21.737  0.00  0.00    +0.000 HD
BRANCH   5   7
ATOM      7  C   UNL     1       1.348   8.688  21.623  0.00  0.00    +0.000 C 
BRANCH   7   8
ATOM      8  C   UNL     1      -0.126   9.034  21.395  0.00  0.00    +0.000 C 
BRANCH   8   9
ATOM      9  S   UNL     1      -0.306  10.708  20.679  0.00  0.00    +0.000 S 
ATOM     10  C   UNL     1      -0.620  10.239  18.960  0.00  0.00    +0.000 C 
ENDBRANCH   8   9
ENDBRANCH   7   8
ENDBRANCH   5   7
ENDBRANCH   2   3
BRANCH   1  12
ATOM     11  C   UNL     1       2.181   2.667  20.493  0.00  0.00    +0.000 C 
ATOM     12  O   UNL     1       3.142   3.614  20.039  0.00  0.00    +0.000 OA
ENDBRANCH   1  12
BRANCH   2  13
ATOM     13  C   UNL     1       2.512   5.328  18.065  0.00  0.00    +0.000 C 
BRANCH  13  14
ATOM     14  C   UNL     1       3.884   5.241  17.427  0.00  0.00    +0.000 A 
ATOM     15  C   UNL     1       4.128   4.241  16.483  0.00  0.00    +0.000 A 
ATOM     16  C   UNL     1       5.361   4.171  15.828  0.00  0.00    +0.000 A 
ATOM     17  C   UNL     1       6.392   5.095  16.078  0.00  0.00    +0.000 A 
ATOM     18  C   UNL     1       6.159   6.089  17.035  0.00  0.00    +0.000 A 
ATOM     19 BR   UNL     1       7.359   7.472  17.556  0.00  0.00    +0.000 Br
ATOM     20  C   UNL     1       4.921   6.139  17.708  0.00  0.00    +0.000 A 
BRANCH  17  21
ATOM     21  O   UNL     1       7.481   4.828  15.298  0.00  0.00    +0.000 OA
ATOM     22  C   UNL     1       7.370   4.748  13.891  0.00  0.00    +0.000 C 
ENDBRANCH  17  21
ENDBRANCH  13  14
ENDBRANCH   2  13
TORSDOF 8
ENDMDL
MODEL 7
REMARK VINA RESULT:      -6.1      1.442      1.684
REMARK  Name = 
REMARK  11 active torsions:
REMARK  status: ('A' for Active; 'I' for Inactive)
REMARK    1  A    between atoms: C_1  and  O_2
REMARK    2  A    between atoms: O_2  and  N_3
REMARK    3  A    between atoms: C_4  and  C_5
REMARK    4  A    between atoms: C_4  and  C_15
REMARK    5  A    between atoms: C_5  and  C_6
REMARK    6  A    between atoms: C_9  and  O_10
REMARK    7  A    between atoms: O_10  and  C_11
REMARK    8  A    between atoms: N_17  and  C_18
REMARK    9  A    between atoms: C_18  and  C_19
REMARK   10  A    between atoms: C_19  and  S_20
REMARK   11  A    between atoms: S_20  and  C_21
REMARK                            x       y       z     vdW  Elec       q    Type
REMARK                         _______ _______ _______ _____ _____    ______ ____
ROOT
ATOM      1  N   UNL     1       7.432   6.175  15.955  0.00  0.00    +0.000 NA
ATOM      2  C   UNL     1       6.884   6.784  16.973  0.00  0.00    +0.000 C 
ENDROOT
BRANCH   2   3
ATOM      3  C   UNL     1       7.804   7.520  17.955  0.00  0.00    +0.000 C 
ATOM      4  O   UNL     1       8.327   6.913  18.878  0.00  0.00    +0.000 OA
ATOM      5  N   UNL     1       7.959   8.864  17.720  0.00  0.00    +0.000 N 
ATOM      6  H   UNL     1       7.586   9.235  16.850  0.00  0.00    +0.000 HD
BRANCH   5   7
ATOM      7  C   UNL     1       8.796   9.699  18.562  0.00  0.00    +0.000 C 
BRANCH   7   8
ATOM      8  C   UNL     1       8.932  11.140  18.065  0.00  0.00    +0.000 C 
BRANCH   8   9
ATOM      9  S   UNL     1       9.844  12.170  19.272  0.00  0.00    +0.000 S 
ATOM     10  C   UNL     1      11.512  11.540  18.966  0.00  0.00    +0.000 C 
ENDBRANCH   8   9
ENDBRANCH   7   8
ENDBRANCH   5   7
ENDBRANCH   2   3
BRANCH   1  12
ATOM     11  C   UNL     1       7.066   4.863  14.091  0.00  0.00    +0.000 C 
ATOM     12  O   UNL     1       6.444   5.591  15.143  0.00  0.00    +0.000 OA
ENDBRANCH   1  12
BRANCH   2  13
ATOM     13  C   UNL     1       5.398   6.888  17.254  0.00  0.00    +0.000 C 
BRANCH  13  14
ATOM     14  C   UNL     1       4.787   5.708  17.983  0.00  0.00    +0.000 A 
ATOM     15  C   UNL     1       5.513   5.095  19.006  0.00  0.00    +0.000 A 
ATOM     16  C   UNL     1       4.954   4.046  19.741  0.00  0.00    +0.000 A 
ATOM     17  C   UNL     1       3.651   3.574  19.496  0.00  0.00    +0.000 A 
ATOM     18  C   UNL     1       2.924   4.174  18.461  0.00  0.00    +0.000 A 
ATOM     19 BR   UNL     1       1.146   3.754  17.927  0.00  0.00    +0.000 Br
ATOM     20  C   UNL     1       3.504   5.216  17.709  0.00  0.00    +0.000 A 
BRANCH  17  21
ATOM     21  O   UNL     1       3.331   2.565  20.360  0.00  0.00    +0.000 OA
ATOM     22  C   UNL     1       2.462   2.788  21.452  0.00  0.00    +0.000 C 
ENDBRANCH  17  21
ENDBRANCH  13  14
ENDBRANCH   2  13
TORSDOF 8
ENDMDL
MODEL 8
REMARK VINA RESULT:      -6.1      1.770      2.137
REMARK  Name = 
REMARK  11 active torsions:
REMARK  status: ('A' for Active; 'I' for Inactive)
REMARK    1  A    between atoms: C_1  and  O_2
REMARK    2  A    between atoms: O_2  and  N_3
REMARK    3  A    between atoms: C_4  and  C_5
REMARK    4  A    between atoms: C_4  and  C_15
REMARK    5  A    between atoms: C_5  and  C_6
REMARK    6  A    between atoms: C_9  and  O_10
REMARK    7  A    between atoms: O_10  and  C_11
REMARK    8  A    between atoms: N_17  and  C_18
REMARK    9  A    between atoms: C_18  and  C_19
REMARK   10  A    between atoms: C_19  and  S_20
REMARK   11  A    between atoms: S_20  and  C_21
REMARK                            x       y       z     vdW  Elec       q    Type
REMARK                         _______ _______ _______ _____ _____    ______ ____
ROOT
ATOM      1  N   UNL     1       7.401   5.818  15.602  0.00  0.00    +0.000 NA
ATOM      2  C   UNL     1       7.018   6.007  16.837  0.00  0.00    +0.000 C 
ENDROOT
BRANCH   2   3
ATOM      3  C   UNL     1       6.888   7.451  17.340  0.00  0.00    +0.000 C 
ATOM      4  O   UNL     1       5.783   7.955  17.474  0.00  0.00    +0.000 OA
ATOM      5  N   UNL     1       8.075   8.094  17.591  0.00  0.00    +0.000 N 
ATOM      6  H   UNL     1       8.925   7.537  17.572  0.00  0.00    +0.000 HD
BRANCH   5   7
ATOM      7  C   UNL     1       8.118   9.464  18.069  0.00  0.00    +0.000 C 
BRANCH   7   8
ATOM      8  C   UNL     1       9.238   9.732  19.078  0.00  0.00    +0.000 C 
BRANCH   8   9
ATOM      9  S   UNL     1       9.354  11.515  19.474  0.00  0.00    +0.000 S 
ATOM     10  C   UNL     1       9.179  12.180  17.801  0.00  0.00    +0.000 C 
ENDBRANCH   8   9
ENDBRANCH   7   8
ENDBRANCH   5   7
ENDBRANCH   2   3
BRANCH   1  12
ATOM     11  C   UNL     1       6.663   4.203  14.126  0.00  0.00    +0.000 C 
ATOM     12  O   UNL     1       7.427   4.445  15.302  0.00  0.00    +0.000 OA
ENDBRANCH   1  12
BRANCH   2  13
ATOM     13  C   UNL     1       6.626   4.925  17.823  0.00  0.00    +0.000 C 
BRANCH  13  14
ATOM     14  C   UNL     1       5.143   4.623  17.907  0.00  0.00    +0.000 A 
ATOM     15  C   UNL     1       4.579   3.743  16.980  0.00  0.00    +0.000 A 
ATOM     16  C   UNL     1       3.228   3.393  17.068  0.00  0.00    +0.000 A 
ATOM     17  C   UNL     1       2.392   3.894  18.081  0.00  0.00    +0.000 A 
ATOM     18  C   UNL     1       2.947   4.789  19.003  0.00  0.00    +0.000 A 
ATOM     19 BR   UNL     1       2.060   5.601  20.478  0.00  0.00    +0.000 Br
ATOM     20  C   UNL     1       4.304   5.155  18.895  0.00  0.00    +0.000 A 
BRANCH  17  21
ATOM     21  O   UNL     1       1.130   3.385  17.963  0.00  0.00    +0.000 OA
ATOM     22  C   UNL     1       0.679   2.345  18.809  0.00  0.00    +0.000 C 
ENDBRANCH  17  21
ENDBRANCH  13  14
ENDBRANCH   2  13
TORSDOF 8
ENDMDL
MODEL 9
REMARK VINA RESULT:      -5.9      4.266      5.891
REMARK  Name = 
REMARK  11 active torsions:
REMARK  status: ('A' for Active; 'I' for Inactive)
REMARK    1  A    between atoms: C_1  and  O_2
REMARK    2  A    between atoms: O_2  and  N_3
REMARK    3  A    between atoms: C_4  and  C_5
REMARK    4  A    between atoms: C_4  and  C_15
REMARK    5  A    between atoms: C_5  and  C_6
REMARK    6  A    between atoms: C_9  and  O_10
REMARK    7  A    between atoms: O_10  and  C_11
REMARK    8  A    between atoms: N_17  and  C_18
REMARK    9  A    between atoms: C_18  and  C_19
REMARK   10  A    between atoms: C_19  and  S_20
REMARK   11  A    between atoms: S_20  and  C_21
REMARK                            x       y       z     vdW  Elec       q    Type
REMARK                         _______ _______ _______ _____ _____    ______ ____
ROOT
ATOM      1  N   UNL     1       2.778   3.768  18.119  0.00  0.00    +0.000 NA
ATOM      2  C   UNL     1       3.375   4.538  18.988  0.00  0.00    +0.000 C 
ENDROOT
BRANCH   2   3
ATOM      3  C   UNL     1       4.883   4.773  18.829  0.00  0.00    +0.000 C 
ATOM      4  O   UNL     1       5.492   5.430  19.660  0.00  0.00    +0.000 OA
ATOM      5  N   UNL     1       5.449   4.217  17.708  0.00  0.00    +0.000 N 
ATOM      6  H   UNL     1       4.876   3.581  17.158  0.00  0.00    +0.000 HD
BRANCH   5   7
ATOM      7  C   UNL     1       6.864   4.352  17.415  0.00  0.00    +0.000 C 
BRANCH   7   8
ATOM      8  C   UNL     1       7.161   5.203  16.177  0.00  0.00    +0.000 C 
BRANCH   8   9
ATOM      9  S   UNL     1       5.719   5.255  15.053  0.00  0.00    +0.000 S 
ATOM     10  C   UNL     1       6.201   3.925  13.926  0.00  0.00    +0.000 C 
ENDBRANCH   8   9
ENDBRANCH   7   8
ENDBRANCH   5   7
ENDBRANCH   2   3
BRANCH   1  12
ATOM     11  C   UNL     1       1.048   2.354  18.702  0.00  0.00    +0.000 C 
ATOM     12  O   UNL     1       1.400   3.697  18.392  0.00  0.00    +0.000 OA
ENDBRANCH   1  12
BRANCH   2  13
ATOM     13  C   UNL     1       2.706   5.285  20.125  0.00  0.00    +0.000 C 
BRANCH  13  14
ATOM     14  C   UNL     1       2.282   6.706  19.814  0.00  0.00    +0.000 A 
ATOM     15  C   UNL     1       2.539   7.225  18.543  0.00  0.00    +0.000 A 
ATOM     16  C   UNL     1       2.104   8.509  18.201  0.00  0.00    +0.000 A 
ATOM     17  C   UNL     1       1.392   9.320  19.103  0.00  0.00    +0.000 A 
ATOM     18  C   UNL     1       1.146   8.812  20.383  0.00  0.00    +0.000 A 
ATOM     19 BR   UNL     1       0.195   9.676  21.788  0.00  0.00    +0.000 Br
ATOM     20  C   UNL     1       1.607   7.525  20.727  0.00  0.00    +0.000 A 
BRANCH  17  21
ATOM     21  O   UNL     1       1.062  10.513  18.524  0.00  0.00    +0.000 OA
ATOM     22  C   UNL     1       2.054  11.470  18.206  0.00  0.00    +0.000 C 
ENDBRANCH  17  21
ENDBRANCH  13  14
ENDBRANCH   2  13
TORSDOF 8
ENDMDL
