MODEL 1
REMARK VINA RESULT:      -7.5      0.000      0.000
REMARK  Name = 
REMARK  14 active torsions:
REMARK  status: ('A' for Active; 'I' for Inactive)
REMARK    1  A    between atoms: C_1  and  C_2
REMARK    2  A    between atoms: C_2  and  C_3
REMARK    3  A    between atoms: C_2  and  C_4
REMARK    4  A    between atoms: C_8  and  C_9
REMARK    5  A    between atoms: C_9  and  C_10
REMARK    6  A    between atoms: C_9  and  C_11
REMARK    7  A    between atoms: C_12  and  N_13
REMARK    8  A    between atoms: N_16  and  C_17
REMARK    9  A    between atoms: C_17  and  C_18
REMARK   10  A    between atoms: C_18  and  C_19
REMARK   11  A    between atoms: C_22  and  N_23
REMARK   12  A    between atoms: N_23  and  C_24
REMARK   13  A    between atoms: N_23  and  C_25
REMARK   14  A    between atoms: C_27  and  C_28
REMARK                            x       y       z     vdW  Elec       q    Type
REMARK                         _______ _______ _______ _____ _____    ______ ____
ROOT
ATOM      1  C   UNL     1       1.842   9.534  19.225  0.00  0.00    +0.000 C 
ENDROOT
BRANCH   1   5
ATOM      2  N   UNL     1       2.359   6.257  17.685  0.00  0.00    +0.000 N 
ATOM      3  C   UNL     1       2.539   7.224  18.663  0.00  0.00    +0.000 C 
ATOM      4  O   UNL     1       3.245   7.129  19.659  0.00  0.00    +0.000 OA
ATOM      5  N   UNL     1       1.778   8.348  18.368  0.00  0.00    +0.000 N 
ATOM      6  H   UNL     1       1.398   6.248  17.383  0.00  0.00    +0.000 HD
ATOM      7  H   UNL     1       1.709   8.497  17.374  0.00  0.00    +0.000 HD
BRANCH   2  13
ATOM      8  C   UNL     1       2.449   3.894  18.441  0.00  0.00    +0.000 A 
ATOM      9  C   UNL     1       3.151   2.670  18.462  0.00  0.00    +0.000 A 
ATOM     10  C   UNL     1       4.372   2.522  17.821  0.00  0.00    +0.000 A 
ATOM     11  C   UNL     1       4.927   3.601  17.152  0.00  0.00    +0.000 A 
ATOM     12  C   UNL     1       4.264   4.843  17.071  0.00  0.00    +0.000 A 
ATOM     13  C   UNL     1       3.004   4.985  17.714  0.00  0.00    +0.000 A 
BRANCH   8  15
ATOM     14  C   UNL     1       0.350   2.701  19.209  0.00  0.00    +0.000 C 
ATOM     15  C   UNL     1       1.186   3.984  19.298  0.00  0.00    +0.000 C 
ATOM     16  C   UNL     1       1.529   4.282  20.768  0.00  0.00    +0.000 C 
ENDBRANCH   8  15
BRANCH  12  17
ATOM     17  C   UNL     1       4.945   5.975  16.297  0.00  0.00    +0.000 C 
ATOM     18  C   UNL     1       5.933   6.713  17.206  0.00  0.00    +0.000 C 
ATOM     19  C   UNL     1       5.663   5.527  15.013  0.00  0.00    +0.000 C 
ENDBRANCH  12  17
ENDBRANCH   2  13
ENDBRANCH   1   5
BRANCH   1  20
ATOM     20  C   UNL     1       0.571   9.833  20.094  0.00  0.00    +0.000 C 
ATOM     21  C   UNL     1       0.123   8.654  21.004  0.00  0.00    +0.000 C 
ATOM     22  C   UNL     1      -0.673   9.279  22.148  0.00  0.00    +0.000 C 
ATOM     23  C   UNL     1      -0.134  10.694  22.305  0.00  0.00    +0.000 C 
ATOM     24  C   UNL     1       0.948  10.840  21.231  0.00  0.00    +0.000 C 
BRANCH  20  25
ATOM     25  C   UNL     1      -0.594  10.316  19.166  0.00  0.00    +0.000 A 
ATOM     26  C   UNL     1      -1.621   9.417  18.809  0.00  0.00    +0.000 A 
ATOM     27  C   UNL     1      -2.680   9.748  17.940  0.00  0.00    +0.000 A 
ATOM     28  C   UNL     1      -2.822  11.012  17.379  0.00  0.00    +0.000 A 
ATOM     29  C   UNL     1      -1.835  11.925  17.766  0.00  0.00    +0.000 A 
ATOM     30  C   UNL     1      -0.729  11.623  18.631  0.00  0.00    +0.000 A 
BRANCH  30  31
ATOM     31  C   UNL     1       0.191  12.815  18.840  0.00  0.00    +0.000 C 
ATOM     32  F   UNL     1       1.515  12.614  18.618  0.00  0.00    +0.000 F 
ATOM     33  F   UNL     1      -0.152  13.862  18.032  0.00  0.00    +0.000 F 
ATOM     34  F   UNL     1       0.113  13.301  20.113  0.00  0.00    +0.000 F 
ENDBRANCH  30  31
BRANCH  28  35
ATOM     35  N   UNL     1      -3.820  11.311  16.466  0.00  0.00    +0.000 N 
ATOM     36  C   UNL     1      -3.833  10.732  15.121  0.00  0.00    +0.000 C 
ATOM     37  C   UNL     1      -5.095  11.900  16.871  0.00  0.00    +0.000 C 
ENDBRANCH  28  35
ENDBRANCH  20  25
ENDBRANCH   1  20
TORSDOF 8
ENDMDL
MODEL 2
REMARK VINA RESULT:      -7.5      0.135      2.922
REMARK  Name = 
REMARK  14 active torsions:
REMARK  status: ('A' for Active; 'I' for Inactive)
REMARK    1  A    between atoms: C_1  and  C_2
REMARK    2  A    between atoms: C_2  and  C_3
REMARK    3  A    between atoms: C_2  and  C_4
REMARK    4  A    between atoms: C_8  and  C_9
REMARK    5  A    between atoms: C_9  and  C_10
REMARK    6  A    between atoms: C_9  and  C_11
REMARK    7  A    between atoms: C_12  and  N_13
REMARK    8  A    between atoms: N_16  and  C_17
REMARK    9  A    between atoms: C_17  and  C_18
REMARK   10  A    between atoms: C_18  and  C_19
REMARK   11  A    between atoms: C_22  and  N_23
REMARK   12  A    between atoms: N_23  and  C_24
REMARK   13  A    between atoms: N_23  and  C_25
REMARK   14  A    between atoms: C_27  and  C_28
REMARK                            x       y       z     vdW  Elec       q    Type
REMARK                         _______ _______ _______ _____ _____    ______ ____
ROOT
ATOM      1  C   UNL     1       1.810   9.534  19.193  0.00  0.00    +0.000 C 
ENDROOT
BRANCH   1   5
ATOM      2  N   UNL     1       2.358   6.235  17.714  0.00  0.00    +0.000 N 
ATOM      3  C   UNL     1       2.577   7.245  18.639  0.00  0.00    +0.000 C 
ATOM      4  O   UNL     1       3.380   7.224  19.563  0.00  0.00    +0.000 OA
ATOM      5  N   UNL     1       1.729   8.316  18.384  0.00  0.00    +0.000 N 
ATOM      6  H   UNL     1       1.374   6.164  17.507  0.00  0.00    +0.000 HD
ATOM      7  H   UNL     1       1.557   8.425  17.397  0.00  0.00    +0.000 HD
BRANCH   2  13
ATOM      8  C   UNL     1       4.317   4.867  17.039  0.00  0.00    +0.000 A 
ATOM      9  C   UNL     1       4.960   3.610  17.050  0.00  0.00    +0.000 A 
ATOM     10  C   UNL     1       4.394   2.510  17.676  0.00  0.00    +0.000 A 
ATOM     11  C   UNL     1       3.162   2.636  18.298  0.00  0.00    +0.000 A 
ATOM     12  C   UNL     1       2.481   3.870  18.347  0.00  0.00    +0.000 A 
ATOM     13  C   UNL     1       3.072   5.000  17.719  0.00  0.00    +0.000 A 
BRANCH   8  15
ATOM     14  C   UNL     1       5.960   6.795  17.022  0.00  0.00    +0.000 C 
ATOM     15  C   UNL     1       4.962   5.970  16.200  0.00  0.00    +0.000 C 
ATOM     16  C   UNL     1       5.662   5.389  14.959  0.00  0.00    +0.000 C 
ENDBRANCH   8  15
BRANCH  12  17
ATOM     17  C   UNL     1       1.131   3.921  19.069  0.00  0.00    +0.000 C 
ATOM     18  C   UNL     1       0.427   2.565  18.963  0.00  0.00    +0.000 C 
ATOM     19  C   UNL     1       1.215   4.343  20.545  0.00  0.00    +0.000 C 
ENDBRANCH  12  17
ENDBRANCH   2  13
ENDBRANCH   1   5
BRANCH   1  20
ATOM     20  C   UNL     1       0.551   9.874  20.066  0.00  0.00    +0.000 C 
ATOM     21  C   UNL     1       0.095   8.725  21.010  0.00  0.00    +0.000 C 
ATOM     22  C   UNL     1      -0.681   9.391  22.144  0.00  0.00    +0.000 C 
ATOM     23  C   UNL     1      -0.120  10.801  22.260  0.00  0.00    +0.000 C 
ATOM     24  C   UNL     1       0.953  10.905  21.172  0.00  0.00    +0.000 C 
BRANCH  20  25
ATOM     25  C   UNL     1      -0.615  10.350  19.135  0.00  0.00    +0.000 A 
ATOM     26  C   UNL     1      -1.635   9.443  18.775  0.00  0.00    +0.000 A 
ATOM     27  C   UNL     1      -2.695   9.768  17.905  0.00  0.00    +0.000 A 
ATOM     28  C   UNL     1      -2.844  11.032  17.344  0.00  0.00    +0.000 A 
ATOM     29  C   UNL     1      -1.865  11.951  17.735  0.00  0.00    +0.000 A 
ATOM     30  C   UNL     1      -0.758  11.656  18.601  0.00  0.00    +0.000 A 
BRANCH  30  31
ATOM     31  C   UNL     1       0.153  12.855  18.814  0.00  0.00    +0.000 C 
ATOM     32  F   UNL     1       0.247  13.335  20.080  0.00  0.00    +0.000 F 
ATOM     33  F   UNL     1       1.438  12.582  18.439  0.00  0.00    +0.000 F 
ATOM     34  F   UNL     1      -0.226  13.923  18.054  0.00  0.00    +0.000 F 
ENDBRANCH  30  31
BRANCH  28  35
ATOM     35  N   UNL     1      -3.842  11.324  16.430  0.00  0.00    +0.000 N 
ATOM     36  C   UNL     1      -3.833  10.771  15.074  0.00  0.00    +0.000 C 
ATOM     37  C   UNL     1      -5.134  11.876  16.836  0.00  0.00    +0.000 C 
ENDBRANCH  28  35
ENDBRANCH  20  25
ENDBRANCH   1  20
TORSDOF 8
ENDMDL
MODEL 3
REMARK VINA RESULT:      -7.4      2.129      4.128
REMARK  Name = 
REMARK  14 active torsions:
REMARK  status: ('A' for Active; 'I' for Inactive)
REMARK    1  A    between atoms: C_1  and  C_2
REMARK    2  A    between atoms: C_2  and  C_3
REMARK    3  A    between atoms: C_2  and  C_4
REMARK    4  A    between atoms: C_8  and  C_9
REMARK    5  A    between atoms: C_9  and  C_10
REMARK    6  A    between atoms: C_9  and  C_11
REMARK    7  A    between atoms: C_12  and  N_13
REMARK    8  A    between atoms: N_16  and  C_17
REMARK    9  A    between atoms: C_17  and  C_18
REMARK   10  A    between atoms: C_18  and  C_19
REMARK   11  A    between atoms: C_22  and  N_23
REMARK   12  A    between atoms: N_23  and  C_24
REMARK   13  A    between atoms: N_23  and  C_25
REMARK   14  A    between atoms: C_27  and  C_28
REMARK                            x       y       z     vdW  Elec       q    Type
REMARK                         _______ _______ _______ _____ _____    ______ ____
ROOT
ATOM      1  C   UNL     1       1.601   8.900  19.589  0.00  0.00    +0.000 C 
ENDROOT
BRANCH   1   5
ATOM      2  N   UNL     1       3.273   5.650  19.704  0.00  0.00    +0.000 N 
ATOM      3  C   UNL     1       2.499   6.640  19.117  0.00  0.00    +0.000 C 
ATOM      4  O   UNL     1       1.965   6.591  18.016  0.00  0.00    +0.000 OA
ATOM      5  N   UNL     1       2.415   7.741  19.961  0.00  0.00    +0.000 N 
ATOM      6  H   UNL     1       4.045   6.064  20.200  0.00  0.00    +0.000 HD
ATOM      7  H   UNL     1       2.414   7.465  20.930  0.00  0.00    +0.000 HD
BRANCH   2  13
ATOM      8  C   UNL     1       4.606   4.265  18.131  0.00  0.00    +0.000 A 
ATOM      9  C   UNL     1       4.808   3.011  17.518  0.00  0.00    +0.000 A 
ATOM     10  C   UNL     1       3.987   1.928  17.791  0.00  0.00    +0.000 A 
ATOM     11  C   UNL     1       2.933   2.076  18.679  0.00  0.00    +0.000 A 
ATOM     12  C   UNL     1       2.694   3.294  19.346  0.00  0.00    +0.000 A 
ATOM     13  C   UNL     1       3.549   4.398  19.076  0.00  0.00    +0.000 A 
BRANCH   8  15
ATOM     14  C   UNL     1       6.974   5.104  17.799  0.00  0.00    +0.000 C 
ATOM     15  C   UNL     1       5.481   5.423  17.650  0.00  0.00    +0.000 C 
ATOM     16  C   UNL     1       5.168   5.787  16.187  0.00  0.00    +0.000 C 
ENDBRANCH   8  15
BRANCH  12  17
ATOM     17  C   UNL     1       1.516   3.364  20.322  0.00  0.00    +0.000 C 
ATOM     18  C   UNL     1       0.245   2.836  19.650  0.00  0.00    +0.000 C 
ATOM     19  C   UNL     1       1.744   2.619  21.648  0.00  0.00    +0.000 C 
ENDBRANCH  12  17
ENDBRANCH   2  13
ENDBRANCH   1   5
BRANCH   1  20
ATOM     20  C   UNL     1       0.726   9.530  20.729  0.00  0.00    +0.000 C 
ATOM     21  C   UNL     1      -0.524   8.690  21.117  0.00  0.00    +0.000 C 
ATOM     22  C   UNL     1      -0.878   9.091  22.547  0.00  0.00    +0.000 C 
ATOM     23  C   UNL     1       0.426   9.548  23.186  0.00  0.00    +0.000 C 
ATOM     24  C   UNL     1       1.488   9.409  22.091  0.00  0.00    +0.000 C 
BRANCH  20  25
ATOM     25  C   UNL     1       0.335  10.994  20.338  0.00  0.00    +0.000 A 
ATOM     26  C   UNL     1       0.812  12.075  21.110  0.00  0.00    +0.000 A 
ATOM     27  C   UNL     1       0.472  13.420  20.862  0.00  0.00    +0.000 A 
ATOM     28  C   UNL     1      -0.347  13.804  19.807  0.00  0.00    +0.000 A 
ATOM     29  C   UNL     1      -0.786  12.744  19.007  0.00  0.00    +0.000 A 
ATOM     30  C   UNL     1      -0.480  11.359  19.236  0.00  0.00    +0.000 A 
BRANCH  30  31
ATOM     31  C   UNL     1      -1.128  10.441  18.211  0.00  0.00    +0.000 C 
ATOM     32  F   UNL     1      -1.772  11.037  17.176  0.00  0.00    +0.000 F 
ATOM     33  F   UNL     1      -0.211   9.611  17.630  0.00  0.00    +0.000 F 
ATOM     34  F   UNL     1      -2.053   9.616  18.780  0.00  0.00    +0.000 F 
ENDBRANCH  30  31
BRANCH  28  35
ATOM     35  N   UNL     1      -0.741  15.118  19.614  0.00  0.00    +0.000 N 
ATOM     36  C   UNL     1      -1.731  15.762  20.479  0.00  0.00    +0.000 C 
ATOM     37  C   UNL     1       0.041  16.055  18.808  0.00  0.00    +0.000 C 
ENDBRANCH  28  35
ENDBRANCH  20  25
ENDBRANCH   1  20
TORSDOF 8
ENDMDL
MODEL 4
REMARK VINA RESULT:      -7.3      0.795      3.070
REMARK  Name = 
REMARK  14 active torsions:
REMARK  status: ('A' for Active; 'I' for Inactive)
REMARK    1  A    between atoms: C_1  and  C_2
REMARK    2  A    between atoms: C_2  and  C_3
REMARK    3  A    between atoms: C_2  and  C_4
REMARK    4  A    between atoms: C_8  and  C_9
REMARK    5  A    between atoms: C_9  and  C_10
REMARK    6  A    between atoms: C_9  and  C_11
REMARK    7  A    between atoms: C_12  and  N_13
REMARK    8  A    between atoms: N_16  and  C_17
REMARK    9  A    between atoms: C_17  and  C_18
REMARK   10  A    between atoms: C_18  and  C_19
REMARK   11  A    between atoms: C_22  and  N_23
REMARK   12  A    between atoms: N_23  and  C_24
REMARK   13  A    between atoms: N_23  and  C_25
REMARK   14  A    between atoms: C_27  and  C_28
REMARK                            x       y       z     vdW  Elec       q    Type
REMARK                         _______ _______ _______ _____ _____    ______ ____
ROOT
ATOM      1  C   UNL     1       1.543   9.521  19.373  0.00  0.00    +0.000 C 
ENDROOT
BRANCH   1   5
ATOM      2  N   UNL     1       3.103   6.219  19.572  0.00  0.00    +0.000 N 
ATOM      3  C   UNL     1       2.478   7.272  18.920  0.00  0.00    +0.000 C 
ATOM      4  O   UNL     1       2.175   7.317  17.735  0.00  0.00    +0.000 OA
ATOM      5  N   UNL     1       2.246   8.313  19.811  0.00  0.00    +0.000 N 
ATOM      6  H   UNL     1       3.768   6.574  20.241  0.00  0.00    +0.000 HD
ATOM      7  H   UNL     1       2.047   7.970  20.736  0.00  0.00    +0.000 HD
BRANCH   2  13
ATOM      8  C   UNL     1       4.568   4.970  18.003  0.00  0.00    +0.000 A 
ATOM      9  C   UNL     1       4.869   3.749  17.362  0.00  0.00    +0.000 A 
ATOM     10  C   UNL     1       4.113   2.608  17.582  0.00  0.00    +0.000 A 
ATOM     11  C   UNL     1       3.028   2.662  18.441  0.00  0.00    +0.000 A 
ATOM     12  C   UNL     1       2.690   3.843  19.134  0.00  0.00    +0.000 A 
ATOM     13  C   UNL     1       3.478   5.007  18.919  0.00  0.00    +0.000 A 
BRANCH   8  15
ATOM     14  C   UNL     1       6.874   6.009  17.862  0.00  0.00    +0.000 C 
ATOM     15  C   UNL     1       5.378   6.195  17.579  0.00  0.00    +0.000 C 
ATOM     16  C   UNL     1       5.164   6.517  16.090  0.00  0.00    +0.000 C 
ENDBRANCH   8  15
BRANCH  12  17
ATOM     17  C   UNL     1       1.483   3.807  20.076  0.00  0.00    +0.000 C 
ATOM     18  C   UNL     1       0.390   2.906  19.495  0.00  0.00    +0.000 C 
ATOM     19  C   UNL     1       1.809   3.362  21.511  0.00  0.00    +0.000 C 
ENDBRANCH  12  17
ENDBRANCH   2  13
ENDBRANCH   1   5
BRANCH   1  20
ATOM     20  C   UNL     1       0.307   9.957  20.236  0.00  0.00    +0.000 C 
ATOM     21  C   UNL     1      -0.151   8.900  21.281  0.00  0.00    +0.000 C 
ATOM     22  C   UNL     1      -0.893   9.673  22.370  0.00  0.00    +0.000 C 
ATOM     23  C   UNL     1      -0.304  11.076  22.357  0.00  0.00    +0.000 C 
ATOM     24  C   UNL     1       0.750  11.068  21.246  0.00  0.00    +0.000 C 
BRANCH  20  25
ATOM     25  C   UNL     1      -0.868  10.377  19.291  0.00  0.00    +0.000 A 
ATOM     26  C   UNL     1      -1.891   9.451  18.994  0.00  0.00    +0.000 A 
ATOM     27  C   UNL     1      -2.959   9.725  18.116  0.00  0.00    +0.000 A 
ATOM     28  C   UNL     1      -3.114  10.953  17.484  0.00  0.00    +0.000 A 
ATOM     29  C   UNL     1      -2.132  11.894  17.810  0.00  0.00    +0.000 A 
ATOM     30  C   UNL     1      -1.016  11.649  18.682  0.00  0.00    +0.000 A 
BRANCH  30  31
ATOM     31  C   UNL     1      -0.104  12.859  18.815  0.00  0.00    +0.000 C 
ATOM     32  F   UNL     1      -0.006  13.419  20.047  0.00  0.00    +0.000 F 
ATOM     33  F   UNL     1       1.180  12.561  18.455  0.00  0.00    +0.000 F 
ATOM     34  F   UNL     1      -0.484  13.876  17.989  0.00  0.00    +0.000 F 
ENDBRANCH  30  31
BRANCH  28  35
ATOM     35  N   UNL     1      -4.121  11.191  16.563  0.00  0.00    +0.000 N 
ATOM     36  C   UNL     1      -5.269  12.044  16.877  0.00  0.00    +0.000 C 
ATOM     37  C   UNL     1      -3.946  10.935  15.134  0.00  0.00    +0.000 C 
ENDBRANCH  28  35
ENDBRANCH  20  25
ENDBRANCH   1  20
TORSDOF 8
ENDMDL
MODEL 5
REMARK VINA RESULT:      -7.2      2.100      3.011
REMARK  Name = 
REMARK  14 active torsions:
REMARK  status: ('A' for Active; 'I' for Inactive)
REMARK    1  A    between atoms: C_1  and  C_2
REMARK    2  A    between atoms: C_2  and  C_3
REMARK    3  A    between atoms: C_2  and  C_4
REMARK    4  A    between atoms: C_8  and  C_9
REMARK    5  A    between atoms: C_9  and  C_10
REMARK    6  A    between atoms: C_9  and  C_11
REMARK    7  A    between atoms: C_12  and  N_13
REMARK    8  A    between atoms: N_16  and  C_17
REMARK    9  A    between atoms: C_17  and  C_18
REMARK   10  A    between atoms: C_18  and  C_19
REMARK   11  A    between atoms: C_22  and  N_23
REMARK   12  A    between atoms: N_23  and  C_24
REMARK   13  A    between atoms: N_23  and  C_25
REMARK   14  A    between atoms: C_27  and  C_28
REMARK                            x       y       z     vdW  Elec       q    Type
REMARK                         _______ _______ _______ _____ _____    ______ ____
ROOT
ATOM      1  C   UNL     1       1.525   9.100  19.744  0.00  0.00    +0.000 C 
ENDROOT
BRANCH   1   5
ATOM      2  N   UNL     1       3.124   5.813  19.628  0.00  0.00    +0.000 N 
ATOM      3  C   UNL     1       2.475   6.910  19.081  0.00  0.00    +0.000 C 
ATOM      4  O   UNL     1       2.147   7.053  17.911  0.00  0.00    +0.000 OA
ATOM      5  N   UNL     1       2.250   7.868  20.063  0.00  0.00    +0.000 N 
ATOM      6  H   UNL     1       3.798   6.117  20.312  0.00  0.00    +0.000 HD
ATOM      7  H   UNL     1       2.074   7.444  20.959  0.00  0.00    +0.000 HD
BRANCH   2  13
ATOM      8  C   UNL     1       2.705   3.482  18.880  0.00  0.00    +0.000 A 
ATOM      9  C   UNL     1       3.145   2.368  18.134  0.00  0.00    +0.000 A 
ATOM     10  C   UNL     1       4.335   2.393  17.424  0.00  0.00    +0.000 A 
ATOM     11  C   UNL     1       5.123   3.532  17.451  0.00  0.00    +0.000 A 
ATOM     12  C   UNL     1       4.728   4.689  18.153  0.00  0.00    +0.000 A 
ATOM     13  C   UNL     1       3.498   4.666  18.866  0.00  0.00    +0.000 A 
BRANCH   8  15
ATOM     14  C   UNL     1       0.444   2.355  19.065  0.00  0.00    +0.000 C 
ATOM     15  C   UNL     1       1.453   3.295  19.737  0.00  0.00    +0.000 C 
ATOM     16  C   UNL     1       1.810   2.763  21.136  0.00  0.00    +0.000 C 
ENDBRANCH   8  15
BRANCH  12  17
ATOM     17  C   UNL     1       5.654   5.908  18.116  0.00  0.00    +0.000 C 
ATOM     18  C   UNL     1       7.099   5.479  18.382  0.00  0.00    +0.000 C 
ATOM     19  C   UNL     1       5.589   6.717  16.809  0.00  0.00    +0.000 C 
ENDBRANCH  12  17
ENDBRANCH   2  13
ENDBRANCH   1   5
BRANCH   1  20
ATOM     20  C   UNL     1       0.594   9.670  20.872  0.00  0.00    +0.000 C 
ATOM     21  C   UNL     1      -0.633   8.775  21.204  0.00  0.00    +0.000 C 
ATOM     22  C   UNL     1      -1.044   9.129  22.632  0.00  0.00    +0.000 C 
ATOM     23  C   UNL     1       0.223   9.620  23.318  0.00  0.00    +0.000 C 
ATOM     24  C   UNL     1       1.320   9.546  22.252  0.00  0.00    +0.000 C 
BRANCH  20  25
ATOM     25  C   UNL     1       0.159  11.127  20.502  0.00  0.00    +0.000 A 
ATOM     26  C   UNL     1       0.579  12.208  21.306  0.00  0.00    +0.000 A 
ATOM     27  C   UNL     1       0.196  13.545  21.078  0.00  0.00    +0.000 A 
ATOM     28  C   UNL     1      -0.613  13.921  20.012  0.00  0.00    +0.000 A 
ATOM     29  C   UNL     1      -0.995  12.864  19.181  0.00  0.00    +0.000 A 
ATOM     30  C   UNL     1      -0.645  11.486  19.389  0.00  0.00    +0.000 A 
BRANCH  30  31
ATOM     31  C   UNL     1      -1.236  10.567  18.331  0.00  0.00    +0.000 C 
ATOM     32  F   UNL     1      -2.173   9.678  18.746  0.00  0.00    +0.000 F 
ATOM     33  F   UNL     1      -1.836  11.276  17.328  0.00  0.00    +0.000 F 
ATOM     34  F   UNL     1      -0.277   9.815  17.718  0.00  0.00    +0.000 F 
ENDBRANCH  30  31
BRANCH  28  35
ATOM     35  N   UNL     1      -1.050  15.224  19.837  0.00  0.00    +0.000 N 
ATOM     36  C   UNL     1      -2.049  15.828  20.720  0.00  0.00    +0.000 C 
ATOM     37  C   UNL     1      -0.308  16.192  19.031  0.00  0.00    +0.000 C 
ENDBRANCH  28  35
ENDBRANCH  20  25
ENDBRANCH   1  20
TORSDOF 8
ENDMDL
MODEL 6
REMARK VINA RESULT:      -7.2      0.793      1.013
REMARK  Name = 
REMARK  14 active torsions:
REMARK  status: ('A' for Active; 'I' for Inactive)
REMARK    1  A    between atoms: C_1  and  C_2
REMARK    2  A    between atoms: C_2  and  C_3
REMARK    3  A    between atoms: C_2  and  C_4
REMARK    4  A    between atoms: C_8  and  C_9
REMARK    5  A    between atoms: C_9  and  C_10
REMARK    6  A    between atoms: C_9  and  C_11
REMARK    7  A    between atoms: C_12  and  N_13
REMARK    8  A    between atoms: N_16  and  C_17
REMARK    9  A    between atoms: C_17  and  C_18
REMARK   10  A    between atoms: C_18  and  C_19
REMARK   11  A    between atoms: C_22  and  N_23
REMARK   12  A    between atoms: N_23  and  C_24
REMARK   13  A    between atoms: N_23  and  C_25
REMARK   14  A    between atoms: C_27  and  C_28
REMARK                            x       y       z     vdW  Elec       q    Type
REMARK                         _______ _______ _______ _____ _____    ______ ____
ROOT
ATOM      1  C   UNL     1       1.595   9.571  19.268  0.00  0.00    +0.000 C 
ENDROOT
BRANCH   1   5
ATOM      2  N   UNL     1       3.051   6.219  19.409  0.00  0.00    +0.000 N 
ATOM      3  C   UNL     1       2.399   7.276  18.792  0.00  0.00    +0.000 C 
ATOM      4  O   UNL     1       1.975   7.300  17.644  0.00  0.00    +0.000 OA
ATOM      5  N   UNL     1       2.297   8.350  19.669  0.00  0.00    +0.000 N 
ATOM      6  H   UNL     1       3.794   6.567  19.994  0.00  0.00    +0.000 HD
ATOM      7  H   UNL     1       2.184   8.041  20.621  0.00  0.00    +0.000 HD
BRANCH   2  13
ATOM      8  C   UNL     1       2.618   3.790  19.134  0.00  0.00    +0.000 A 
ATOM      9  C   UNL     1       2.946   2.583  18.480  0.00  0.00    +0.000 A 
ATOM     10  C   UNL     1       3.941   2.526  17.516  0.00  0.00    +0.000 A 
ATOM     11  C   UNL     1       4.643   3.674  17.189  0.00  0.00    +0.000 A 
ATOM     12  C   UNL     1       4.346   4.917  17.785  0.00  0.00    +0.000 A 
ATOM     13  C   UNL     1       3.313   4.976  18.760  0.00  0.00    +0.000 A 
BRANCH   8  15
ATOM     14  C   UNL     1       0.370   2.893  19.880  0.00  0.00    +0.000 C 
ATOM     15  C   UNL     1       1.607   3.708  20.277  0.00  0.00    +0.000 C 
ATOM     16  C   UNL     1       2.244   3.108  21.543  0.00  0.00    +0.000 C 
ENDBRANCH   8  15
BRANCH  12  17
ATOM     17  C   UNL     1       5.162   6.139  17.352  0.00  0.00    +0.000 C 
ATOM     18  C   UNL     1       6.574   6.062  17.939  0.00  0.00    +0.000 C 
ATOM     19  C   UNL     1       5.247   6.340  15.830  0.00  0.00    +0.000 C 
ENDBRANCH  12  17
ENDBRANCH   2  13
ENDBRANCH   1   5
BRANCH   1  20
ATOM     20  C   UNL     1       0.362   9.984  20.147  0.00  0.00    +0.000 C 
ATOM     21  C   UNL     1      -0.071   8.914  21.189  0.00  0.00    +0.000 C 
ATOM     22  C   UNL     1      -0.811   9.669  22.291  0.00  0.00    +0.000 C 
ATOM     23  C   UNL     1      -0.242  11.081  22.282  0.00  0.00    +0.000 C 
ATOM     24  C   UNL     1       0.800  11.094  21.160  0.00  0.00    +0.000 C 
BRANCH  20  25
ATOM     25  C   UNL     1      -0.828  10.394  19.217  0.00  0.00    +0.000 A 
ATOM     26  C   UNL     1      -1.834   9.452  18.914  0.00  0.00    +0.000 A 
ATOM     27  C   UNL     1      -2.915   9.717  18.048  0.00  0.00    +0.000 A 
ATOM     28  C   UNL     1      -3.100  10.951  17.435  0.00  0.00    +0.000 A 
ATOM     29  C   UNL     1      -2.134  11.906  17.768  0.00  0.00    +0.000 A 
ATOM     30  C   UNL     1      -1.007  11.672  18.628  0.00  0.00    +0.000 A 
BRANCH  30  31
ATOM     31  C   UNL     1      -0.119  12.898  18.773  0.00  0.00    +0.000 C 
ATOM     32  F   UNL     1       1.215  12.710  18.608  0.00  0.00    +0.000 F 
ATOM     33  F   UNL     1      -0.456  13.872  17.875  0.00  0.00    +0.000 F 
ATOM     34  F   UNL     1      -0.248  13.478  20.000  0.00  0.00    +0.000 F 
ENDBRANCH  30  31
BRANCH  28  35
ATOM     35  N   UNL     1      -4.118  11.182  16.526  0.00  0.00    +0.000 N 
ATOM     36  C   UNL     1      -5.256  12.047  16.843  0.00  0.00    +0.000 C 
ATOM     37  C   UNL     1      -3.965  10.904  15.098  0.00  0.00    +0.000 C 
ENDBRANCH  28  35
ENDBRANCH  20  25
ENDBRANCH   1  20
TORSDOF 8
ENDMDL
MODEL 7
REMARK VINA RESULT:      -7.2      1.563      3.665
REMARK  Name = 
REMARK  14 active torsions:
REMARK  status: ('A' for Active; 'I' for Inactive)
REMARK    1  A    between atoms: C_1  and  C_2
REMARK    2  A    between atoms: C_2  and  C_3
REMARK    3  A    between atoms: C_2  and  C_4
REMARK    4  A    between atoms: C_8  and  C_9
REMARK    5  A    between atoms: C_9  and  C_10
REMARK    6  A    between atoms: C_9  and  C_11
REMARK    7  A    between atoms: C_12  and  N_13
REMARK    8  A    between atoms: N_16  and  C_17
REMARK    9  A    between atoms: C_17  and  C_18
REMARK   10  A    between atoms: C_18  and  C_19
REMARK   11  A    between atoms: C_22  and  N_23
REMARK   12  A    between atoms: N_23  and  C_24
REMARK   13  A    between atoms: N_23  and  C_25
REMARK   14  A    between atoms: C_27  and  C_28
REMARK                            x       y       z     vdW  Elec       q    Type
REMARK                         _______ _______ _______ _____ _____    ______ ____
ROOT
ATOM      1  C   UNL     1       1.114   9.439  20.080  0.00  0.00    +0.000 C 
ENDROOT
BRANCH   1   5
ATOM      2  N   UNL     1       2.351   6.598  18.137  0.00  0.00    +0.000 N 
ATOM      3  C   UNL     1       2.235   7.382  19.276  0.00  0.00    +0.000 C 
ATOM      4  O   UNL     1       2.795   7.194  20.349  0.00  0.00    +0.000 OA
ATOM      5  N   UNL     1       1.360   8.435  19.043  0.00  0.00    +0.000 N 
ATOM      6  H   UNL     1       1.458   6.523  17.678  0.00  0.00    +0.000 HD
ATOM      7  H   UNL     1       1.414   8.756  18.089  0.00  0.00    +0.000 HD
BRANCH   2  13
ATOM      8  C   UNL     1       4.475   5.488  17.489  0.00  0.00    +0.000 A 
ATOM      9  C   UNL     1       5.229   4.297  17.416  0.00  0.00    +0.000 A 
ATOM     10  C   UNL     1       4.721   3.087  17.865  0.00  0.00    +0.000 A 
ATOM     11  C   UNL     1       3.439   3.036  18.387  0.00  0.00    +0.000 A 
ATOM     12  C   UNL     1       2.644   4.194  18.512  0.00  0.00    +0.000 A 
ATOM     13  C   UNL     1       3.175   5.436  18.068  0.00  0.00    +0.000 A 
BRANCH   8  15
ATOM     14  C   UNL     1       6.469   7.048  17.400  0.00  0.00    +0.000 C 
ATOM     15  C   UNL     1       5.078   6.732  16.837  0.00  0.00    +0.000 C 
ATOM     16  C   UNL     1       5.156   6.579  15.308  0.00  0.00    +0.000 C 
ENDBRANCH   8  15
BRANCH  12  17
ATOM     17  C   UNL     1       1.244   4.046  19.115  0.00  0.00    +0.000 C 
ATOM     18  C   UNL     1       0.635   2.702  18.706  0.00  0.00    +0.000 C 
ATOM     19  C   UNL     1       1.192   4.191  20.645  0.00  0.00    +0.000 C 
ENDBRANCH  12  17
ENDBRANCH   2  13
ENDBRANCH   1   5
BRANCH   1  20
ATOM     20  C   UNL     1       0.937  10.919  19.587  0.00  0.00    +0.000 C 
ATOM     21  C   UNL     1       1.588  11.986  20.511  0.00  0.00    +0.000 C 
ATOM     22  C   UNL     1       1.849  13.207  19.632  0.00  0.00    +0.000 C 
ATOM     23  C   UNL     1       2.021  12.672  18.217  0.00  0.00    +0.000 C 
ATOM     24  C   UNL     1       1.838  11.155  18.330  0.00  0.00    +0.000 C 
BRANCH  20  25
ATOM     25  C   UNL     1      -0.584  11.212  19.354  0.00  0.00    +0.000 A 
ATOM     26  C   UNL     1      -1.139  11.039  18.069  0.00  0.00    +0.000 A 
ATOM     27  C   UNL     1      -2.484  11.325  17.756  0.00  0.00    +0.000 A 
ATOM     28  C   UNL     1      -3.394  11.779  18.704  0.00  0.00    +0.000 A 
ATOM     29  C   UNL     1      -2.864  11.907  19.992  0.00  0.00    +0.000 A 
ATOM     30  C   UNL     1      -1.497  11.646  20.349  0.00  0.00    +0.000 A 
BRANCH  30  31
ATOM     31  C   UNL     1      -1.218  11.906  21.821  0.00  0.00    +0.000 C 
ATOM     32  F   UNL     1      -0.461  10.987  22.472  0.00  0.00    +0.000 F 
ATOM     33  F   UNL     1      -0.575  13.097  22.009  0.00  0.00    +0.000 F 
ATOM     34  F   UNL     1      -2.369  11.999  22.548  0.00  0.00    +0.000 F 
ENDBRANCH  30  31
BRANCH  28  35
ATOM     35  N   UNL     1      -4.692  12.132  18.375  0.00  0.00    +0.000 N 
ATOM     36  C   UNL     1      -5.230  11.932  17.029  0.00  0.00    +0.000 C 
ATOM     37  C   UNL     1      -5.715  12.372  19.392  0.00  0.00    +0.000 C 
ENDBRANCH  28  35
ENDBRANCH  20  25
ENDBRANCH   1  20
TORSDOF 8
ENDMDL
MODEL 8
REMARK VINA RESULT:      -7.1      1.580      2.409
REMARK  Name = 
REMARK  14 active torsions:
REMARK  status: ('A' for Active; 'I' for Inactive)
REMARK    1  A    between atoms: C_1  and  C_2
REMARK    2  A    between atoms: C_2  and  C_3
REMARK    3  A    between atoms: C_2  and  C_4
REMARK    4  A    between atoms: C_8  and  C_9
REMARK    5  A    between atoms: C_9  and  C_10
REMARK    6  A    between atoms: C_9  and  C_11
REMARK    7  A    between atoms: C_12  and  N_13
REMARK    8  A    between atoms: N_16  and  C_17
REMARK    9  A    between atoms: C_17  and  C_18
REMARK   10  A    between atoms: C_18  and  C_19
REMARK   11  A    between atoms: C_22  and  N_23
REMARK   12  A    between atoms: N_23  and  C_24
REMARK   13  A    between atoms: N_23  and  C_25
REMARK   14  A    between atoms: C_27  and  C_28
REMARK                            x       y       z     vdW  Elec       q    Type
REMARK                         _______ _______ _______ _____ _____    ______ ____
ROOT
ATOM      1  C   UNL     1       1.120   9.442  20.034  0.00  0.00    +0.000 C 
ENDROOT
BRANCH   1   5
ATOM      2  N   UNL     1       2.351   6.587  18.107  0.00  0.00    +0.000 N 
ATOM      3  C   UNL     1       2.189   7.346  19.257  0.00  0.00    +0.000 C 
ATOM      4  O   UNL     1       2.652   7.100  20.363  0.00  0.00    +0.000 OA
ATOM      5  N   UNL     1       1.392   8.453  18.989  0.00  0.00    +0.000 N 
ATOM      6  H   UNL     1       1.493   6.574  17.579  0.00  0.00    +0.000 HD
ATOM      7  H   UNL     1       1.537   8.795  18.053  0.00  0.00    +0.000 HD
BRANCH   2  13
ATOM      8  C   UNL     1       2.602   4.168  18.605  0.00  0.00    +0.000 A 
ATOM      9  C   UNL     1       3.418   3.017  18.567  0.00  0.00    +0.000 A 
ATOM     10  C   UNL     1       4.704   3.055  18.050  0.00  0.00    +0.000 A 
ATOM     11  C   UNL     1       5.211   4.250  17.567  0.00  0.00    +0.000 A 
ATOM     12  C   UNL     1       4.439   5.429  17.551  0.00  0.00    +0.000 A 
ATOM     13  C   UNL     1       3.114   5.382  18.066  0.00  0.00    +0.000 A 
BRANCH   8  15
ATOM     14  C   UNL     1       0.488   2.798  18.873  0.00  0.00    +0.000 C 
ATOM     15  C   UNL     1       1.259   4.044  19.325  0.00  0.00    +0.000 C 
ATOM     16  C   UNL     1       1.445   4.017  20.852  0.00  0.00    +0.000 C 
ENDBRANCH   8  15
BRANCH  12  17
ATOM     17  C   UNL     1       5.075   6.701  16.985  0.00  0.00    +0.000 C 
ATOM     18  C   UNL     1       6.513   6.841  17.493  0.00  0.00    +0.000 C 
ATOM     19  C   UNL     1       5.061   6.791  15.450  0.00  0.00    +0.000 C 
ENDBRANCH  12  17
ENDBRANCH   2  13
ENDBRANCH   1   5
BRANCH   1  20
ATOM     20  C   UNL     1       0.928  10.924  19.555  0.00  0.00    +0.000 C 
ATOM     21  C   UNL     1       1.584  11.988  20.481  0.00  0.00    +0.000 C 
ATOM     22  C   UNL     1       1.827  13.218  19.609  0.00  0.00    +0.000 C 
ATOM     23  C   UNL     1       1.987  12.695  18.188  0.00  0.00    +0.000 C 
ATOM     24  C   UNL     1       1.814  11.176  18.290  0.00  0.00    +0.000 C 
BRANCH  20  25
ATOM     25  C   UNL     1      -0.596  11.210  19.342  0.00  0.00    +0.000 A 
ATOM     26  C   UNL     1      -1.157  11.079  18.053  0.00  0.00    +0.000 A 
ATOM     27  C   UNL     1      -2.506  11.363  17.759  0.00  0.00    +0.000 A 
ATOM     28  C   UNL     1      -3.416  11.771  18.728  0.00  0.00    +0.000 A 
ATOM     29  C   UNL     1      -2.880  11.856  20.017  0.00  0.00    +0.000 A 
ATOM     30  C   UNL     1      -1.508  11.597  20.356  0.00  0.00    +0.000 A 
BRANCH  30  31
ATOM     31  C   UNL     1      -1.224  11.804  21.836  0.00  0.00    +0.000 C 
ATOM     32  F   UNL     1      -0.459  10.867  22.449  0.00  0.00    +0.000 F 
ATOM     33  F   UNL     1      -0.587  12.991  22.064  0.00  0.00    +0.000 F 
ATOM     34  F   UNL     1      -2.372  11.864  22.571  0.00  0.00    +0.000 F 
ENDBRANCH  30  31
BRANCH  28  35
ATOM     35  N   UNL     1      -4.720  12.123  18.419  0.00  0.00    +0.000 N 
ATOM     36  C   UNL     1      -5.496  13.029  19.268  0.00  0.00    +0.000 C 
ATOM     37  C   UNL     1      -5.282  11.935  17.083  0.00  0.00    +0.000 C 
ENDBRANCH  28  35
ENDBRANCH  20  25
ENDBRANCH   1  20
TORSDOF 8
ENDMDL
MODEL 9
REMARK VINA RESULT:      -7.1      1.492      3.546
REMARK  Name = 
REMARK  14 active torsions:
REMARK  status: ('A' for Active; 'I' for Inactive)
REMARK    1  A    between atoms: C_1  and  C_2
REMARK    2  A    between atoms: C_2  and  C_3
REMARK    3  A    between atoms: C_2  and  C_4
REMARK    4  A    between atoms: C_8  and  C_9
REMARK    5  A    between atoms: C_9  and  C_10
REMARK    6  A    between atoms: C_9  and  C_11
REMARK    7  A    between atoms: C_12  and  N_13
REMARK    8  A    between atoms: N_16  and  C_17
REMARK    9  A    between atoms: C_17  and  C_18
REMARK   10  A    between atoms: C_18  and  C_19
REMARK   11  A    between atoms: C_22  and  N_23
REMARK   12  A    between atoms: N_23  and  C_24
REMARK   13  A    between atoms: N_23  and  C_25
REMARK   14  A    between atoms: C_27  and  C_28
REMARK                            x       y       z     vdW  Elec       q    Type
REMARK                         _______ _______ _______ _____ _____    ______ ____
ROOT
ATOM      1  C   UNL     1       0.868   9.033  20.496  0.00  0.00    +0.000 C 
ENDROOT
BRANCH   1   5
ATOM      2  N   UNL     1       3.286   6.368  19.841  0.00  0.00    +0.000 N 
ATOM      3  C   UNL     1       2.114   7.078  19.622  0.00  0.00    +0.000 C 
ATOM      4  O   UNL     1       1.256   6.827  18.786  0.00  0.00    +0.000 OA
ATOM      5  N   UNL     1       2.044   8.160  20.493  0.00  0.00    +0.000 N 
ATOM      6  H   UNL     1       4.041   7.003  20.046  0.00  0.00    +0.000 HD
ATOM      7  H   UNL     1       2.465   7.946  21.382  0.00  0.00    +0.000 HD
BRANCH   2  13
ATOM      8  C   UNL     1       4.565   5.285  18.009  0.00  0.00    +0.000 A 
ATOM      9  C   UNL     1       4.856   4.107  17.288  0.00  0.00    +0.000 A 
ATOM     10  C   UNL     1       4.250   2.899  17.594  0.00  0.00    +0.000 A 
ATOM     11  C   UNL     1       3.326   2.839  18.624  0.00  0.00    +0.000 A 
ATOM     12  C   UNL     1       3.010   3.972  19.402  0.00  0.00    +0.000 A 
ATOM     13  C   UNL     1       3.647   5.206  19.096  0.00  0.00    +0.000 A 
BRANCH   8  15
ATOM     14  C   UNL     1       6.693   6.634  17.754  0.00  0.00    +0.000 C 
ATOM     15  C   UNL     1       5.182   6.585  17.496  0.00  0.00    +0.000 C 
ATOM     16  C   UNL     1       4.902   6.781  15.996  0.00  0.00    +0.000 C 
ENDBRANCH   8  15
BRANCH  12  17
ATOM     17  C   UNL     1       1.989   3.811  20.531  0.00  0.00    +0.000 C 
ATOM     18  C   UNL     1       0.641   3.361  19.960  0.00  0.00    +0.000 C 
ATOM     19  C   UNL     1       2.422   2.849  21.649  0.00  0.00    +0.000 C 
ENDBRANCH  12  17
ENDBRANCH   2  13
ENDBRANCH   1   5
BRANCH   1  20
ATOM     20  C   UNL     1       0.930  10.285  19.552  0.00  0.00    +0.000 C 
ATOM     21  C   UNL     1       1.474  11.574  20.230  0.00  0.00    +0.000 C 
ATOM     22  C   UNL     1       2.019  12.450  19.104  0.00  0.00    +0.000 C 
ATOM     23  C   UNL     1       2.426  11.492  17.993  0.00  0.00    +0.000 C 
ATOM     24  C   UNL     1       2.086  10.093  18.515  0.00  0.00    +0.000 C 
BRANCH  20  25
ATOM     25  C   UNL     1      -0.478  10.525  18.910  0.00  0.00    +0.000 A 
ATOM     26  C   UNL     1      -0.773   9.970  17.647  0.00  0.00    +0.000 A 
ATOM     27  C   UNL     1      -1.994  10.174  16.972  0.00  0.00    +0.000 A 
ATOM     28  C   UNL     1      -3.033  10.923  17.512  0.00  0.00    +0.000 A 
ATOM     29  C   UNL     1      -2.768  11.437  18.786  0.00  0.00    +0.000 A 
ATOM     30  C   UNL     1      -1.531  11.270  19.499  0.00  0.00    +0.000 A 
BRANCH  30  31
ATOM     31  C   UNL     1      -1.537  11.973  20.848  0.00  0.00    +0.000 C 
ATOM     32  F   UNL     1      -1.024  11.284  21.898  0.00  0.00    +0.000 F 
ATOM     33  F   UNL     1      -0.830  13.142  20.808  0.00  0.00    +0.000 F 
ATOM     34  F   UNL     1      -2.797  12.325  21.232  0.00  0.00    +0.000 F 
ENDBRANCH  30  31
BRANCH  28  35
ATOM     35  N   UNL     1      -4.200  11.185  16.813  0.00  0.00    +0.000 N 
ATOM     36  C   UNL     1      -4.316  10.917  15.378  0.00  0.00    +0.000 C 
ATOM     37  C   UNL     1      -5.483  11.384  17.485  0.00  0.00    +0.000 C 
ENDBRANCH  28  35
ENDBRANCH  20  25
ENDBRANCH   1  20
TORSDOF 8
ENDMDL
