MODEL 1
REMARK VINA RESULT:      -7.9      0.000      0.000
REMARK  Name = 
REMARK  10 active torsions:
REMARK  status: ('A' for Active; 'I' for Inactive)
REMARK    1  A    between atoms: C_1  and  C_2
REMARK    2  A    between atoms: C_4  and  O_5
REMARK    3  A    between atoms: C_7  and  C_8
REMARK    4  A    between atoms: C_7  and  N_9
REMARK    5  A    between atoms: C_10  and  O_11
REMARK    6  A    between atoms: O_11  and  C_12
REMARK    7  A    between atoms: C_15  and  O_16
REMARK    8  A    between atoms: O_16  and  C_17
REMARK    9  A    between atoms: C_17  and  C_19
REMARK   10  A    between atoms: C_24  and  C_25
REMARK                            x       y       z     vdW  Elec       q    Type
REMARK                         _______ _______ _______ _____ _____    ______ ____
ROOT
ATOM      1  C   UNL     1       2.775   7.366  19.209  0.00  0.00    +0.000 C 
ATOM      2  C   UNL     1       2.177   7.758  17.852  0.00  0.00    +0.000 C 
ATOM      3  C   UNL     1       1.803   9.236  17.875  0.00  0.00    +0.000 C 
ATOM      4  C   UNL     1       0.784   9.468  18.993  0.00  0.00    +0.000 C 
ATOM      5  C   UNL     1       1.310   8.902  20.339  0.00  0.00    +0.000 C 
ATOM      6  C   UNL     1       0.186   8.903  21.373  0.00  0.00    +0.000 C 
ATOM      7  O   UNL     1       1.790   7.542  20.226  0.00  0.00    +0.000 OA
ENDROOT
BRANCH   1   8
ATOM      8  O   UNL     1       3.217   6.018  19.103  0.00  0.00    +0.000 OA
BRANCH   8  16
ATOM      9  C   UNL     1       2.596   3.278  16.585  0.00  0.00    +0.000 C 
ATOM     10  C   UNL     1       3.271   4.211  17.590  0.00  0.00    +0.000 C 
ATOM     11  O   UNL     1       4.342   3.543  18.283  0.00  0.00    +0.000 OA
ATOM     12  C   UNL     1       3.958   2.713  19.368  0.00  0.00    +0.000 C 
ATOM     13  C   UNL     1       3.024   3.396  20.380  0.00  0.00    +0.000 C 
ATOM     14  C   UNL     1       1.790   3.988  19.675  0.00  0.00    +0.000 C 
ATOM     15  C   UNL     1       0.898   2.842  19.143  0.00  0.00    +0.000 C 
ATOM     16  C   UNL     1       2.337   4.975  18.581  0.00  0.00    +0.000 C 
BRANCH  14  17
ATOM     17  N   UNL     1       0.844   4.638  20.604  0.00  0.00    +0.000 NA
ATOM     18  H   UNL     1       0.912   4.284  21.550  0.00  0.00    +0.000 HD
ATOM     19  H   UNL     1       0.941   5.653  20.600  0.00  0.00    +0.000 HD
ENDBRANCH  14  17
BRANCH  12  20
ATOM     20  O   UNL     1       5.148   2.320  20.035  0.00  0.00    +0.000 OA
ATOM     21  H   UNL     1       5.545   3.161  20.317  0.00  0.00    +0.000 HD
ENDBRANCH  12  20
ENDBRANCH   8  16
ENDBRANCH   1   8
BRANCH   4  22
ATOM     22  O   UNL     1       0.307  10.839  19.033  0.00  0.00    +0.000 OA
BRANCH  22  23
ATOM     23  C   UNL     1      -1.020  11.082  19.199  0.00  0.00    +0.000 C 
ATOM     24  O   UNL     1      -1.523  11.549  20.212  0.00  0.00    +0.000 OA
BRANCH  23  25
ATOM     25  C   UNL     1      -1.778  10.737  18.016  0.00  0.00    +0.000 A 
ATOM     26  C   UNL     1      -2.528   9.625  17.662  0.00  0.00    +0.000 A 
ATOM     27  C   UNL     1      -3.033   9.822  16.352  0.00  0.00    +0.000 A 
ATOM     28  C   UNL     1      -2.585  11.054  15.926  0.00  0.00    +0.000 A 
ATOM     29  N   UNL     1      -1.848  11.605  16.939  0.00  0.00    +0.000 N 
ATOM     30  H   UNL     1      -1.385  12.499  16.910  0.00  0.00    +0.000 HD
ENDBRANCH  23  25
ENDBRANCH  22  23
ENDBRANCH   4  22
TORSDOF 7
ENDMDL
MODEL 2
REMARK VINA RESULT:      -7.7      0.998      1.325
REMARK  Name = 
REMARK  10 active torsions:
REMARK  status: ('A' for Active; 'I' for Inactive)
REMARK    1  A    between atoms: C_1  and  C_2
REMARK    2  A    between atoms: C_4  and  O_5
REMARK    3  A    between atoms: C_7  and  C_8
REMARK    4  A    between atoms: C_7  and  N_9
REMARK    5  A    between atoms: C_10  and  O_11
REMARK    6  A    between atoms: O_11  and  C_12
REMARK    7  A    between atoms: C_15  and  O_16
REMARK    8  A    between atoms: O_16  and  C_17
REMARK    9  A    between atoms: C_17  and  C_19
REMARK   10  A    between atoms: C_24  and  C_25
REMARK                            x       y       z     vdW  Elec       q    Type
REMARK                         _______ _______ _______ _____ _____    ______ ____
ROOT
ATOM      1  C   UNL     1       2.608   7.283  19.478  0.00  0.00    +0.000 C 
ATOM      2  C   UNL     1       2.114   7.662  18.076  0.00  0.00    +0.000 C 
ATOM      3  C   UNL     1       1.832   9.160  18.029  0.00  0.00    +0.000 C 
ATOM      4  C   UNL     1       0.767   9.493  19.076  0.00  0.00    +0.000 C 
ATOM      5  C   UNL     1       1.179   8.945  20.469  0.00  0.00    +0.000 C 
ATOM      6  C   UNL     1      -0.000   9.051  21.434  0.00  0.00    +0.000 C 
ATOM      7  O   UNL     1       1.579   7.555  20.429  0.00  0.00    +0.000 OA
ENDROOT
BRANCH   1   8
ATOM      8  O   UNL     1       2.970   5.908  19.443  0.00  0.00    +0.000 OA
BRANCH   8  16
ATOM      9  C   UNL     1       5.666   4.729  17.082  0.00  0.00    +0.000 C 
ATOM     10  C   UNL     1       4.876   5.055  18.349  0.00  0.00    +0.000 C 
ATOM     11  O   UNL     1       5.178   4.122  19.405  0.00  0.00    +0.000 OA
ATOM     12  C   UNL     1       4.501   2.877  19.347  0.00  0.00    +0.000 C 
ATOM     13  C   UNL     1       2.978   2.998  19.174  0.00  0.00    +0.000 C 
ATOM     14  C   UNL     1       2.633   3.871  17.954  0.00  0.00    +0.000 C 
ATOM     15  C   UNL     1       3.042   3.133  16.657  0.00  0.00    +0.000 C 
ATOM     16  C   UNL     1       3.336   5.257  18.188  0.00  0.00    +0.000 C 
BRANCH  14  17
ATOM     17  N   UNL     1       1.179   4.003  17.725  0.00  0.00    +0.000 NA
ATOM     18  H   UNL     1       0.957   4.560  16.908  0.00  0.00    +0.000 HD
ATOM     19  H   UNL     1       0.717   3.096  17.670  0.00  0.00    +0.000 HD
ENDBRANCH  14  17
BRANCH  12  20
ATOM     20  O   UNL     1       4.771   2.198  20.563  0.00  0.00    +0.000 OA
ATOM     21  H   UNL     1       5.741   2.138  20.587  0.00  0.00    +0.000 HD
ENDBRANCH  12  20
ENDBRANCH   8  16
ENDBRANCH   1   8
BRANCH   4  22
ATOM     22  O   UNL     1       0.375  10.891  19.043  0.00  0.00    +0.000 OA
BRANCH  22  23
ATOM     23  C   UNL     1      -0.934  11.223  19.198  0.00  0.00    +0.000 C 
ATOM     24  O   UNL     1      -1.397  11.800  20.172  0.00  0.00    +0.000 OA
BRANCH  23  25
ATOM     25  C   UNL     1      -1.724  10.827  18.052  0.00  0.00    +0.000 A 
ATOM     26  C   UNL     1      -2.485   9.703  17.770  0.00  0.00    +0.000 A 
ATOM     27  C   UNL     1      -3.025   9.842  16.465  0.00  0.00    +0.000 A 
ATOM     28  C   UNL     1      -2.586  11.051  15.972  0.00  0.00    +0.000 A 
ATOM     29  N   UNL     1      -1.822  11.646  16.939  0.00  0.00    +0.000 N 
ATOM     30  H   UNL     1      -1.357  12.536  16.857  0.00  0.00    +0.000 HD
ENDBRANCH  23  25
ENDBRANCH  22  23
ENDBRANCH   4  22
TORSDOF 7
ENDMDL
MODEL 3
REMARK VINA RESULT:      -7.6      1.317      1.939
REMARK  Name = 
REMARK  10 active torsions:
REMARK  status: ('A' for Active; 'I' for Inactive)
REMARK    1  A    between atoms: C_1  and  C_2
REMARK    2  A    between atoms: C_4  and  O_5
REMARK    3  A    between atoms: C_7  and  C_8
REMARK    4  A    between atoms: C_7  and  N_9
REMARK    5  A    between atoms: C_10  and  O_11
REMARK    6  A    between atoms: O_11  and  C_12
REMARK    7  A    between atoms: C_15  and  O_16
REMARK    8  A    between atoms: O_16  and  C_17
REMARK    9  A    between atoms: C_17  and  C_19
REMARK   10  A    between atoms: C_24  and  C_25
REMARK                            x       y       z     vdW  Elec       q    Type
REMARK                         _______ _______ _______ _____ _____    ______ ____
ROOT
ATOM      1  C   UNL     1       2.760   7.071  19.604  0.00  0.00    +0.000 C 
ATOM      2  C   UNL     1       2.304   7.486  18.199  0.00  0.00    +0.000 C 
ATOM      3  C   UNL     1       1.953   8.969  18.201  0.00  0.00    +0.000 C 
ATOM      4  C   UNL     1       0.832   9.208  19.216  0.00  0.00    +0.000 C 
ATOM      5  C   UNL     1       1.214   8.621  20.601  0.00  0.00    +0.000 C 
ATOM      6  C   UNL     1      -0.007   8.631  21.519  0.00  0.00    +0.000 C 
ATOM      7  O   UNL     1       1.681   7.254  20.521  0.00  0.00    +0.000 OA
ENDROOT
BRANCH   1   8
ATOM      8  O   UNL     1       3.188   5.717  19.528  0.00  0.00    +0.000 OA
BRANCH   8  16
ATOM      9  C   UNL     1       2.985   3.263  16.670  0.00  0.00    +0.000 C 
ATOM     10  C   UNL     1       3.496   4.091  17.849  0.00  0.00    +0.000 C 
ATOM     11  O   UNL     1       4.490   3.370  18.601  0.00  0.00    +0.000 OA
ATOM     12  C   UNL     1       3.998   2.417  19.530  0.00  0.00    +0.000 C 
ATOM     13  C   UNL     1       2.920   2.967  20.479  0.00  0.00    +0.000 C 
ATOM     14  C   UNL     1       1.768   3.610  19.686  0.00  0.00    +0.000 C 
ATOM     15  C   UNL     1       0.989   2.514  18.922  0.00  0.00    +0.000 C 
ATOM     16  C   UNL     1       2.417   4.723  18.786  0.00  0.00    +0.000 C 
BRANCH  14  17
ATOM     17  N   UNL     1       0.689   4.136  20.548  0.00  0.00    +0.000 NA
ATOM     18  H   UNL     1       0.250   3.419  21.112  0.00  0.00    +0.000 HD
ATOM     19  H   UNL     1       1.012   4.901  21.139  0.00  0.00    +0.000 HD
ENDBRANCH  14  17
BRANCH  12  20
ATOM     20  O   UNL     1       5.104   1.976  20.301  0.00  0.00    +0.000 OA
ATOM     21  H   UNL     1       5.260   2.705  20.924  0.00  0.00    +0.000 HD
ENDBRANCH  12  20
ENDBRANCH   8  16
ENDBRANCH   1   8
BRANCH   4  22
ATOM     22  O   UNL     1       0.374  10.586  19.223  0.00  0.00    +0.000 OA
BRANCH  22  23
ATOM     23  C   UNL     1      -0.854  10.887  18.723  0.00  0.00    +0.000 C 
ATOM     24  O   UNL     1      -1.272  10.524  17.633  0.00  0.00    +0.000 OA
BRANCH  23  25
ATOM     25  C   UNL     1      -1.627  11.681  19.653  0.00  0.00    +0.000 A 
ATOM     26  C   UNL     1      -1.450  12.018  20.988  0.00  0.00    +0.000 A 
ATOM     27  C   UNL     1      -2.551  12.810  21.402  0.00  0.00    +0.000 A 
ATOM     28  C   UNL     1      -3.384  12.947  20.312  0.00  0.00    +0.000 A 
ATOM     29  N   UNL     1      -2.811  12.282  19.261  0.00  0.00    +0.000 N 
ATOM     30  H   UNL     1      -3.200  12.200  18.335  0.00  0.00    +0.000 HD
ENDBRANCH  23  25
ENDBRANCH  22  23
ENDBRANCH   4  22
TORSDOF 7
ENDMDL
MODEL 4
REMARK VINA RESULT:      -7.4      1.527      1.864
REMARK  Name = 
REMARK  10 active torsions:
REMARK  status: ('A' for Active; 'I' for Inactive)
REMARK    1  A    between atoms: C_1  and  C_2
REMARK    2  A    between atoms: C_4  and  O_5
REMARK    3  A    between atoms: C_7  and  C_8
REMARK    4  A    between atoms: C_7  and  N_9
REMARK    5  A    between atoms: C_10  and  O_11
REMARK    6  A    between atoms: O_11  and  C_12
REMARK    7  A    between atoms: C_15  and  O_16
REMARK    8  A    between atoms: O_16  and  C_17
REMARK    9  A    between atoms: C_17  and  C_19
REMARK   10  A    between atoms: C_24  and  C_25
REMARK                            x       y       z     vdW  Elec       q    Type
REMARK                         _______ _______ _______ _____ _____    ______ ____
ROOT
ATOM      1  C   UNL     1       2.452   7.797  19.181  0.00  0.00    +0.000 C 
ATOM      2  C   UNL     1       1.733   8.026  17.846  0.00  0.00    +0.000 C 
ATOM      3  C   UNL     1       1.352   9.497  17.724  0.00  0.00    +0.000 C 
ATOM      4  C   UNL     1       0.433   9.864  18.893  0.00  0.00    +0.000 C 
ATOM      5  C   UNL     1       1.080   9.462  20.245  0.00  0.00    +0.000 C 
ATOM      6  C   UNL     1       0.051   9.590  21.366  0.00  0.00    +0.000 C 
ATOM      7  O   UNL     1       1.559   8.097  20.254  0.00  0.00    +0.000 OA
ENDROOT
BRANCH   1   8
ATOM      8  O   UNL     1       2.893   6.445  19.200  0.00  0.00    +0.000 OA
BRANCH   8  16
ATOM      9  C   UNL     1       5.091   6.302  16.137  0.00  0.00    +0.000 C 
ATOM     10  C   UNL     1       4.594   6.502  17.569  0.00  0.00    +0.000 C 
ATOM     11  O   UNL     1       5.645   6.262  18.524  0.00  0.00    +0.000 OA
ATOM     12  C   UNL     1       5.899   4.902  18.841  0.00  0.00    +0.000 C 
ATOM     13  C   UNL     1       4.643   4.105  19.231  0.00  0.00    +0.000 C 
ATOM     14  C   UNL     1       3.558   4.225  18.146  0.00  0.00    +0.000 C 
ATOM     15  C   UNL     1       4.020   3.486  16.868  0.00  0.00    +0.000 C 
ATOM     16  C   UNL     1       3.279   5.761  17.968  0.00  0.00    +0.000 C 
BRANCH  14  17
ATOM     17  N   UNL     1       2.335   3.458  18.457  0.00  0.00    +0.000 NA
ATOM     18  H   UNL     1       2.223   3.278  19.448  0.00  0.00    +0.000 HD
ATOM     19  H   UNL     1       1.499   3.905  18.083  0.00  0.00    +0.000 HD
ENDBRANCH  14  17
BRANCH  12  20
ATOM     20  O   UNL     1       6.806   4.891  19.932  0.00  0.00    +0.000 OA
ATOM     21  H   UNL     1       7.303   5.720  19.831  0.00  0.00    +0.000 HD
ENDBRANCH  12  20
ENDBRANCH   8  16
ENDBRANCH   1   8
BRANCH   4  22
ATOM     22  O   UNL     1      -0.049  11.231  18.809  0.00  0.00    +0.000 OA
BRANCH  22  23
ATOM     23  C   UNL     1      -1.385  11.475  18.872  0.00  0.00    +0.000 C 
ATOM     24  O   UNL     1      -1.949  12.044  19.797  0.00  0.00    +0.000 OA
BRANCH  23  25
ATOM     25  C   UNL     1      -2.070  10.995  17.692  0.00  0.00    +0.000 A 
ATOM     26  C   UNL     1      -2.657   9.781  17.365  0.00  0.00    +0.000 A 
ATOM     27  C   UNL     1      -3.164   9.868  16.043  0.00  0.00    +0.000 A 
ATOM     28  C   UNL     1      -2.881  11.136  15.583  0.00  0.00    +0.000 A 
ATOM     29  N   UNL     1      -2.242  11.812  16.587  0.00  0.00    +0.000 N 
ATOM     30  H   UNL     1      -1.904  12.760  16.535  0.00  0.00    +0.000 HD
ENDBRANCH  23  25
ENDBRANCH  22  23
ENDBRANCH   4  22
TORSDOF 7
ENDMDL
MODEL 5
REMARK VINA RESULT:      -7.3      1.836      2.609
REMARK  Name = 
REMARK  10 active torsions:
REMARK  status: ('A' for Active; 'I' for Inactive)
REMARK    1  A    between atoms: C_1  and  C_2
REMARK    2  A    between atoms: C_4  and  O_5
REMARK    3  A    between atoms: C_7  and  C_8
REMARK    4  A    between atoms: C_7  and  N_9
REMARK    5  A    between atoms: C_10  and  O_11
REMARK    6  A    between atoms: O_11  and  C_12
REMARK    7  A    between atoms: C_15  and  O_16
REMARK    8  A    between atoms: O_16  and  C_17
REMARK    9  A    between atoms: C_17  and  C_19
REMARK   10  A    between atoms: C_24  and  C_25
REMARK                            x       y       z     vdW  Elec       q    Type
REMARK                         _______ _______ _______ _____ _____    ______ ____
ROOT
ATOM      1  C   UNL     1       2.445   6.881  19.252  0.00  0.00    +0.000 C 
ATOM      2  C   UNL     1       2.031   7.676  18.008  0.00  0.00    +0.000 C 
ATOM      3  C   UNL     1       2.055   9.166  18.331  0.00  0.00    +0.000 C 
ATOM      4  C   UNL     1       1.082   9.435  19.482  0.00  0.00    +0.000 C 
ATOM      5  C   UNL     1       1.381   8.496  20.682  0.00  0.00    +0.000 C 
ATOM      6  C   UNL     1       0.251   8.591  21.704  0.00  0.00    +0.000 C 
ATOM      7  O   UNL     1       1.495   7.108  20.293  0.00  0.00    +0.000 OA
ENDROOT
BRANCH   1   8
ATOM      8  O   UNL     1       2.525   5.512  18.873  0.00  0.00    +0.000 OA
BRANCH   8  16
ATOM      9  C   UNL     1       2.234   3.303  21.917  0.00  0.00    +0.000 C 
ATOM     10  C   UNL     1       1.913   4.071  20.635  0.00  0.00    +0.000 C 
ATOM     11  O   UNL     1       0.921   3.381  19.849  0.00  0.00    +0.000 OA
ATOM     12  C   UNL     1       1.397   2.312  19.046  0.00  0.00    +0.000 C 
ATOM     13  C   UNL     1       2.603   2.679  18.165  0.00  0.00    +0.000 C 
ATOM     14  C   UNL     1       3.739   3.279  19.013  0.00  0.00    +0.000 C 
ATOM     15  C   UNL     1       4.335   2.185  19.930  0.00  0.00    +0.000 C 
ATOM     16  C   UNL     1       3.126   4.519  19.759  0.00  0.00    +0.000 C 
BRANCH  14  17
ATOM     17  N   UNL     1       4.935   3.628  18.220  0.00  0.00    +0.000 NA
ATOM     18  H   UNL     1       5.737   3.049  18.437  0.00  0.00    +0.000 HD
ATOM     19  H   UNL     1       4.748   3.609  17.218  0.00  0.00    +0.000 HD
ENDBRANCH  14  17
BRANCH  12  20
ATOM     20  O   UNL     1       0.324   1.910  18.210  0.00  0.00    +0.000 OA
ATOM     21  H   UNL     1       0.532   2.315  17.352  0.00  0.00    +0.000 HD
ENDBRANCH  12  20
ENDBRANCH   8  16
ENDBRANCH   1   8
BRANCH   4  22
ATOM     22  O   UNL     1       0.977  10.847  19.801  0.00  0.00    +0.000 OA
BRANCH  22  23
ATOM     23  C   UNL     1       0.510  11.713  18.862  0.00  0.00    +0.000 C 
ATOM     24  O   UNL     1       1.181  12.575  18.312  0.00  0.00    +0.000 OA
BRANCH  23  25
ATOM     25  C   UNL     1      -0.889  11.481  18.573  0.00  0.00    +0.000 A 
ATOM     26  C   UNL     1      -1.544  10.712  17.622  0.00  0.00    +0.000 A 
ATOM     27  C   UNL     1      -2.942  10.885  17.790  0.00  0.00    +0.000 A 
ATOM     28  C   UNL     1      -3.119  11.756  18.843  0.00  0.00    +0.000 A 
ATOM     29  N   UNL     1      -1.881  12.093  19.320  0.00  0.00    +0.000 N 
ATOM     30  H   UNL     1      -1.697  12.725  20.082  0.00  0.00    +0.000 HD
ENDBRANCH  23  25
ENDBRANCH  22  23
ENDBRANCH   4  22
TORSDOF 7
ENDMDL
MODEL 6
REMARK VINA RESULT:      -7.3      2.539      3.514
REMARK  Name = 
REMARK  10 active torsions:
REMARK  status: ('A' for Active; 'I' for Inactive)
REMARK    1  A    between atoms: C_1  and  C_2
REMARK    2  A    between atoms: C_4  and  O_5
REMARK    3  A    between atoms: C_7  and  C_8
REMARK    4  A    between atoms: C_7  and  N_9
REMARK    5  A    between atoms: C_10  and  O_11
REMARK    6  A    between atoms: O_11  and  C_12
REMARK    7  A    between atoms: C_15  and  O_16
REMARK    8  A    between atoms: O_16  and  C_17
REMARK    9  A    between atoms: C_17  and  C_19
REMARK   10  A    between atoms: C_24  and  C_25
REMARK                            x       y       z     vdW  Elec       q    Type
REMARK                         _______ _______ _______ _____ _____    ______ ____
ROOT
ATOM      1  C   UNL     1       2.453   6.844  19.263  0.00  0.00    +0.000 C 
ATOM      2  C   UNL     1       2.068   7.643  18.012  0.00  0.00    +0.000 C 
ATOM      3  C   UNL     1       2.123   9.133  18.330  0.00  0.00    +0.000 C 
ATOM      4  C   UNL     1       1.147   9.428  19.471  0.00  0.00    +0.000 C 
ATOM      5  C   UNL     1       1.414   8.488  20.677  0.00  0.00    +0.000 C 
ATOM      6  C   UNL     1       0.278   8.613  21.690  0.00  0.00    +0.000 C 
ATOM      7  O   UNL     1       1.500   7.096  20.294  0.00  0.00    +0.000 OA
ENDROOT
BRANCH   1   8
ATOM      8  O   UNL     1       2.505   5.472  18.890  0.00  0.00    +0.000 OA
BRANCH   8  16
ATOM      9  C   UNL     1       2.230   3.244  21.922  0.00  0.00    +0.000 C 
ATOM     10  C   UNL     1       1.902   4.018  20.645  0.00  0.00    +0.000 C 
ATOM     11  O   UNL     1       0.909   3.332  19.859  0.00  0.00    +0.000 OA
ATOM     12  C   UNL     1       1.384   2.268  19.048  0.00  0.00    +0.000 C 
ATOM     13  C   UNL     1       2.586   2.642  18.165  0.00  0.00    +0.000 C 
ATOM     14  C   UNL     1       3.724   3.240  19.012  0.00  0.00    +0.000 C 
ATOM     15  C   UNL     1       4.326   2.142  19.920  0.00  0.00    +0.000 C 
ATOM     16  C   UNL     1       3.111   4.474  19.768  0.00  0.00    +0.000 C 
BRANCH  14  17
ATOM     17  N   UNL     1       4.916   3.596  18.217  0.00  0.00    +0.000 NA
ATOM     18  H   UNL     1       5.693   3.909  18.787  0.00  0.00    +0.000 HD
ATOM     19  H   UNL     1       5.211   2.833  17.608  0.00  0.00    +0.000 HD
ENDBRANCH  14  17
BRANCH  12  20
ATOM     20  O   UNL     1       0.308   1.868  18.214  0.00  0.00    +0.000 OA
ATOM     21  H   UNL     1       0.213   2.605  17.587  0.00  0.00    +0.000 HD
ENDBRANCH  12  20
ENDBRANCH   8  16
ENDBRANCH   1   8
BRANCH   4  22
ATOM     22  O   UNL     1       1.071  10.844  19.784  0.00  0.00    +0.000 OA
BRANCH  22  23
ATOM     23  C   UNL     1       0.495  11.697  18.895  0.00  0.00    +0.000 C 
ATOM     24  O   UNL     1      -0.596  11.526  18.370  0.00  0.00    +0.000 OA
BRANCH  23  25
ATOM     25  C   UNL     1       1.327  12.856  18.653  0.00  0.00    +0.000 A 
ATOM     26  C   UNL     1       2.621  13.011  18.177  0.00  0.00    +0.000 A 
ATOM     27  C   UNL     1       2.935  14.394  18.172  0.00  0.00    +0.000 A 
ATOM     28  C   UNL     1       1.826  15.063  18.644  0.00  0.00    +0.000 A 
ATOM     29  N   UNL     1       0.858  14.133  18.912  0.00  0.00    +0.000 N 
ATOM     30  H   UNL     1      -0.059  14.328  19.280  0.00  0.00    +0.000 HD
ENDBRANCH  23  25
ENDBRANCH  22  23
ENDBRANCH   4  22
TORSDOF 7
ENDMDL
MODEL 7
REMARK VINA RESULT:      -7.3      2.378      8.068
REMARK  Name = 
REMARK  10 active torsions:
REMARK  status: ('A' for Active; 'I' for Inactive)
REMARK    1  A    between atoms: C_1  and  C_2
REMARK    2  A    between atoms: C_4  and  O_5
REMARK    3  A    between atoms: C_7  and  C_8
REMARK    4  A    between atoms: C_7  and  N_9
REMARK    5  A    between atoms: C_10  and  O_11
REMARK    6  A    between atoms: O_11  and  C_12
REMARK    7  A    between atoms: C_15  and  O_16
REMARK    8  A    between atoms: O_16  and  C_17
REMARK    9  A    between atoms: C_17  and  C_19
REMARK   10  A    between atoms: C_24  and  C_25
REMARK                            x       y       z     vdW  Elec       q    Type
REMARK                         _______ _______ _______ _____ _____    ______ ____
ROOT
ATOM      1  C   UNL     1       1.480   7.766  19.643  0.00  0.00    +0.000 C 
ATOM      2  C   UNL     1       2.607   7.766  18.603  0.00  0.00    +0.000 C 
ATOM      3  C   UNL     1       2.642   6.414  17.899  0.00  0.00    +0.000 C 
ATOM      4  C   UNL     1       2.881   5.321  18.944  0.00  0.00    +0.000 C 
ATOM      5  C   UNL     1       1.851   5.434  20.100  0.00  0.00    +0.000 C 
ATOM      6  C   UNL     1       2.264   4.517  21.249  0.00  0.00    +0.000 C 
ATOM      7  O   UNL     1       1.753   6.775  20.634  0.00  0.00    +0.000 OA
ENDROOT
BRANCH   1   8
ATOM      8  O   UNL     1       1.407   9.078  20.188  0.00  0.00    +0.000 OA
BRANCH   8  16
ATOM      9  C   UNL     1      -1.003  11.158  22.212  0.00  0.00    +0.000 C 
ATOM     10  C   UNL     1       0.279  10.581  21.611  0.00  0.00    +0.000 C 
ATOM     11  O   UNL     1       1.311  11.582  21.525  0.00  0.00    +0.000 OA
ATOM     12  C   UNL     1       1.232  12.463  20.416  0.00  0.00    +0.000 C 
ATOM     13  C   UNL     1       1.075  11.754  19.061  0.00  0.00    +0.000 C 
ATOM     14  C   UNL     1      -0.123  10.787  19.084  0.00  0.00    +0.000 C 
ATOM     15  C   UNL     1      -1.439  11.595  19.174  0.00  0.00    +0.000 C 
ATOM     16  C   UNL     1       0.135   9.791  20.272  0.00  0.00    +0.000 C 
BRANCH  14  17
ATOM     17  N   UNL     1      -0.336  10.093  17.797  0.00  0.00    +0.000 NA
ATOM     18  H   UNL     1       0.526   9.768  17.376  0.00  0.00    +0.000 HD
ATOM     19  H   UNL     1      -0.998   9.323  17.884  0.00  0.00    +0.000 HD
ENDBRANCH  14  17
BRANCH  12  20
ATOM     20  O   UNL     1       2.430  13.222  20.400  0.00  0.00    +0.000 OA
ATOM     21  H   UNL     1       3.126  12.556  20.273  0.00  0.00    +0.000 HD
ENDBRANCH  12  20
ENDBRANCH   8  16
ENDBRANCH   1   8
BRANCH   4  22
ATOM     22  O   UNL     1       3.013   4.004  18.348  0.00  0.00    +0.000 OA
BRANCH  22  23
ATOM     23  C   UNL     1       4.160   3.297  18.533  0.00  0.00    +0.000 C 
ATOM     24  O   UNL     1       4.272   2.327  19.269  0.00  0.00    +0.000 OA
BRANCH  23  25
ATOM     25  C   UNL     1       5.244   3.821  17.730  0.00  0.00    +0.000 A 
ATOM     26  C   UNL     1       5.374   4.093  16.376  0.00  0.00    +0.000 A 
ATOM     27  C   UNL     1       6.687   4.577  16.139  0.00  0.00    +0.000 A 
ATOM     28  C   UNL     1       7.337   4.594  17.354  0.00  0.00    +0.000 A 
ATOM     29  N   UNL     1       6.457   4.158  18.307  0.00  0.00    +0.000 N 
ATOM     30  H   UNL     1       6.657   4.054  19.289  0.00  0.00    +0.000 HD
ENDBRANCH  23  25
ENDBRANCH  22  23
ENDBRANCH   4  22
TORSDOF 7
ENDMDL
MODEL 8
REMARK VINA RESULT:      -7.2      1.566      2.288
REMARK  Name = 
REMARK  10 active torsions:
REMARK  status: ('A' for Active; 'I' for Inactive)
REMARK    1  A    between atoms: C_1  and  C_2
REMARK    2  A    between atoms: C_4  and  O_5
REMARK    3  A    between atoms: C_7  and  C_8
REMARK    4  A    between atoms: C_7  and  N_9
REMARK    5  A    between atoms: C_10  and  O_11
REMARK    6  A    between atoms: O_11  and  C_12
REMARK    7  A    between atoms: C_15  and  O_16
REMARK    8  A    between atoms: O_16  and  C_17
REMARK    9  A    between atoms: C_17  and  C_19
REMARK   10  A    between atoms: C_24  and  C_25
REMARK                            x       y       z     vdW  Elec       q    Type
REMARK                         _______ _______ _______ _____ _____    ______ ____
ROOT
ATOM      1  C   UNL     1       2.706   7.118  19.609  0.00  0.00    +0.000 C 
ATOM      2  C   UNL     1       2.239   7.492  18.197  0.00  0.00    +0.000 C 
ATOM      3  C   UNL     1       1.898   8.978  18.157  0.00  0.00    +0.000 C 
ATOM      4  C   UNL     1       0.790   9.256  19.176  0.00  0.00    +0.000 C 
ATOM      5  C   UNL     1       1.182   8.708  20.574  0.00  0.00    +0.000 C 
ATOM      6  C   UNL     1      -0.029   8.755  21.504  0.00  0.00    +0.000 C 
ATOM      7  O   UNL     1       1.639   7.336  20.531  0.00  0.00    +0.000 OA
ENDROOT
BRANCH   1   8
ATOM      8  O   UNL     1       3.125   5.759  19.570  0.00  0.00    +0.000 OA
BRANCH   8  16
ATOM      9  C   UNL     1       5.618   4.466  17.051  0.00  0.00    +0.000 C 
ATOM     10  C   UNL     1       4.924   4.828  18.364  0.00  0.00    +0.000 C 
ATOM     11  O   UNL     1       5.259   3.892  19.406  0.00  0.00    +0.000 OA
ATOM     12  C   UNL     1       4.534   2.672  19.402  0.00  0.00    +0.000 C 
ATOM     13  C   UNL     1       3.009   2.849  19.326  0.00  0.00    +0.000 C 
ATOM     14  C   UNL     1       2.618   3.726  18.123  0.00  0.00    +0.000 C 
ATOM     15  C   UNL     1       2.915   2.966  16.810  0.00  0.00    +0.000 C 
ATOM     16  C   UNL     1       3.385   5.086  18.299  0.00  0.00    +0.000 C 
BRANCH  14  17
ATOM     17  N   UNL     1       1.159   3.911  17.987  0.00  0.00    +0.000 NA
ATOM     18  H   UNL     1       0.873   4.879  18.073  0.00  0.00    +0.000 HD
ATOM     19  H   UNL     1       0.803   3.514  17.117  0.00  0.00    +0.000 HD
ENDBRANCH  14  17
BRANCH  12  20
ATOM     20  O   UNL     1       4.857   1.991  20.605  0.00  0.00    +0.000 OA
ATOM     21  H   UNL     1       5.288   1.175  20.302  0.00  0.00    +0.000 HD
ENDBRANCH  12  20
ENDBRANCH   8  16
ENDBRANCH   1   8
BRANCH   4  22
ATOM     22  O   UNL     1       0.342  10.636  19.145  0.00  0.00    +0.000 OA
BRANCH  22  23
ATOM     23  C   UNL     1      -0.896  10.929  18.665  0.00  0.00    +0.000 C 
ATOM     24  O   UNL     1      -1.328  10.563  17.581  0.00  0.00    +0.000 OA
BRANCH  23  25
ATOM     25  C   UNL     1      -1.660  11.719  19.606  0.00  0.00    +0.000 A 
ATOM     26  C   UNL     1      -1.448  12.086  20.927  0.00  0.00    +0.000 A 
ATOM     27  C   UNL     1      -2.556  12.855  21.364  0.00  0.00    +0.000 A 
ATOM     28  C   UNL     1      -3.429  12.947  20.301  0.00  0.00    +0.000 A 
ATOM     29  N   UNL     1      -2.873  12.279  19.243  0.00  0.00    +0.000 N 
ATOM     30  H   UNL     1      -3.291  12.169  18.333  0.00  0.00    +0.000 HD
ENDBRANCH  23  25
ENDBRANCH  22  23
ENDBRANCH   4  22
TORSDOF 7
ENDMDL
MODEL 9
REMARK VINA RESULT:      -7.2      1.722      2.376
REMARK  Name = 
REMARK  10 active torsions:
REMARK  status: ('A' for Active; 'I' for Inactive)
REMARK    1  A    between atoms: C_1  and  C_2
REMARK    2  A    between atoms: C_4  and  O_5
REMARK    3  A    between atoms: C_7  and  C_8
REMARK    4  A    between atoms: C_7  and  N_9
REMARK    5  A    between atoms: C_10  and  O_11
REMARK    6  A    between atoms: O_11  and  C_12
REMARK    7  A    between atoms: C_15  and  O_16
REMARK    8  A    between atoms: O_16  and  C_17
REMARK    9  A    between atoms: C_17  and  C_19
REMARK   10  A    between atoms: C_24  and  C_25
REMARK                            x       y       z     vdW  Elec       q    Type
REMARK                         _______ _______ _______ _____ _____    ______ ____
ROOT
ATOM      1  C   UNL     1       2.676   7.023  19.856  0.00  0.00    +0.000 C 
ATOM      2  C   UNL     1       2.260   7.602  18.499  0.00  0.00    +0.000 C 
ATOM      3  C   UNL     1       1.869   9.066  18.674  0.00  0.00    +0.000 C 
ATOM      4  C   UNL     1       0.707   9.148  19.667  0.00  0.00    +0.000 C 
ATOM      5  C   UNL     1       1.055   8.398  20.981  0.00  0.00    +0.000 C 
ATOM      6  C   UNL     1      -0.198   8.264  21.844  0.00  0.00    +0.000 C 
ATOM      7  O   UNL     1       1.562   7.063  20.747  0.00  0.00    +0.000 OA
ENDROOT
BRANCH   1   8
ATOM      8  O   UNL     1       3.144   5.699  19.626  0.00  0.00    +0.000 OA
BRANCH   8  16
ATOM      9  C   UNL     1       2.938   3.433  16.618  0.00  0.00    +0.000 C 
ATOM     10  C   UNL     1       3.449   4.183  17.847  0.00  0.00    +0.000 C 
ATOM     11  O   UNL     1       4.442   3.413  18.553  0.00  0.00    +0.000 OA
ATOM     12  C   UNL     1       3.946   2.404  19.419  0.00  0.00    +0.000 C 
ATOM     13  C   UNL     1       2.868   2.895  20.400  0.00  0.00    +0.000 C 
ATOM     14  C   UNL     1       1.719   3.589  19.649  0.00  0.00    +0.000 C 
ATOM     15  C   UNL     1       0.939   2.546  18.815  0.00  0.00    +0.000 C 
ATOM     16  C   UNL     1       2.372   4.756  18.822  0.00  0.00    +0.000 C 
BRANCH  14  17
ATOM     17  N   UNL     1       0.641   4.061  20.541  0.00  0.00    +0.000 NA
ATOM     18  H   UNL     1       0.635   3.590  21.438  0.00  0.00    +0.000 HD
ATOM     19  H   UNL     1       0.670   5.072  20.674  0.00  0.00    +0.000 HD
ENDBRANCH  14  17
BRANCH  12  20
ATOM     20  O   UNL     1       5.051   1.912  20.161  0.00  0.00    +0.000 OA
ATOM     21  H   UNL     1       5.436   1.232  19.583  0.00  0.00    +0.000 HD
ENDBRANCH  12  20
ENDBRANCH   8  16
ENDBRANCH   1   8
BRANCH   4  22
ATOM     22  O   UNL     1       0.213  10.504  19.830  0.00  0.00    +0.000 OA
BRANCH  22  23
ATOM     23  C   UNL     1      -0.183  11.209  18.737  0.00  0.00    +0.000 C 
ATOM     24  O   UNL     1      -1.007  10.825  17.919  0.00  0.00    +0.000 OA
BRANCH  23  25
ATOM     25  C   UNL     1       0.480  12.493  18.663  0.00  0.00    +0.000 A 
ATOM     26  C   UNL     1       0.077  13.786  18.964  0.00  0.00    +0.000 A 
ATOM     27  C   UNL     1       1.147  14.670  18.669  0.00  0.00    +0.000 A 
ATOM     28  C   UNL     1       2.188  13.902  18.195  0.00  0.00    +0.000 A 
ATOM     29  N   UNL     1       1.786  12.594  18.214  0.00  0.00    +0.000 N 
ATOM     30  H   UNL     1       2.336  11.805  17.912  0.00  0.00    +0.000 HD
ENDBRANCH  23  25
ENDBRANCH  22  23
ENDBRANCH   4  22
TORSDOF 7
ENDMDL
