MODEL 1
REMARK VINA RESULT:      -7.9      0.000      0.000
REMARK  Name = 
REMARK  9 active torsions:
REMARK  status: ('A' for Active; 'I' for Inactive)
REMARK    1  A    between atoms: C_1  and  O_2
REMARK    2  A    between atoms: O_2  and  C_3
REMARK    3  A    between atoms: C_5  and  O_6
REMARK    4  A    between atoms: O_6  and  C_7
REMARK    5  A    between atoms: C_9  and  C_10
REMARK    6  A    between atoms: C_13  and  C_14
REMARK    7  A    between atoms: C_18  and  N_19
REMARK    8  A    between atoms: N_19  and  C_20
REMARK    9  A    between atoms: N_19  and  C_21
REMARK                            x       y       z     vdW  Elec       q    Type
REMARK                         _______ _______ _______ _____ _____    ______ ____
ROOT
ATOM      1  C   UNL     1       1.942   6.335  20.208  0.00  0.00    +0.000 A 
ATOM      2  C   UNL     1       2.992   6.021  19.425  0.00  0.00    +0.000 A 
ATOM      3  N   UNL     1       3.355   4.689  19.303  0.00  0.00    +0.000 N 
ATOM      4  C   UNL     1       4.385   4.033  18.646  0.00  0.00    +0.000 A 
ATOM      5  C   UNL     1       4.121   2.692  18.901  0.00  0.00    +0.000 A 
ATOM      6  N   UNL     1       3.029   2.509  19.712  0.00  0.00    +0.000 NA
ATOM      7  C   UNL     1       2.604   3.731  19.939  0.00  0.00    +0.000 A 
ATOM      8  C   UNL     1       1.489   4.143  20.741  0.00  0.00    +0.000 A 
ATOM      9  N   UNL     1       1.173   5.399  20.883  0.00  0.00    +0.000 NA
ENDROOT
BRANCH   1  14
ATOM     10  C   UNL     1       0.826   9.570  21.775  0.00  0.00    +0.000 A 
ATOM     11  C   UNL     1       0.836  10.411  20.657  0.00  0.00    +0.000 A 
ATOM     12  C   UNL     1       1.199   9.925  19.398  0.00  0.00    +0.000 A 
ATOM     13  C   UNL     1       1.606   8.599  19.263  0.00  0.00    +0.000 A 
ATOM     14  C   UNL     1       1.585   7.747  20.370  0.00  0.00    +0.000 A 
ATOM     15  C   UNL     1       1.198   8.234  21.624  0.00  0.00    +0.000 A 
BRANCH  10  17
ATOM     16  C   UNL     1      -0.921  10.645  22.975  0.00  0.00    +0.000 C 
ATOM     17  O   UNL     1       0.414  10.150  22.945  0.00  0.00    +0.000 OA
ENDBRANCH  10  17
BRANCH  12  18
ATOM     18  O   UNL     1       1.137  10.819  18.363  0.00  0.00    +0.000 OA
ATOM     19  C   UNL     1       1.833  12.043  18.591  0.00  0.00    +0.000 C 
ENDBRANCH  12  18
ENDBRANCH   1  14
BRANCH   4  20
ATOM     20  C   UNL     1       5.458   4.654  17.863  0.00  0.00    +0.000 A 
ATOM     21  C   UNL     1       6.408   5.488  18.457  0.00  0.00    +0.000 A 
ATOM     22  C   UNL     1       7.373   6.116  17.683  0.00  0.00    +0.000 A 
ATOM     23  C   UNL     1       7.440   5.868  16.309  0.00  0.00    +0.000 A 
ATOM     24  C   UNL     1       6.551   4.995  15.664  0.00  0.00    +0.000 A 
ATOM     25  C   UNL     1       5.559   4.411  16.477  0.00  0.00    +0.000 A 
BRANCH  24  26
ATOM     26  N   UNL     1       6.609   4.749  14.301  0.00  0.00    +0.000 N 
ATOM     27  C   UNL     1       5.734   3.772  13.657  0.00  0.00    +0.000 C 
ATOM     28  C   UNL     1       7.699   5.238  13.462  0.00  0.00    +0.000 C 
ENDBRANCH  24  26
ENDBRANCH   4  20
TORSDOF 5
ENDMDL
MODEL 2
REMARK VINA RESULT:      -7.8      4.147      6.686
REMARK  Name = 
REMARK  9 active torsions:
REMARK  status: ('A' for Active; 'I' for Inactive)
REMARK    1  A    between atoms: C_1  and  O_2
REMARK    2  A    between atoms: O_2  and  C_3
REMARK    3  A    between atoms: C_5  and  O_6
REMARK    4  A    between atoms: O_6  and  C_7
REMARK    5  A    between atoms: C_9  and  C_10
REMARK    6  A    between atoms: C_13  and  C_14
REMARK    7  A    between atoms: C_18  and  N_19
REMARK    8  A    between atoms: N_19  and  C_20
REMARK    9  A    between atoms: N_19  and  C_21
REMARK                            x       y       z     vdW  Elec       q    Type
REMARK                         _______ _______ _______ _____ _____    ______ ____
ROOT
ATOM      1  C   UNL     1      -1.614  10.801  19.399  0.00  0.00    +0.000 A 
ATOM      2  C   UNL     1      -0.705   9.807  19.427  0.00  0.00    +0.000 A 
ATOM      3  N   UNL     1       0.101   9.676  20.546  0.00  0.00    +0.000 N 
ATOM      4  C   UNL     1       1.146   8.829  20.880  0.00  0.00    +0.000 A 
ATOM      5  C   UNL     1       1.466   9.213  22.177  0.00  0.00    +0.000 A 
ATOM      6  N   UNL     1       0.712  10.272  22.620  0.00  0.00    +0.000 NA
ATOM      7  C   UNL     1      -0.087  10.526  21.609  0.00  0.00    +0.000 A 
ATOM      8  C   UNL     1      -1.089  11.548  21.510  0.00  0.00    +0.000 A 
ATOM      9  N   UNL     1      -1.819  11.692  20.441  0.00  0.00    +0.000 NA
ENDROOT
BRANCH   1  14
ATOM     10  C   UNL     1      -4.488  11.717  17.147  0.00  0.00    +0.000 A 
ATOM     11  C   UNL     1      -4.029  11.206  15.928  0.00  0.00    +0.000 A 
ATOM     12  C   UNL     1      -2.792  10.561  15.842  0.00  0.00    +0.000 A 
ATOM     13  C   UNL     1      -1.982  10.471  16.972  0.00  0.00    +0.000 A 
ATOM     14  C   UNL     1      -2.437  10.965  18.197  0.00  0.00    +0.000 A 
ATOM     15  C   UNL     1      -3.687  11.589  18.282  0.00  0.00    +0.000 A 
BRANCH  10  17
ATOM     16  C   UNL     1      -6.382  12.469  18.369  0.00  0.00    +0.000 C 
ATOM     17  O   UNL     1      -5.731  12.292  17.115  0.00  0.00    +0.000 OA
ENDBRANCH  10  17
BRANCH  12  18
ATOM     18  O   UNL     1      -2.454  10.062  14.613  0.00  0.00    +0.000 OA
ATOM     19  C   UNL     1      -3.534   9.989  13.683  0.00  0.00    +0.000 C 
ENDBRANCH  12  18
ENDBRANCH   1  14
BRANCH   4  20
ATOM     20  C   UNL     1       1.724   7.777  20.035  0.00  0.00    +0.000 A 
ATOM     21  C   UNL     1       2.233   8.057  18.765  0.00  0.00    +0.000 A 
ATOM     22  C   UNL     1       2.712   7.035  17.961  0.00  0.00    +0.000 A 
ATOM     23  C   UNL     1       2.747   5.723  18.440  0.00  0.00    +0.000 A 
ATOM     24  C   UNL     1       2.304   5.387  19.729  0.00  0.00    +0.000 A 
ATOM     25  C   UNL     1       1.785   6.446  20.499  0.00  0.00    +0.000 A 
BRANCH  24  26
ATOM     26  N   UNL     1       2.332   4.087  20.209  0.00  0.00    +0.000 N 
ATOM     27  C   UNL     1       3.468   3.201  19.965  0.00  0.00    +0.000 C 
ATOM     28  C   UNL     1       1.151   3.427  20.755  0.00  0.00    +0.000 C 
ENDBRANCH  24  26
ENDBRANCH   4  20
TORSDOF 5
ENDMDL
MODEL 3
REMARK VINA RESULT:      -7.8      4.151      6.849
REMARK  Name = 
REMARK  9 active torsions:
REMARK  status: ('A' for Active; 'I' for Inactive)
REMARK    1  A    between atoms: C_1  and  O_2
REMARK    2  A    between atoms: O_2  and  C_3
REMARK    3  A    between atoms: C_5  and  O_6
REMARK    4  A    between atoms: O_6  and  C_7
REMARK    5  A    between atoms: C_9  and  C_10
REMARK    6  A    between atoms: C_13  and  C_14
REMARK    7  A    between atoms: C_18  and  N_19
REMARK    8  A    between atoms: N_19  and  C_20
REMARK    9  A    between atoms: N_19  and  C_21
REMARK                            x       y       z     vdW  Elec       q    Type
REMARK                         _______ _______ _______ _____ _____    ______ ____
ROOT
ATOM      1  C   UNL     1      -1.566  10.668  19.310  0.00  0.00    +0.000 A 
ATOM      2  C   UNL     1      -0.651   9.680  19.335  0.00  0.00    +0.000 A 
ATOM      3  N   UNL     1       0.186   9.578  20.435  0.00  0.00    +0.000 N 
ATOM      4  C   UNL     1       1.244   8.743  20.759  0.00  0.00    +0.000 A 
ATOM      5  C   UNL     1       1.597   9.158  22.038  0.00  0.00    +0.000 A 
ATOM      6  N   UNL     1       0.849  10.222  22.477  0.00  0.00    +0.000 NA
ATOM      7  C   UNL     1       0.021  10.449  21.483  0.00  0.00    +0.000 A 
ATOM      8  C   UNL     1      -0.989  11.463  21.390  0.00  0.00    +0.000 A 
ATOM      9  N   UNL     1      -1.749  11.580  20.338  0.00  0.00    +0.000 NA
ENDROOT
BRANCH   1  14
ATOM     10  C   UNL     1      -2.794  10.451  15.759  0.00  0.00    +0.000 A 
ATOM     11  C   UNL     1      -4.017  11.122  15.870  0.00  0.00    +0.000 A 
ATOM     12  C   UNL     1      -4.435  11.648  17.095  0.00  0.00    +0.000 A 
ATOM     13  C   UNL     1      -3.651  11.457  18.231  0.00  0.00    +0.000 A 
ATOM     14  C   UNL     1      -2.423  10.801  18.128  0.00  0.00    +0.000 A 
ATOM     15  C   UNL     1      -1.997  10.296  16.893  0.00  0.00    +0.000 A 
BRANCH  10  17
ATOM     16  C   UNL     1      -3.539   9.953  13.558  0.00  0.00    +0.000 C 
ATOM     17  O   UNL     1      -2.474  10.015  14.500  0.00  0.00    +0.000 OA
ENDBRANCH  10  17
BRANCH  12  18
ATOM     18  O   UNL     1      -5.627  12.322  17.089  0.00  0.00    +0.000 OA
ATOM     19  C   UNL     1      -6.560  11.890  18.078  0.00  0.00    +0.000 C 
ENDBRANCH  12  18
ENDBRANCH   1  14
BRANCH   4  20
ATOM     20  C   UNL     1       1.805   7.676  19.922  0.00  0.00    +0.000 A 
ATOM     21  C   UNL     1       2.320   7.939  18.651  0.00  0.00    +0.000 A 
ATOM     22  C   UNL     1       2.783   6.904  17.853  0.00  0.00    +0.000 A 
ATOM     23  C   UNL     1       2.796   5.594  18.342  0.00  0.00    +0.000 A 
ATOM     24  C   UNL     1       2.346   5.275  19.632  0.00  0.00    +0.000 A 
ATOM     25  C   UNL     1       1.843   6.348  20.394  0.00  0.00    +0.000 A 
BRANCH  24  26
ATOM     26  N   UNL     1       2.351   3.977  20.120  0.00  0.00    +0.000 N 
ATOM     27  C   UNL     1       1.256   3.458  20.937  0.00  0.00    +0.000 C 
ATOM     28  C   UNL     1       3.539   3.130  20.084  0.00  0.00    +0.000 C 
ENDBRANCH  24  26
ENDBRANCH   4  20
TORSDOF 5
ENDMDL
MODEL 4
REMARK VINA RESULT:      -7.8      0.174      2.181
REMARK  Name = 
REMARK  9 active torsions:
REMARK  status: ('A' for Active; 'I' for Inactive)
REMARK    1  A    between atoms: C_1  and  O_2
REMARK    2  A    between atoms: O_2  and  C_3
REMARK    3  A    between atoms: C_5  and  O_6
REMARK    4  A    between atoms: O_6  and  C_7
REMARK    5  A    between atoms: C_9  and  C_10
REMARK    6  A    between atoms: C_13  and  C_14
REMARK    7  A    between atoms: C_18  and  N_19
REMARK    8  A    between atoms: N_19  and  C_20
REMARK    9  A    between atoms: N_19  and  C_21
REMARK                            x       y       z     vdW  Elec       q    Type
REMARK                         _______ _______ _______ _____ _____    ______ ____
ROOT
ATOM      1  C   UNL     1       1.981   6.305  20.292  0.00  0.00    +0.000 A 
ATOM      2  C   UNL     1       3.036   6.017  19.505  0.00  0.00    +0.000 A 
ATOM      3  N   UNL     1       3.463   4.701  19.425  0.00  0.00    +0.000 N 
ATOM      4  C   UNL     1       4.516   4.073  18.776  0.00  0.00    +0.000 A 
ATOM      5  C   UNL     1       4.323   2.731  19.081  0.00  0.00    +0.000 A 
ATOM      6  N   UNL     1       3.252   2.523  19.914  0.00  0.00    +0.000 NA
ATOM      7  C   UNL     1       2.769   3.730  20.105  0.00  0.00    +0.000 A 
ATOM      8  C   UNL     1       1.645   4.115  20.907  0.00  0.00    +0.000 A 
ATOM      9  N   UNL     1       1.269   5.358  21.011  0.00  0.00    +0.000 NA
ENDROOT
BRANCH   1  14
ATOM     10  C   UNL     1       1.239   9.889  19.412  0.00  0.00    +0.000 A 
ATOM     11  C   UNL     1       0.821  10.375  20.655  0.00  0.00    +0.000 A 
ATOM     12  C   UNL     1       0.787   9.542  21.776  0.00  0.00    +0.000 A 
ATOM     13  C   UNL     1       1.124   8.196  21.643  0.00  0.00    +0.000 A 
ATOM     14  C   UNL     1       1.556   7.704  20.410  0.00  0.00    +0.000 A 
ATOM     15  C   UNL     1       1.611   8.550  19.296  0.00  0.00    +0.000 A 
BRANCH  10  17
ATOM     16  C   UNL     1       1.505  12.163  18.774  0.00  0.00    +0.000 C 
ATOM     17  O   UNL     1       1.269  10.810  18.398  0.00  0.00    +0.000 OA
ENDBRANCH  10  17
BRANCH  12  18
ATOM     18  O   UNL     1       0.402  10.125  22.953  0.00  0.00    +0.000 OA
ATOM     19  C   UNL     1      -0.838  10.828  22.891  0.00  0.00    +0.000 C 
ENDBRANCH  12  18
ENDBRANCH   1  14
BRANCH   4  20
ATOM     20  C   UNL     1       5.547   4.719  17.956  0.00  0.00    +0.000 A 
ATOM     21  C   UNL     1       6.410   5.679  18.489  0.00  0.00    +0.000 A 
ATOM     22  C   UNL     1       7.332   6.322  17.677  0.00  0.00    +0.000 A 
ATOM     23  C   UNL     1       7.446   5.968  16.329  0.00  0.00    +0.000 A 
ATOM     24  C   UNL     1       6.647   4.971  15.749  0.00  0.00    +0.000 A 
ATOM     25  C   UNL     1       5.695   4.372  16.597  0.00  0.00    +0.000 A 
BRANCH  24  26
ATOM     26  N   UNL     1       6.753   4.619  14.412  0.00  0.00    +0.000 N 
ATOM     27  C   UNL     1       7.706   5.271  13.518  0.00  0.00    +0.000 C 
ATOM     28  C   UNL     1       5.766   3.777  13.743  0.00  0.00    +0.000 C 
ENDBRANCH  24  26
ENDBRANCH   4  20
TORSDOF 5
ENDMDL
MODEL 5
REMARK VINA RESULT:      -7.6      1.226      2.102
REMARK  Name = 
REMARK  9 active torsions:
REMARK  status: ('A' for Active; 'I' for Inactive)
REMARK    1  A    between atoms: C_1  and  O_2
REMARK    2  A    between atoms: O_2  and  C_3
REMARK    3  A    between atoms: C_5  and  O_6
REMARK    4  A    between atoms: O_6  and  C_7
REMARK    5  A    between atoms: C_9  and  C_10
REMARK    6  A    between atoms: C_13  and  C_14
REMARK    7  A    between atoms: C_18  and  N_19
REMARK    8  A    between atoms: N_19  and  C_20
REMARK    9  A    between atoms: N_19  and  C_21
REMARK                            x       y       z     vdW  Elec       q    Type
REMARK                         _______ _______ _______ _____ _____    ______ ____
ROOT
ATOM      1  C   UNL     1       1.694   5.776  19.961  0.00  0.00    +0.000 A 
ATOM      2  C   UNL     1       2.688   5.471  19.104  0.00  0.00    +0.000 A 
ATOM      3  N   UNL     1       2.939   4.137  18.827  0.00  0.00    +0.000 N 
ATOM      4  C   UNL     1       3.890   3.480  18.060  0.00  0.00    +0.000 A 
ATOM      5  C   UNL     1       3.530   2.144  18.182  0.00  0.00    +0.000 A 
ATOM      6  N   UNL     1       2.456   1.956  19.016  0.00  0.00    +0.000 NA
ATOM      7  C   UNL     1       2.138   3.174  19.389  0.00  0.00    +0.000 A 
ATOM      8  C   UNL     1       1.087   3.580  20.277  0.00  0.00    +0.000 A 
ATOM      9  N   UNL     1       0.878   4.833  20.566  0.00  0.00    +0.000 NA
ENDROOT
BRANCH   1  14
ATOM     10  C   UNL     1       0.736   8.880  21.861  0.00  0.00    +0.000 A 
ATOM     11  C   UNL     1       0.935   9.853  20.876  0.00  0.00    +0.000 A 
ATOM     12  C   UNL     1       1.372   9.499  19.597  0.00  0.00    +0.000 A 
ATOM     13  C   UNL     1       1.665   8.167  19.314  0.00  0.00    +0.000 A 
ATOM     14  C   UNL     1       1.457   7.185  20.286  0.00  0.00    +0.000 A 
ATOM     15  C   UNL     1       0.996   7.544  21.559  0.00  0.00    +0.000 A 
BRANCH  10  17
ATOM     16  C   UNL     1      -0.747  10.341  23.006  0.00  0.00    +0.000 C 
ATOM     17  O   UNL     1       0.268   9.344  23.062  0.00  0.00    +0.000 OA
ENDBRANCH  10  17
BRANCH  12  18
ATOM     18  O   UNL     1       1.495  10.521  18.694  0.00  0.00    +0.000 OA
ATOM     19  C   UNL     1       0.789  11.710  19.043  0.00  0.00    +0.000 C 
ENDBRANCH  12  18
ENDBRANCH   1  14
BRANCH   4  20
ATOM     20  C   UNL     1       4.982   4.101  17.300  0.00  0.00    +0.000 A 
ATOM     21  C   UNL     1       5.249   3.739  15.978  0.00  0.00    +0.000 A 
ATOM     22  C   UNL     1       6.328   4.292  15.305  0.00  0.00    +0.000 A 
ATOM     23  C   UNL     1       7.119   5.264  15.924  0.00  0.00    +0.000 A 
ATOM     24  C   UNL     1       6.865   5.711  17.230  0.00  0.00    +0.000 A 
ATOM     25  C   UNL     1       5.787   5.094  17.896  0.00  0.00    +0.000 A 
BRANCH  24  26
ATOM     26  N   UNL     1       7.648   6.670  17.853  0.00  0.00    +0.000 N 
ATOM     27  C   UNL     1       8.260   6.436  19.159  0.00  0.00    +0.000 C 
ATOM     28  C   UNL     1       7.708   8.054  17.391  0.00  0.00    +0.000 C 
ENDBRANCH  24  26
ENDBRANCH   4  20
TORSDOF 5
ENDMDL
MODEL 6
REMARK VINA RESULT:      -7.4      1.170      2.912
REMARK  Name = 
REMARK  9 active torsions:
REMARK  status: ('A' for Active; 'I' for Inactive)
REMARK    1  A    between atoms: C_1  and  O_2
REMARK    2  A    between atoms: O_2  and  C_3
REMARK    3  A    between atoms: C_5  and  O_6
REMARK    4  A    between atoms: O_6  and  C_7
REMARK    5  A    between atoms: C_9  and  C_10
REMARK    6  A    between atoms: C_13  and  C_14
REMARK    7  A    between atoms: C_18  and  N_19
REMARK    8  A    between atoms: N_19  and  C_20
REMARK    9  A    between atoms: N_19  and  C_21
REMARK                            x       y       z     vdW  Elec       q    Type
REMARK                         _______ _______ _______ _____ _____    ______ ____
ROOT
ATOM      1  C   UNL     1       1.713   5.924  20.008  0.00  0.00    +0.000 A 
ATOM      2  C   UNL     1       2.709   5.597  19.162  0.00  0.00    +0.000 A 
ATOM      3  N   UNL     1       2.981   4.255  18.944  0.00  0.00    +0.000 N 
ATOM      4  C   UNL     1       3.940   3.581  18.204  0.00  0.00    +0.000 A 
ATOM      5  C   UNL     1       3.602   2.245  18.388  0.00  0.00    +0.000 A 
ATOM      6  N   UNL     1       2.533   2.078  19.233  0.00  0.00    +0.000 NA
ATOM      7  C   UNL     1       2.197   3.307  19.552  0.00  0.00    +0.000 A 
ATOM      8  C   UNL     1       1.142   3.735  20.425  0.00  0.00    +0.000 A 
ATOM      9  N   UNL     1       0.913   4.996  20.657  0.00  0.00    +0.000 NA
ENDROOT
BRANCH   1  14
ATOM     10  C   UNL     1       1.403   9.641  19.504  0.00  0.00    +0.000 A 
ATOM     11  C   UNL     1       1.033  10.042  20.792  0.00  0.00    +0.000 A 
ATOM     12  C   UNL     1       0.891   9.107  21.821  0.00  0.00    +0.000 A 
ATOM     13  C   UNL     1       1.070   7.753  21.549  0.00  0.00    +0.000 A 
ATOM     14  C   UNL     1       1.453   7.343  20.270  0.00  0.00    +0.000 A 
ATOM     15  C   UNL     1       1.617   8.287  19.249  0.00  0.00    +0.000 A 
BRANCH  10  17
ATOM     16  C   UNL     1       0.936  11.895  18.915  0.00  0.00    +0.000 C 
ATOM     17  O   UNL     1       1.550  10.651  18.591  0.00  0.00    +0.000 OA
ENDBRANCH  10  17
BRANCH  12  18
ATOM     18  O   UNL     1       0.566   9.607  23.053  0.00  0.00    +0.000 OA
ATOM     19  C   UNL     1      -0.676  10.308  23.102  0.00  0.00    +0.000 C 
ENDBRANCH  12  18
ENDBRANCH   1  14
BRANCH   4  20
ATOM     20  C   UNL     1       5.019   4.184  17.413  0.00  0.00    +0.000 A 
ATOM     21  C   UNL     1       5.270   3.788  16.098  0.00  0.00    +0.000 A 
ATOM     22  C   UNL     1       6.338   4.326  15.395  0.00  0.00    +0.000 A 
ATOM     23  C   UNL     1       7.134   5.316  15.978  0.00  0.00    +0.000 A 
ATOM     24  C   UNL     1       6.896   5.797  17.275  0.00  0.00    +0.000 A 
ATOM     25  C   UNL     1       5.830   5.195  17.971  0.00  0.00    +0.000 A 
BRANCH  24  26
ATOM     26  N   UNL     1       7.685   6.775  17.861  0.00  0.00    +0.000 N 
ATOM     27  C   UNL     1       8.346   6.562  19.147  0.00  0.00    +0.000 C 
ATOM     28  C   UNL     1       7.705   8.154  17.385  0.00  0.00    +0.000 C 
ENDBRANCH  24  26
ENDBRANCH   4  20
TORSDOF 5
ENDMDL
MODEL 7
REMARK VINA RESULT:      -7.4      0.953      2.439
REMARK  Name = 
REMARK  9 active torsions:
REMARK  status: ('A' for Active; 'I' for Inactive)
REMARK    1  A    between atoms: C_1  and  O_2
REMARK    2  A    between atoms: O_2  and  C_3
REMARK    3  A    between atoms: C_5  and  O_6
REMARK    4  A    between atoms: O_6  and  C_7
REMARK    5  A    between atoms: C_9  and  C_10
REMARK    6  A    between atoms: C_13  and  C_14
REMARK    7  A    between atoms: C_18  and  N_19
REMARK    8  A    between atoms: N_19  and  C_20
REMARK    9  A    between atoms: N_19  and  C_21
REMARK                            x       y       z     vdW  Elec       q    Type
REMARK                         _______ _______ _______ _____ _____    ______ ____
ROOT
ATOM      1  C   UNL     1       2.019   5.813  19.614  0.00  0.00    +0.000 A 
ATOM      2  C   UNL     1       2.966   5.461  18.723  0.00  0.00    +0.000 A 
ATOM      3  N   UNL     1       3.230   4.113  18.533  0.00  0.00    +0.000 N 
ATOM      4  C   UNL     1       4.147   3.417  17.761  0.00  0.00    +0.000 A 
ATOM      5  C   UNL     1       3.826   2.087  18.008  0.00  0.00    +0.000 A 
ATOM      6  N   UNL     1       2.809   1.946  18.919  0.00  0.00    +0.000 NA
ATOM      7  C   UNL     1       2.486   3.184  19.217  0.00  0.00    +0.000 A 
ATOM      8  C   UNL     1       1.482   3.638  20.135  0.00  0.00    +0.000 A 
ATOM      9  N   UNL     1       1.263   4.906  20.339  0.00  0.00    +0.000 NA
ENDROOT
BRANCH   1  14
ATOM     10  C   UNL     1       1.685   9.514  19.012  0.00  0.00    +0.000 A 
ATOM     11  C   UNL     1       1.370   9.954  20.302  0.00  0.00    +0.000 A 
ATOM     12  C   UNL     1       1.273   9.051  21.364  0.00  0.00    +0.000 A 
ATOM     13  C   UNL     1       1.441   7.688  21.126  0.00  0.00    +0.000 A 
ATOM     14  C   UNL     1       1.770   7.239  19.844  0.00  0.00    +0.000 A 
ATOM     15  C   UNL     1       1.888   8.152  18.789  0.00  0.00    +0.000 A 
BRANCH  10  17
ATOM     16  C   UNL     1       1.782  11.839  18.536  0.00  0.00    +0.000 C 
ATOM     17  O   UNL     1       1.790  10.496  18.064  0.00  0.00    +0.000 OA
ENDBRANCH  10  17
BRANCH  12  18
ATOM     18  O   UNL     1       1.001   9.587  22.593  0.00  0.00    +0.000 OA
ATOM     19  C   UNL     1      -0.382   9.593  22.947  0.00  0.00    +0.000 C 
ENDBRANCH  12  18
ENDBRANCH   1  14
BRANCH   4  20
ATOM     20  C   UNL     1       5.176   3.996  16.890  0.00  0.00    +0.000 A 
ATOM     21  C   UNL     1       6.156   4.857  17.389  0.00  0.00    +0.000 A 
ATOM     22  C   UNL     1       7.077   5.442  16.534  0.00  0.00    +0.000 A 
ATOM     23  C   UNL     1       7.070   5.126  15.172  0.00  0.00    +0.000 A 
ATOM     24  C   UNL     1       6.148   4.223  14.621  0.00  0.00    +0.000 A 
ATOM     25  C   UNL     1       5.202   3.683  15.515  0.00  0.00    +0.000 A 
BRANCH  24  26
ATOM     26  N   UNL     1       6.132   3.909  13.271  0.00  0.00    +0.000 N 
ATOM     27  C   UNL     1       7.240   4.261  12.386  0.00  0.00    +0.000 C 
ATOM     28  C   UNL     1       4.928   3.448  12.587  0.00  0.00    +0.000 C 
ENDBRANCH  24  26
ENDBRANCH   4  20
TORSDOF 5
ENDMDL
MODEL 8
REMARK VINA RESULT:      -7.0      4.047      6.420
REMARK  Name = 
REMARK  9 active torsions:
REMARK  status: ('A' for Active; 'I' for Inactive)
REMARK    1  A    between atoms: C_1  and  O_2
REMARK    2  A    between atoms: O_2  and  C_3
REMARK    3  A    between atoms: C_5  and  O_6
REMARK    4  A    between atoms: O_6  and  C_7
REMARK    5  A    between atoms: C_9  and  C_10
REMARK    6  A    between atoms: C_13  and  C_14
REMARK    7  A    between atoms: C_18  and  N_19
REMARK    8  A    between atoms: N_19  and  C_20
REMARK    9  A    between atoms: N_19  and  C_21
REMARK                            x       y       z     vdW  Elec       q    Type
REMARK                         _______ _______ _______ _____ _____    ______ ____
ROOT
ATOM      1  C   UNL     1      -1.324  10.544  19.358  0.00  0.00    +0.000 A 
ATOM      2  C   UNL     1      -0.575   9.435  19.506  0.00  0.00    +0.000 A 
ATOM      3  N   UNL     1       0.305   9.366  20.575  0.00  0.00    +0.000 N 
ATOM      4  C   UNL     1       1.239   8.428  20.987  0.00  0.00    +0.000 A 
ATOM      5  C   UNL     1       1.734   8.970  22.168  0.00  0.00    +0.000 A 
ATOM      6  N   UNL     1       1.192  10.197  22.458  0.00  0.00    +0.000 NA
ATOM      7  C   UNL     1       0.347  10.403  21.474  0.00  0.00    +0.000 A 
ATOM      8  C   UNL     1      -0.496  11.543  21.257  0.00  0.00    +0.000 A 
ATOM      9  N   UNL     1      -1.294  11.621  20.231  0.00  0.00    +0.000 NA
ENDROOT
BRANCH   1  14
ATOM     10  C   UNL     1      -2.707  10.143  15.880  0.00  0.00    +0.000 A 
ATOM     11  C   UNL     1      -3.897  10.870  15.994  0.00  0.00    +0.000 A 
ATOM     12  C   UNL     1      -4.244  11.493  17.196  0.00  0.00    +0.000 A 
ATOM     13  C   UNL     1      -3.421  11.346  18.310  0.00  0.00    +0.000 A 
ATOM     14  C   UNL     1      -2.223  10.634  18.203  0.00  0.00    +0.000 A 
ATOM     15  C   UNL     1      -1.870  10.032  16.990  0.00  0.00    +0.000 A 
BRANCH  10  17
ATOM     16  C   UNL     1      -3.385   9.936  13.612  0.00  0.00    +0.000 C 
ATOM     17  O   UNL     1      -2.457   9.613  14.642  0.00  0.00    +0.000 OA
ENDBRANCH  10  17
BRANCH  12  18
ATOM     18  O   UNL     1      -5.408  12.214  17.191  0.00  0.00    +0.000 OA
ATOM     19  C   UNL     1      -5.847  12.642  18.479  0.00  0.00    +0.000 C 
ENDBRANCH  12  18
ENDBRANCH   1  14
BRANCH   4  20
ATOM     20  C   UNL     1       1.571   7.168  20.313  0.00  0.00    +0.000 A 
ATOM     21  C   UNL     1       0.995   5.957  20.703  0.00  0.00    +0.000 A 
ATOM     22  C   UNL     1       1.375   4.771  20.093  0.00  0.00    +0.000 A 
ATOM     23  C   UNL     1       2.292   4.787  19.038  0.00  0.00    +0.000 A 
ATOM     24  C   UNL     1       2.861   5.978  18.562  0.00  0.00    +0.000 A 
ATOM     25  C   UNL     1       2.482   7.156  19.236  0.00  0.00    +0.000 A 
BRANCH  24  26
ATOM     26  N   UNL     1       3.775   6.001  17.520  0.00  0.00    +0.000 N 
ATOM     27  C   UNL     1       4.308   4.771  16.937  0.00  0.00    +0.000 C 
ATOM     28  C   UNL     1       4.462   7.220  17.106  0.00  0.00    +0.000 C 
ENDBRANCH  24  26
ENDBRANCH   4  20
TORSDOF 5
ENDMDL
MODEL 9
REMARK VINA RESULT:      -6.9      3.979      6.097
REMARK  Name = 
REMARK  9 active torsions:
REMARK  status: ('A' for Active; 'I' for Inactive)
REMARK    1  A    between atoms: C_1  and  O_2
REMARK    2  A    between atoms: O_2  and  C_3
REMARK    3  A    between atoms: C_5  and  O_6
REMARK    4  A    between atoms: O_6  and  C_7
REMARK    5  A    between atoms: C_9  and  C_10
REMARK    6  A    between atoms: C_13  and  C_14
REMARK    7  A    between atoms: C_18  and  N_19
REMARK    8  A    between atoms: N_19  and  C_20
REMARK    9  A    between atoms: N_19  and  C_21
REMARK                            x       y       z     vdW  Elec       q    Type
REMARK                         _______ _______ _______ _____ _____    ______ ____
ROOT
ATOM      1  C   UNL     1      -1.197  10.546  19.416  0.00  0.00    +0.000 A 
ATOM      2  C   UNL     1      -0.467   9.422  19.547  0.00  0.00    +0.000 A 
ATOM      3  N   UNL     1       0.410   9.321  20.616  0.00  0.00    +0.000 N 
ATOM      4  C   UNL     1       1.328   8.360  21.014  0.00  0.00    +0.000 A 
ATOM      5  C   UNL     1       1.830   8.874  22.204  0.00  0.00    +0.000 A 
ATOM      6  N   UNL     1       1.308  10.106  22.514  0.00  0.00    +0.000 NA
ATOM      7  C   UNL     1       0.469  10.342  21.532  0.00  0.00    +0.000 A 
ATOM      8  C   UNL     1      -0.355  11.500  21.333  0.00  0.00    +0.000 A 
ATOM      9  N   UNL     1      -1.150  11.608  20.307  0.00  0.00    +0.000 NA
ENDROOT
BRANCH   1  14
ATOM     10  C   UNL     1      -4.146  11.506  17.284  0.00  0.00    +0.000 A 
ATOM     11  C   UNL     1      -3.828  10.839  16.095  0.00  0.00    +0.000 A 
ATOM     12  C   UNL     1      -2.662  10.076  15.991  0.00  0.00    +0.000 A 
ATOM     13  C   UNL     1      -1.779  10.020  17.067  0.00  0.00    +0.000 A 
ATOM     14  C   UNL     1      -2.093  10.670  18.263  0.00  0.00    +0.000 A 
ATOM     15  C   UNL     1      -3.274  11.413  18.368  0.00  0.00    +0.000 A 
BRANCH  10  17
ATOM     16  C   UNL     1      -6.103  12.136  18.474  0.00  0.00    +0.000 C 
ATOM     17  O   UNL     1      -5.334  12.188  17.277  0.00  0.00    +0.000 OA
ENDBRANCH  10  17
BRANCH  12  18
ATOM     18  O   UNL     1      -2.465   9.431  14.800  0.00  0.00    +0.000 OA
ATOM     19  C   UNL     1      -3.176   9.989  13.697  0.00  0.00    +0.000 C 
ENDBRANCH  12  18
ENDBRANCH   1  14
BRANCH   4  20
ATOM     20  C   UNL     1       1.639   7.106  20.320  0.00  0.00    +0.000 A 
ATOM     21  C   UNL     1       1.055   5.896  20.700  0.00  0.00    +0.000 A 
ATOM     22  C   UNL     1       1.416   4.714  20.070  0.00  0.00    +0.000 A 
ATOM     23  C   UNL     1       2.321   4.735  19.006  0.00  0.00    +0.000 A 
ATOM     24  C   UNL     1       2.897   5.926  18.540  0.00  0.00    +0.000 A 
ATOM     25  C   UNL     1       2.538   7.099  19.233  0.00  0.00    +0.000 A 
BRANCH  24  26
ATOM     26  N   UNL     1       3.800   5.953  17.488  0.00  0.00    +0.000 N 
ATOM     27  C   UNL     1       4.317   4.726  16.886  0.00  0.00    +0.000 C 
ATOM     28  C   UNL     1       4.493   7.171  17.080  0.00  0.00    +0.000 C 
ENDBRANCH  24  26
ENDBRANCH   4  20
TORSDOF 5
ENDMDL
