MODEL 1
REMARK VINA RESULT:      -8.0      0.000      0.000
REMARK  Name = 
REMARK  7 active torsions:
REMARK  status: ('A' for Active; 'I' for Inactive)
REMARK    1  A    between atoms: C_1  and  C_2
REMARK    2  A    between atoms: C_7  and  N_8
REMARK    3  A    between atoms: C_9  and  C_11
REMARK    4  A    between atoms: C_11  and  O_12
REMARK    5  A    between atoms: O_12  and  C_13
REMARK    6  A    between atoms: C_13  and  C_15
REMARK    7  A    between atoms: C_18  and  O_19
REMARK                            x       y       z     vdW  Elec       q    Type
REMARK                         _______ _______ _______ _____ _____    ______ ____
ROOT
ATOM      1  C   UNL     1       5.842   5.174  18.876  0.00  0.00    +0.000 C 
ATOM      2  O   UNL     1       6.661   4.891  19.743  0.00  0.00    +0.000 OA
ENDROOT
BRANCH   1   3
ATOM      3  C   UNL     1       4.663   4.334  18.510  0.00  0.00    +0.000 A 
ATOM      4  N   UNL     1       4.905   3.338  17.613  0.00  0.00    +0.000 NA
ATOM      5  N   UNL     1       3.916   2.454  17.310  0.00  0.00    +0.000 NA
ATOM      6  C   UNL     1       2.723   2.576  17.922  0.00  0.00    +0.000 A 
ATOM      7  C   UNL     1       2.409   3.577  18.840  0.00  0.00    +0.000 A 
ATOM      8  C   UNL     1       1.152   3.672  19.477  0.00  0.00    +0.000 A 
ATOM      9  C   UNL     1       0.877   4.697  20.379  0.00  0.00    +0.000 A 
ATOM     10  C   UNL     1       1.840   5.662  20.641  0.00  0.00    +0.000 A 
ATOM     11  C   UNL     1       3.086   5.583  20.021  0.00  0.00    +0.000 A 
ATOM     12  C   UNL     1       3.412   4.525  19.135  0.00  0.00    +0.000 A 
BRANCH   6  13
ATOM     13  O   UNL     1       1.813   1.622  17.577  0.00  0.00    +0.000 OA
ATOM     14  H   UNL     1       1.255   1.581  18.374  0.00  0.00    +0.000 HD
ENDBRANCH   6  13
ENDBRANCH   1   3
BRANCH   1  15
ATOM     15  O   UNL     1       5.874   6.324  18.159  0.00  0.00    +0.000 OA
BRANCH  15  16
ATOM     16  C   UNL     1       7.100   6.513  17.449  0.00  0.00    +0.000 C 
BRANCH  16  18
ATOM     17  N   UNL     1       6.556   5.747  15.162  0.00  0.00    +0.000 N 
ATOM     18  C   UNL     1       7.258   5.473  16.336  0.00  0.00    +0.000 C 
ATOM     19  O   UNL     1       7.954   4.481  16.556  0.00  0.00    +0.000 OA
ATOM     20  H   UNL     1       5.998   6.596  15.153  0.00  0.00    +0.000 HD
BRANCH  17  27
ATOM     21  C   UNL     1       8.764   5.757  13.144  0.00  0.00    +0.000 C 
ATOM     22  C   UNL     1       7.517   4.919  13.038  0.00  0.00    +0.000 A 
ATOM     23  C   UNL     1       7.399   4.093  11.894  0.00  0.00    +0.000 A 
ATOM     24  C   UNL     1       6.291   3.275  11.700  0.00  0.00    +0.000 A 
ATOM     25  C   UNL     1       5.282   3.266  12.647  0.00  0.00    +0.000 A 
ATOM     26  C   UNL     1       5.381   4.075  13.781  0.00  0.00    +0.000 A 
ATOM     27  C   UNL     1       6.484   4.913  14.005  0.00  0.00    +0.000 A 
ENDBRANCH  17  27
ENDBRANCH  16  18
ENDBRANCH  15  16
ENDBRANCH   1  15
TORSDOF 6
ENDMDL
MODEL 2
REMARK VINA RESULT:      -7.9      3.064      4.746
REMARK  Name = 
REMARK  7 active torsions:
REMARK  status: ('A' for Active; 'I' for Inactive)
REMARK    1  A    between atoms: C_1  and  C_2
REMARK    2  A    between atoms: C_7  and  N_8
REMARK    3  A    between atoms: C_9  and  C_11
REMARK    4  A    between atoms: C_11  and  O_12
REMARK    5  A    between atoms: O_12  and  C_13
REMARK    6  A    between atoms: C_13  and  C_15
REMARK    7  A    between atoms: C_18  and  O_19
REMARK                            x       y       z     vdW  Elec       q    Type
REMARK                         _______ _______ _______ _____ _____    ______ ____
ROOT
ATOM      1  C   UNL     1       2.073   5.426  20.245  0.00  0.00    +0.000 C 
ATOM      2  O   UNL     1       1.051   4.868  20.630  0.00  0.00    +0.000 OA
ENDROOT
BRANCH   1   3
ATOM      3  C   UNL     1       2.115   6.761  19.577  0.00  0.00    +0.000 A 
ATOM      4  N   UNL     1       2.683   6.784  18.341  0.00  0.00    +0.000 NA
ATOM      5  N   UNL     1       2.661   7.933  17.614  0.00  0.00    +0.000 NA
ATOM      6  C   UNL     1       2.058   9.020  18.131  0.00  0.00    +0.000 A 
ATOM      7  C   UNL     1       1.468   9.066  19.394  0.00  0.00    +0.000 A 
ATOM      8  C   UNL     1       0.830  10.216  19.905  0.00  0.00    +0.000 A 
ATOM      9  C   UNL     1       0.264  10.221  21.178  0.00  0.00    +0.000 A 
ATOM     10  C   UNL     1       0.348   9.087  21.974  0.00  0.00    +0.000 A 
ATOM     11  C   UNL     1       0.974   7.942  21.484  0.00  0.00    +0.000 A 
ATOM     12  C   UNL     1       1.518   7.891  20.175  0.00  0.00    +0.000 A 
BRANCH   6  13
ATOM     13  O   UNL     1       2.059  10.109  17.311  0.00  0.00    +0.000 OA
ATOM     14  H   UNL     1       2.908  10.529  17.540  0.00  0.00    +0.000 HD
ENDBRANCH   6  13
ENDBRANCH   1   3
BRANCH   1  15
ATOM     15  O   UNL     1       3.317   4.917  20.418  0.00  0.00    +0.000 OA
BRANCH  15  16
ATOM     16  C   UNL     1       3.411   3.529  20.089  0.00  0.00    +0.000 C 
BRANCH  16  18
ATOM     17  N   UNL     1       4.839   4.387  18.262  0.00  0.00    +0.000 N 
ATOM     18  C   UNL     1       4.043   3.332  18.708  0.00  0.00    +0.000 C 
ATOM     19  O   UNL     1       3.791   2.296  18.092  0.00  0.00    +0.000 OA
ATOM     20  H   UNL     1       4.919   5.190  18.879  0.00  0.00    +0.000 HD
BRANCH  17  27
ATOM     21  C   UNL     1       7.788   4.858  18.093  0.00  0.00    +0.000 C 
ATOM     22  C   UNL     1       6.879   4.715  16.901  0.00  0.00    +0.000 A 
ATOM     23  C   UNL     1       7.480   4.822  15.624  0.00  0.00    +0.000 A 
ATOM     24  C   UNL     1       6.734   4.700  14.456  0.00  0.00    +0.000 A 
ATOM     25  C   UNL     1       5.372   4.467  14.545  0.00  0.00    +0.000 A 
ATOM     26  C   UNL     1       4.762   4.360  15.796  0.00  0.00    +0.000 A 
ATOM     27  C   UNL     1       5.486   4.480  16.992  0.00  0.00    +0.000 A 
ENDBRANCH  17  27
ENDBRANCH  16  18
ENDBRANCH  15  16
ENDBRANCH   1  15
TORSDOF 6
ENDMDL
MODEL 3
REMARK VINA RESULT:      -7.8      2.867      6.860
REMARK  Name = 
REMARK  7 active torsions:
REMARK  status: ('A' for Active; 'I' for Inactive)
REMARK    1  A    between atoms: C_1  and  C_2
REMARK    2  A    between atoms: C_7  and  N_8
REMARK    3  A    between atoms: C_9  and  C_11
REMARK    4  A    between atoms: C_11  and  O_12
REMARK    5  A    between atoms: O_12  and  C_13
REMARK    6  A    between atoms: C_13  and  C_15
REMARK    7  A    between atoms: C_18  and  O_19
REMARK                            x       y       z     vdW  Elec       q    Type
REMARK                         _______ _______ _______ _____ _____    ______ ____
ROOT
ATOM      1  C   UNL     1       4.484   3.095  19.364  0.00  0.00    +0.000 C 
ATOM      2  O   UNL     1       5.170   2.357  20.062  0.00  0.00    +0.000 OA
ENDROOT
BRANCH   1   3
ATOM      3  C   UNL     1       4.980   3.843  18.170  0.00  0.00    +0.000 A 
ATOM      4  N   UNL     1       4.323   3.595  17.004  0.00  0.00    +0.000 NA
ATOM      5  N   UNL     1       4.633   4.315  15.893  0.00  0.00    +0.000 NA
ATOM      6  C   UNL     1       5.575   5.274  15.980  0.00  0.00    +0.000 A 
ATOM      7  C   UNL     1       6.291   5.570  17.139  0.00  0.00    +0.000 A 
ATOM      8  C   UNL     1       7.263   6.592  17.205  0.00  0.00    +0.000 A 
ATOM      9  C   UNL     1       7.964   6.845  18.381  0.00  0.00    +0.000 A 
ATOM     10  C   UNL     1       7.727   6.067  19.507  0.00  0.00    +0.000 A 
ATOM     11  C   UNL     1       6.770   5.055  19.459  0.00  0.00    +0.000 A 
ATOM     12  C   UNL     1       6.007   4.804  18.290  0.00  0.00    +0.000 A 
BRANCH   6  13
ATOM     13  O   UNL     1       5.787   5.961  14.822  0.00  0.00    +0.000 OA
ATOM     14  H   UNL     1       6.278   6.740  15.140  0.00  0.00    +0.000 HD
ENDBRANCH   6  13
ENDBRANCH   1   3
BRANCH   1  15
ATOM     15  O   UNL     1       3.159   3.297  19.561  0.00  0.00    +0.000 OA
BRANCH  15  16
ATOM     16  C   UNL     1       2.876   4.421  20.398  0.00  0.00    +0.000 C 
BRANCH  16  18
ATOM     17  N   UNL     1       2.395   6.838  20.201  0.00  0.00    +0.000 N 
ATOM     18  C   UNL     1       2.322   5.591  19.580  0.00  0.00    +0.000 C 
ATOM     19  O   UNL     1       1.840   5.354  18.472  0.00  0.00    +0.000 OA
ATOM     20  H   UNL     1       2.794   6.859  21.135  0.00  0.00    +0.000 HD
BRANCH  17  27
ATOM     21  C   UNL     1       0.801   8.677  21.940  0.00  0.00    +0.000 C 
ATOM     22  C   UNL     1       1.129   8.943  20.494  0.00  0.00    +0.000 A 
ATOM     23  C   UNL     1       0.633  10.147  19.939  0.00  0.00    +0.000 A 
ATOM     24  C   UNL     1       0.881  10.494  18.615  0.00  0.00    +0.000 A 
ATOM     25  C   UNL     1       1.634   9.644  17.823  0.00  0.00    +0.000 A 
ATOM     26  C   UNL     1       2.130   8.452  18.353  0.00  0.00    +0.000 A 
ATOM     27  C   UNL     1       1.895   8.072  19.683  0.00  0.00    +0.000 A 
ENDBRANCH  17  27
ENDBRANCH  16  18
ENDBRANCH  15  16
ENDBRANCH   1  15
TORSDOF 6
ENDMDL
MODEL 4
REMARK VINA RESULT:      -7.8      2.825      6.985
REMARK  Name = 
REMARK  7 active torsions:
REMARK  status: ('A' for Active; 'I' for Inactive)
REMARK    1  A    between atoms: C_1  and  C_2
REMARK    2  A    between atoms: C_7  and  N_8
REMARK    3  A    between atoms: C_9  and  C_11
REMARK    4  A    between atoms: C_11  and  O_12
REMARK    5  A    between atoms: O_12  and  C_13
REMARK    6  A    between atoms: C_13  and  C_15
REMARK    7  A    between atoms: C_18  and  O_19
REMARK                            x       y       z     vdW  Elec       q    Type
REMARK                         _______ _______ _______ _____ _____    ______ ____
ROOT
ATOM      1  C   UNL     1       4.395   3.202  19.182  0.00  0.00    +0.000 C 
ATOM      2  O   UNL     1       4.990   2.357  19.841  0.00  0.00    +0.000 OA
ENDROOT
BRANCH   1   3
ATOM      3  C   UNL     1       4.970   3.930  18.011  0.00  0.00    +0.000 A 
ATOM      4  N   UNL     1       4.377   3.677  16.812  0.00  0.00    +0.000 NA
ATOM      5  N   UNL     1       4.761   4.381  15.713  0.00  0.00    +0.000 NA
ATOM      6  C   UNL     1       5.709   5.328  15.844  0.00  0.00    +0.000 A 
ATOM      7  C   UNL     1       6.361   5.628  17.040  0.00  0.00    +0.000 A 
ATOM      8  C   UNL     1       7.343   6.636  17.150  0.00  0.00    +0.000 A 
ATOM      9  C   UNL     1       7.978   6.894  18.363  0.00  0.00    +0.000 A 
ATOM     10  C   UNL     1       7.666   6.131  19.480  0.00  0.00    +0.000 A 
ATOM     11  C   UNL     1       6.699   5.132  19.388  0.00  0.00    +0.000 A 
ATOM     12  C   UNL     1       6.001   4.878  18.180  0.00  0.00    +0.000 A 
BRANCH   6  13
ATOM     13  O   UNL     1       5.997   6.000  14.693  0.00  0.00    +0.000 OA
ATOM     14  H   UNL     1       5.598   6.871  14.866  0.00  0.00    +0.000 HD
ENDBRANCH   6  13
ENDBRANCH   1   3
BRANCH   1  15
ATOM     15  O   UNL     1       3.107   3.560  19.406  0.00  0.00    +0.000 OA
BRANCH  15  16
ATOM     16  C   UNL     1       2.926   4.286  20.624  0.00  0.00    +0.000 C 
BRANCH  16  18
ATOM     17  N   UNL     1       2.468   6.697  20.322  0.00  0.00    +0.000 N 
ATOM     18  C   UNL     1       1.915   5.422  20.442  0.00  0.00    +0.000 C 
ATOM     19  O   UNL     1       0.716   5.143  20.441  0.00  0.00    +0.000 OA
ATOM     20  H   UNL     1       3.480   6.762  20.377  0.00  0.00    +0.000 HD
BRANCH  17  27
ATOM     21  C   UNL     1       2.485   8.235  17.756  0.00  0.00    +0.000 C 
ATOM     22  C   UNL     1       1.758   8.666  19.002  0.00  0.00    +0.000 A 
ATOM     23  C   UNL     1       1.048   9.889  18.935  0.00  0.00    +0.000 A 
ATOM     24  C   UNL     1       0.338  10.378  20.027  0.00  0.00    +0.000 A 
ATOM     25  C   UNL     1       0.323   9.651  21.205  0.00  0.00    +0.000 A 
ATOM     26  C   UNL     1       1.019   8.443  21.290  0.00  0.00    +0.000 A 
ATOM     27  C   UNL     1       1.747   7.925  20.208  0.00  0.00    +0.000 A 
ENDBRANCH  17  27
ENDBRANCH  16  18
ENDBRANCH  15  16
ENDBRANCH   1  15
TORSDOF 6
ENDMDL
MODEL 5
REMARK VINA RESULT:      -7.8      2.387      6.933
REMARK  Name = 
REMARK  7 active torsions:
REMARK  status: ('A' for Active; 'I' for Inactive)
REMARK    1  A    between atoms: C_1  and  C_2
REMARK    2  A    between atoms: C_7  and  N_8
REMARK    3  A    between atoms: C_9  and  C_11
REMARK    4  A    between atoms: C_11  and  O_12
REMARK    5  A    between atoms: O_12  and  C_13
REMARK    6  A    between atoms: C_13  and  C_15
REMARK    7  A    between atoms: C_18  and  O_19
REMARK                            x       y       z     vdW  Elec       q    Type
REMARK                         _______ _______ _______ _____ _____    ______ ____
ROOT
ATOM      1  C   UNL     1       4.213   2.938  19.068  0.00  0.00    +0.000 C 
ATOM      2  O   UNL     1       3.720   2.203  18.221  0.00  0.00    +0.000 OA
ENDROOT
BRANCH   1   3
ATOM      3  C   UNL     1       5.199   4.023  18.785  0.00  0.00    +0.000 A 
ATOM      4  N   UNL     1       5.754   4.616  19.878  0.00  0.00    +0.000 NA
ATOM      5  N   UNL     1       6.744   5.533  19.713  0.00  0.00    +0.000 NA
ATOM      6  C   UNL     1       7.166   5.820  18.467  0.00  0.00    +0.000 A 
ATOM      7  C   UNL     1       6.633   5.258  17.307  0.00  0.00    +0.000 A 
ATOM      8  C   UNL     1       7.105   5.567  16.013  0.00  0.00    +0.000 A 
ATOM      9  C   UNL     1       6.535   4.990  14.881  0.00  0.00    +0.000 A 
ATOM     10  C   UNL     1       5.466   4.115  15.017  0.00  0.00    +0.000 A 
ATOM     11  C   UNL     1       4.988   3.798  16.288  0.00  0.00    +0.000 A 
ATOM     12  C   UNL     1       5.578   4.333  17.462  0.00  0.00    +0.000 A 
BRANCH   6  13
ATOM     13  O   UNL     1       8.184   6.725  18.411  0.00  0.00    +0.000 OA
ATOM     14  H   UNL     1       7.837   7.449  18.961  0.00  0.00    +0.000 HD
ENDBRANCH   6  13
ENDBRANCH   1   3
BRANCH   1  15
ATOM     15  O   UNL     1       3.890   2.891  20.383  0.00  0.00    +0.000 OA
BRANCH  15  16
ATOM     16  C   UNL     1       2.482   2.810  20.617  0.00  0.00    +0.000 C 
BRANCH  16  18
ATOM     17  N   UNL     1       2.488   5.279  20.471  0.00  0.00    +0.000 N 
ATOM     18  C   UNL     1       1.780   4.107  20.203  0.00  0.00    +0.000 C 
ATOM     19  O   UNL     1       0.659   4.030  19.699  0.00  0.00    +0.000 OA
ATOM     20  H   UNL     1       3.391   5.172  20.923  0.00  0.00    +0.000 HD
BRANCH  17  27
ATOM     21  C   UNL     1       3.122   6.681  17.905  0.00  0.00    +0.000 C 
ATOM     22  C   UNL     1       2.337   7.290  19.037  0.00  0.00    +0.000 A 
ATOM     23  C   UNL     1       1.885   8.619  18.857  0.00  0.00    +0.000 A 
ATOM     24  C   UNL     1       1.148   9.275  19.838  0.00  0.00    +0.000 A 
ATOM     25  C   UNL     1       0.846   8.612  21.015  0.00  0.00    +0.000 A 
ATOM     26  C   UNL     1       1.285   7.302  21.210  0.00  0.00    +0.000 A 
ATOM     27  C   UNL     1       2.033   6.613  20.243  0.00  0.00    +0.000 A 
ENDBRANCH  17  27
ENDBRANCH  16  18
ENDBRANCH  15  16
ENDBRANCH   1  15
TORSDOF 6
ENDMDL
MODEL 6
REMARK VINA RESULT:      -7.8      5.366      8.201
REMARK  Name = 
REMARK  7 active torsions:
REMARK  status: ('A' for Active; 'I' for Inactive)
REMARK    1  A    between atoms: C_1  and  C_2
REMARK    2  A    between atoms: C_7  and  N_8
REMARK    3  A    between atoms: C_9  and  C_11
REMARK    4  A    between atoms: C_11  and  O_12
REMARK    5  A    between atoms: O_12  and  C_13
REMARK    6  A    between atoms: C_13  and  C_15
REMARK    7  A    between atoms: C_18  and  O_19
REMARK                            x       y       z     vdW  Elec       q    Type
REMARK                         _______ _______ _______ _____ _____    ______ ____
ROOT
ATOM      1  C   UNL     1       2.441   7.437  18.551  0.00  0.00    +0.000 C 
ATOM      2  O   UNL     1       2.332   7.578  19.763  0.00  0.00    +0.000 OA
ENDROOT
BRANCH   1   3
ATOM      3  C   UNL     1       3.277   6.392  17.886  0.00  0.00    +0.000 A 
ATOM      4  N   UNL     1       4.457   6.826  17.364  0.00  0.00    +0.000 NA
ATOM      5  N   UNL     1       5.331   5.923  16.842  0.00  0.00    +0.000 NA
ATOM      6  C   UNL     1       5.013   4.615  16.873  0.00  0.00    +0.000 A 
ATOM      7  C   UNL     1       3.818   4.108  17.383  0.00  0.00    +0.000 A 
ATOM      8  C   UNL     1       3.517   2.729  17.415  0.00  0.00    +0.000 A 
ATOM      9  C   UNL     1       2.306   2.267  17.922  0.00  0.00    +0.000 A 
ATOM     10  C   UNL     1       1.360   3.174  18.383  0.00  0.00    +0.000 A 
ATOM     11  C   UNL     1       1.642   4.539  18.359  0.00  0.00    +0.000 A 
ATOM     12  C   UNL     1       2.885   5.037  17.892  0.00  0.00    +0.000 A 
BRANCH   6  13
ATOM     13  O   UNL     1       5.969   3.791  16.358  0.00  0.00    +0.000 OA
ATOM     14  H   UNL     1       5.925   3.032  16.967  0.00  0.00    +0.000 HD
ENDBRANCH   6  13
ENDBRANCH   1   3
BRANCH   1  15
ATOM     15  O   UNL     1       1.775   8.191  17.644  0.00  0.00    +0.000 OA
BRANCH  15  16
ATOM     16  C   UNL     1       1.658   9.563  18.026  0.00  0.00    +0.000 C 
BRANCH  16  18
ATOM     17  N   UNL     1      -0.610  10.409  17.519  0.00  0.00    +0.000 N 
ATOM     18  C   UNL     1       0.237   9.885  18.497  0.00  0.00    +0.000 C 
ATOM     19  O   UNL     1      -0.047   9.690  19.678  0.00  0.00    +0.000 OA
ATOM     20  H   UNL     1      -0.210  10.542  16.594  0.00  0.00    +0.000 HD
BRANCH  17  27
ATOM     21  C   UNL     1      -2.725   9.747  15.510  0.00  0.00    +0.000 C 
ATOM     22  C   UNL     1      -2.960  10.552  16.761  0.00  0.00    +0.000 A 
ATOM     23  C   UNL     1      -4.277  11.023  16.977  0.00  0.00    +0.000 A 
ATOM     24  C   UNL     1      -4.606  11.772  18.103  0.00  0.00    +0.000 A 
ATOM     25  C   UNL     1      -3.623  12.060  19.034  0.00  0.00    +0.000 A 
ATOM     26  C   UNL     1      -2.319  11.604  18.837  0.00  0.00    +0.000 A 
ATOM     27  C   UNL     1      -1.954  10.849  17.711  0.00  0.00    +0.000 A 
ENDBRANCH  17  27
ENDBRANCH  16  18
ENDBRANCH  15  16
ENDBRANCH   1  15
TORSDOF 6
ENDMDL
MODEL 7
REMARK VINA RESULT:      -7.8      4.586      7.626
REMARK  Name = 
REMARK  7 active torsions:
REMARK  status: ('A' for Active; 'I' for Inactive)
REMARK    1  A    between atoms: C_1  and  C_2
REMARK    2  A    between atoms: C_7  and  N_8
REMARK    3  A    between atoms: C_9  and  C_11
REMARK    4  A    between atoms: C_11  and  O_12
REMARK    5  A    between atoms: O_12  and  C_13
REMARK    6  A    between atoms: C_13  and  C_15
REMARK    7  A    between atoms: C_18  and  O_19
REMARK                            x       y       z     vdW  Elec       q    Type
REMARK                         _______ _______ _______ _____ _____    ______ ____
ROOT
ATOM      1  C   UNL     1       3.970   6.654  17.592  0.00  0.00    +0.000 C 
ATOM      2  O   UNL     1       4.425   7.036  16.520  0.00  0.00    +0.000 OA
ENDROOT
BRANCH   1   3
ATOM      3  C   UNL     1       4.213   5.307  18.189  0.00  0.00    +0.000 A 
ATOM      4  N   UNL     1       5.472   5.088  18.658  0.00  0.00    +0.000 NA
ATOM      5  N   UNL     1       5.751   3.933  19.320  0.00  0.00    +0.000 NA
ATOM      6  C   UNL     1       4.763   3.038  19.512  0.00  0.00    +0.000 A 
ATOM      7  C   UNL     1       3.457   3.196  19.048  0.00  0.00    +0.000 A 
ATOM      8  C   UNL     1       2.438   2.246  19.276  0.00  0.00    +0.000 A 
ATOM      9  C   UNL     1       1.150   2.439  18.784  0.00  0.00    +0.000 A 
ATOM     10  C   UNL     1       0.861   3.570  18.032  0.00  0.00    +0.000 A 
ATOM     11  C   UNL     1       1.856   4.518  17.798  0.00  0.00    +0.000 A 
ATOM     12  C   UNL     1       3.165   4.373  18.326  0.00  0.00    +0.000 A 
BRANCH   6  13
ATOM     13  O   UNL     1       5.135   1.931  20.215  0.00  0.00    +0.000 OA
ATOM     14  H   UNL     1       4.607   1.235  19.784  0.00  0.00    +0.000 HD
ENDBRANCH   6  13
ENDBRANCH   1   3
BRANCH   1  15
ATOM     15  O   UNL     1       3.214   7.429  18.406  0.00  0.00    +0.000 OA
BRANCH  15  16
ATOM     16  C   UNL     1       2.564   8.503  17.721  0.00  0.00    +0.000 C 
BRANCH  16  18
ATOM     17  N   UNL     1       0.723  10.133  17.975  0.00  0.00    +0.000 N 
ATOM     18  C   UNL     1       1.470   9.129  18.591  0.00  0.00    +0.000 C 
ATOM     19  O   UNL     1       1.345   8.733  19.750  0.00  0.00    +0.000 OA
ATOM     20  H   UNL     1       0.975  10.367  17.019  0.00  0.00    +0.000 HD
BRANCH  17  27
ATOM     21  C   UNL     1      -2.112   9.893  17.050  0.00  0.00    +0.000 C 
ATOM     22  C   UNL     1      -1.649  10.818  18.144  0.00  0.00    +0.000 A 
ATOM     23  C   UNL     1      -2.637  11.625  18.757  0.00  0.00    +0.000 A 
ATOM     24  C   UNL     1      -2.319  12.511  19.782  0.00  0.00    +0.000 A 
ATOM     25  C   UNL     1      -1.007  12.603  20.214  0.00  0.00    +0.000 A 
ATOM     26  C   UNL     1      -0.019  11.816  19.620  0.00  0.00    +0.000 A 
ATOM     27  C   UNL     1      -0.306  10.915  18.582  0.00  0.00    +0.000 A 
ENDBRANCH  17  27
ENDBRANCH  16  18
ENDBRANCH  15  16
ENDBRANCH   1  15
TORSDOF 6
ENDMDL
MODEL 8
REMARK VINA RESULT:      -7.8      4.668      8.518
REMARK  Name = 
REMARK  7 active torsions:
REMARK  status: ('A' for Active; 'I' for Inactive)
REMARK    1  A    between atoms: C_1  and  C_2
REMARK    2  A    between atoms: C_7  and  N_8
REMARK    3  A    between atoms: C_9  and  C_11
REMARK    4  A    between atoms: C_11  and  O_12
REMARK    5  A    between atoms: O_12  and  C_13
REMARK    6  A    between atoms: C_13  and  C_15
REMARK    7  A    between atoms: C_18  and  O_19
REMARK                            x       y       z     vdW  Elec       q    Type
REMARK                         _______ _______ _______ _____ _____    ______ ____
ROOT
ATOM      1  C   UNL     1       2.393   7.373  18.644  0.00  0.00    +0.000 C 
ATOM      2  O   UNL     1       2.281   7.512  19.857  0.00  0.00    +0.000 OA
ENDROOT
BRANCH   1   3
ATOM      3  C   UNL     1       3.244   6.342  17.980  0.00  0.00    +0.000 A 
ATOM      4  N   UNL     1       4.424   6.790  17.470  0.00  0.00    +0.000 NA
ATOM      5  N   UNL     1       5.311   5.900  16.950  0.00  0.00    +0.000 NA
ATOM      6  C   UNL     1       5.006   4.588  16.969  0.00  0.00    +0.000 A 
ATOM      7  C   UNL     1       3.812   4.066  17.466  0.00  0.00    +0.000 A 
ATOM      8  C   UNL     1       3.524   2.684  17.486  0.00  0.00    +0.000 A 
ATOM      9  C   UNL     1       2.313   2.207  17.980  0.00  0.00    +0.000 A 
ATOM     10  C   UNL     1       1.355   3.102  18.439  0.00  0.00    +0.000 A 
ATOM     11  C   UNL     1       1.623   4.469  18.427  0.00  0.00    +0.000 A 
ATOM     12  C   UNL     1       2.866   4.982  17.973  0.00  0.00    +0.000 A 
BRANCH   6  13
ATOM     13  O   UNL     1       5.974   3.777  16.456  0.00  0.00    +0.000 OA
ATOM     14  H   UNL     1       5.453   3.181  15.889  0.00  0.00    +0.000 HD
ENDBRANCH   6  13
ENDBRANCH   1   3
BRANCH   1  15
ATOM     15  O   UNL     1       1.716   8.118  17.738  0.00  0.00    +0.000 OA
BRANCH  15  16
ATOM     16  C   UNL     1       1.886   9.526  17.922  0.00  0.00    +0.000 C 
BRANCH  16  18
ATOM     17  N   UNL     1       1.044  10.563  20.003  0.00  0.00    +0.000 N 
ATOM     18  C   UNL     1       0.722  10.121  18.720  0.00  0.00    +0.000 C 
ATOM     19  O   UNL     1      -0.393  10.145  18.199  0.00  0.00    +0.000 OA
ATOM     20  H   UNL     1       2.009  10.441  20.298  0.00  0.00    +0.000 HD
BRANCH  17  27
ATOM     21  C   UNL     1       0.299   8.974  22.426  0.00  0.00    +0.000 C 
ATOM     22  C   UNL     1      -0.232  10.348  22.112  0.00  0.00    +0.000 A 
ATOM     23  C   UNL     1      -1.151  10.902  23.034  0.00  0.00    +0.000 A 
ATOM     24  C   UNL     1      -1.700  12.166  22.844  0.00  0.00    +0.000 A 
ATOM     25  C   UNL     1      -1.337  12.900  21.728  0.00  0.00    +0.000 A 
ATOM     26  C   UNL     1      -0.433  12.369  20.806  0.00  0.00    +0.000 A 
ATOM     27  C   UNL     1       0.136  11.096  20.968  0.00  0.00    +0.000 A 
ENDBRANCH  17  27
ENDBRANCH  16  18
ENDBRANCH  15  16
ENDBRANCH   1  15
TORSDOF 6
ENDMDL
MODEL 9
REMARK VINA RESULT:      -7.8      2.534      6.783
REMARK  Name = 
REMARK  7 active torsions:
REMARK  status: ('A' for Active; 'I' for Inactive)
REMARK    1  A    between atoms: C_1  and  C_2
REMARK    2  A    between atoms: C_7  and  N_8
REMARK    3  A    between atoms: C_9  and  C_11
REMARK    4  A    between atoms: C_11  and  O_12
REMARK    5  A    between atoms: O_12  and  C_13
REMARK    6  A    between atoms: C_13  and  C_15
REMARK    7  A    between atoms: C_18  and  O_19
REMARK                            x       y       z     vdW  Elec       q    Type
REMARK                         _______ _______ _______ _____ _____    ______ ____
ROOT
ATOM      1  C   UNL     1       4.161   2.954  19.046  0.00  0.00    +0.000 C 
ATOM      2  O   UNL     1       3.752   2.157  18.210  0.00  0.00    +0.000 OA
ENDROOT
BRANCH   1   3
ATOM      3  C   UNL     1       5.142   4.047  18.774  0.00  0.00    +0.000 A 
ATOM      4  N   UNL     1       5.730   4.599  19.870  0.00  0.00    +0.000 NA
ATOM      5  N   UNL     1       6.718   5.519  19.710  0.00  0.00    +0.000 NA
ATOM      6  C   UNL     1       7.104   5.850  18.463  0.00  0.00    +0.000 A 
ATOM      7  C   UNL     1       6.536   5.330  17.300  0.00  0.00    +0.000 A 
ATOM      8  C   UNL     1       6.971   5.685  16.005  0.00  0.00    +0.000 A 
ATOM      9  C   UNL     1       6.367   5.151  14.870  0.00  0.00    +0.000 A 
ATOM     10  C   UNL     1       5.299   4.273  15.005  0.00  0.00    +0.000 A 
ATOM     11  C   UNL     1       4.858   3.912  16.277  0.00  0.00    +0.000 A 
ATOM     12  C   UNL     1       5.483   4.403  17.452  0.00  0.00    +0.000 A 
BRANCH   6  13
ATOM     13  O   UNL     1       8.123   6.754  18.410  0.00  0.00    +0.000 OA
ATOM     14  H   UNL     1       8.829   6.233  17.987  0.00  0.00    +0.000 HD
ENDBRANCH   6  13
ENDBRANCH   1   3
BRANCH   1  15
ATOM     15  O   UNL     1       3.737   2.976  20.333  0.00  0.00    +0.000 OA
BRANCH  15  16
ATOM     16  C   UNL     1       2.362   3.343  20.469  0.00  0.00    +0.000 C 
BRANCH  16  18
ATOM     17  N   UNL     1       2.543   5.772  20.042  0.00  0.00    +0.000 N 
ATOM     18  C   UNL     1       2.026   4.555  19.596  0.00  0.00    +0.000 C 
ATOM     19  O   UNL     1       1.321   4.382  18.602  0.00  0.00    +0.000 OA
ATOM     20  H   UNL     1       3.080   5.749  20.904  0.00  0.00    +0.000 HD
BRANCH  17  27
ATOM     21  C   UNL     1       0.958   7.860  21.483  0.00  0.00    +0.000 C 
ATOM     22  C   UNL     1       1.566   8.043  20.117  0.00  0.00    +0.000 A 
ATOM     23  C   UNL     1       1.354   9.293  19.488  0.00  0.00    +0.000 A 
ATOM     24  C   UNL     1       1.875   9.571  18.228  0.00  0.00    +0.000 A 
ATOM     25  C   UNL     1       2.620   8.603  17.577  0.00  0.00    +0.000 A 
ATOM     26  C   UNL     1       2.839   7.364  18.182  0.00  0.00    +0.000 A 
ATOM     27  C   UNL     1       2.324   7.052  19.450  0.00  0.00    +0.000 A 
ENDBRANCH  17  27
ENDBRANCH  16  18
ENDBRANCH  15  16
ENDBRANCH   1  15
TORSDOF 6
ENDMDL
