MODEL 1
REMARK VINA RESULT:      -6.6      0.000      0.000
REMARK  Name = 
REMARK  11 active torsions:
REMARK  status: ('A' for Active; 'I' for Inactive)
REMARK    1  A    between atoms: C_1  and  N_2
REMARK    2  A    between atoms: N_2  and  C_3
REMARK    3  A    between atoms: N_2  and  C_4
REMARK    4  A    between atoms: C_4  and  C_5
REMARK    5  A    between atoms: C_5  and  N_6
REMARK    6  A    between atoms: N_6  and  C_7
REMARK    7  A    between atoms: N_6  and  C_8
REMARK    8  A    between atoms: C_8  and  C_9
REMARK    9  A    between atoms: C_9  and  C_10
REMARK   10  A    between atoms: C_10  and  C_12
REMARK   11  A    between atoms: C_13  and  C_14
REMARK                            x       y       z     vdW  Elec       q    Type
REMARK                         _______ _______ _______ _____ _____    ______ ____
ROOT
ATOM      1  C   UNL     1       7.623   7.208  17.794  0.00  0.00    +0.000 C 
ATOM      2  O   UNL     1       7.033   7.486  16.758  0.00  0.00    +0.000 OA
ENDROOT
BRANCH   1   3
ATOM      3  C   UNL     1       8.447   8.215  18.486  0.00  0.00    +0.000 C 
ATOM      4  C   UNL     1       8.435   9.510  18.132  0.00  0.00    +0.000 C 
BRANCH   4   5
ATOM      5  C   UNL     1       9.314  10.528  18.753  0.00  0.00    +0.000 A 
ATOM      6  C   UNL     1      10.107  11.321  17.908  0.00  0.00    +0.000 A 
ATOM      7  C   UNL     1      10.984  12.266  18.444  0.00  0.00    +0.000 A 
ATOM      8  C   UNL     1      11.067  12.442  19.827  0.00  0.00    +0.000 A 
ATOM      9  C   UNL     1      10.270  11.673  20.678  0.00  0.00    +0.000 A 
ATOM     10  C   UNL     1       9.402  10.717  20.149  0.00  0.00    +0.000 A 
ENDBRANCH   4   5
ENDBRANCH   1   3
BRANCH   1  11
ATOM     11  C   UNL     1       7.598   5.815  18.349  0.00  0.00    +0.000 C 
BRANCH  11  12
ATOM     12  C   UNL     1       6.328   5.521  19.159  0.00  0.00    +0.000 C 
BRANCH  12  13
ATOM     13  N   UNL     1       5.258   4.910  18.340  0.00  0.00    +0.000 NA
ATOM     14  C   UNL     1       4.181   5.882  18.045  0.00  0.00    +0.000 C 
BRANCH  13  15
ATOM     15  C   UNL     1       4.751   3.714  19.050  0.00  0.00    +0.000 C 
BRANCH  15  16
ATOM     16  C   UNL     1       3.235   3.731  19.341  0.00  0.00    +0.000 C 
BRANCH  16  18
ATOM     17  C   UNL     1       3.288   1.532  18.385  0.00  0.00    +0.000 C 
ATOM     18  N   UNL     1       2.443   2.720  18.597  0.00  0.00    +0.000 NA
ATOM     19  C   UNL     1       1.202   2.303  19.275  0.00  0.00    +0.000 C 
ENDBRANCH  16  18
ENDBRANCH  15  16
ENDBRANCH  13  15
ENDBRANCH  12  13
ENDBRANCH  11  12
ENDBRANCH   1  11
TORSDOF 8
ENDMDL
MODEL 2
REMARK VINA RESULT:      -6.5      1.335      2.131
REMARK  Name = 
REMARK  11 active torsions:
REMARK  status: ('A' for Active; 'I' for Inactive)
REMARK    1  A    between atoms: C_1  and  N_2
REMARK    2  A    between atoms: N_2  and  C_3
REMARK    3  A    between atoms: N_2  and  C_4
REMARK    4  A    between atoms: C_4  and  C_5
REMARK    5  A    between atoms: C_5  and  N_6
REMARK    6  A    between atoms: N_6  and  C_7
REMARK    7  A    between atoms: N_6  and  C_8
REMARK    8  A    between atoms: C_8  and  C_9
REMARK    9  A    between atoms: C_9  and  C_10
REMARK   10  A    between atoms: C_10  and  C_12
REMARK   11  A    between atoms: C_13  and  C_14
REMARK                            x       y       z     vdW  Elec       q    Type
REMARK                         _______ _______ _______ _____ _____    ______ ____
ROOT
ATOM      1  C   UNL     1       7.624   7.297  17.819  0.00  0.00    +0.000 C 
ATOM      2  O   UNL     1       6.915   7.619  16.873  0.00  0.00    +0.000 OA
ENDROOT
BRANCH   1   3
ATOM      3  C   UNL     1       8.511   8.279  18.466  0.00  0.00    +0.000 C 
ATOM      4  C   UNL     1       8.465   9.587  18.165  0.00  0.00    +0.000 C 
BRANCH   4   5
ATOM      5  C   UNL     1       9.399  10.584  18.736  0.00  0.00    +0.000 A 
ATOM      6  C   UNL     1       9.393  10.775  20.127  0.00  0.00    +0.000 A 
ATOM      7  C   UNL     1      10.224  11.734  20.712  0.00  0.00    +0.000 A 
ATOM      8  C   UNL     1      11.081  12.498  19.918  0.00  0.00    +0.000 A 
ATOM      9  C   UNL     1      11.111  12.305  18.535  0.00  0.00    +0.000 A 
ATOM     10  C   UNL     1      10.272  11.359  17.943  0.00  0.00    +0.000 A 
ENDBRANCH   4   5
ENDBRANCH   1   3
BRANCH   1  11
ATOM     11  C   UNL     1       7.677   5.876  18.297  0.00  0.00    +0.000 C 
BRANCH  11  12
ATOM     12  C   UNL     1       6.444   5.480  19.121  0.00  0.00    +0.000 C 
BRANCH  12  13
ATOM     13  N   UNL     1       5.774   4.269  18.600  0.00  0.00    +0.000 NA
ATOM     14  C   UNL     1       5.794   4.233  17.120  0.00  0.00    +0.000 C 
BRANCH  13  15
ATOM     15  C   UNL     1       4.396   4.227  19.140  0.00  0.00    +0.000 C 
BRANCH  15  16
ATOM     16  C   UNL     1       3.318   4.804  18.200  0.00  0.00    +0.000 C 
BRANCH  16  18
ATOM     17  C   UNL     1       2.253   5.306  20.289  0.00  0.00    +0.000 C 
ATOM     18  N   UNL     1       2.304   5.663  18.861  0.00  0.00    +0.000 NA
ATOM     19  C   UNL     1       2.564   7.110  18.743  0.00  0.00    +0.000 C 
ENDBRANCH  16  18
ENDBRANCH  15  16
ENDBRANCH  13  15
ENDBRANCH  12  13
ENDBRANCH  11  12
ENDBRANCH   1  11
TORSDOF 8
ENDMDL
MODEL 3
REMARK VINA RESULT:      -6.4      0.872      1.489
REMARK  Name = 
REMARK  11 active torsions:
REMARK  status: ('A' for Active; 'I' for Inactive)
REMARK    1  A    between atoms: C_1  and  N_2
REMARK    2  A    between atoms: N_2  and  C_3
REMARK    3  A    between atoms: N_2  and  C_4
REMARK    4  A    between atoms: C_4  and  C_5
REMARK    5  A    between atoms: C_5  and  N_6
REMARK    6  A    between atoms: N_6  and  C_7
REMARK    7  A    between atoms: N_6  and  C_8
REMARK    8  A    between atoms: C_8  and  C_9
REMARK    9  A    between atoms: C_9  and  C_10
REMARK   10  A    between atoms: C_10  and  C_12
REMARK   11  A    between atoms: C_13  and  C_14
REMARK                            x       y       z     vdW  Elec       q    Type
REMARK                         _______ _______ _______ _____ _____    ______ ____
ROOT
ATOM      1  C   UNL     1       7.727   7.273  17.891  0.00  0.00    +0.000 C 
ATOM      2  O   UNL     1       7.138   7.521  16.846  0.00  0.00    +0.000 OA
ENDROOT
BRANCH   1   3
ATOM      3  C   UNL     1       8.571   8.290  18.542  0.00  0.00    +0.000 C 
ATOM      4  C   UNL     1       8.516   9.586  18.198  0.00  0.00    +0.000 C 
BRANCH   4   5
ATOM      5  C   UNL     1       9.411  10.617  18.775  0.00  0.00    +0.000 A 
ATOM      6  C   UNL     1       9.393  10.803  20.167  0.00  0.00    +0.000 A 
ATOM      7  C   UNL     1      10.185  11.791  20.757  0.00  0.00    +0.000 A 
ATOM      8  C   UNL     1      11.015  12.589  19.968  0.00  0.00    +0.000 A 
ATOM      9  C   UNL     1      11.056  12.402  18.585  0.00  0.00    +0.000 A 
ATOM     10  C   UNL     1      10.256  11.427  17.987  0.00  0.00    +0.000 A 
ENDBRANCH   4   5
ENDBRANCH   1   3
BRANCH   1  11
ATOM     11  C   UNL     1       7.677   5.902  18.499  0.00  0.00    +0.000 C 
BRANCH  11  12
ATOM     12  C   UNL     1       6.281   5.533  19.020  0.00  0.00    +0.000 C 
BRANCH  12  13
ATOM     13  N   UNL     1       5.829   4.207  18.548  0.00  0.00    +0.000 NA
ATOM     14  C   UNL     1       5.304   4.273  17.166  0.00  0.00    +0.000 C 
BRANCH  13  15
ATOM     15  C   UNL     1       4.821   3.689  19.503  0.00  0.00    +0.000 C 
BRANCH  15  16
ATOM     16  C   UNL     1       3.407   4.282  19.330  0.00  0.00    +0.000 C 
BRANCH  16  18
ATOM     17  C   UNL     1       1.581   2.831  19.889  0.00  0.00    +0.000 C 
ATOM     18  N   UNL     1       2.398   3.344  18.777  0.00  0.00    +0.000 NA
ATOM     19  C   UNL     1       1.504   3.940  17.768  0.00  0.00    +0.000 C 
ENDBRANCH  16  18
ENDBRANCH  15  16
ENDBRANCH  13  15
ENDBRANCH  12  13
ENDBRANCH  11  12
ENDBRANCH   1  11
TORSDOF 8
ENDMDL
MODEL 4
REMARK VINA RESULT:      -6.4      5.060      6.024
REMARK  Name = 
REMARK  11 active torsions:
REMARK  status: ('A' for Active; 'I' for Inactive)
REMARK    1  A    between atoms: C_1  and  N_2
REMARK    2  A    between atoms: N_2  and  C_3
REMARK    3  A    between atoms: N_2  and  C_4
REMARK    4  A    between atoms: C_4  and  C_5
REMARK    5  A    between atoms: C_5  and  N_6
REMARK    6  A    between atoms: N_6  and  C_7
REMARK    7  A    between atoms: N_6  and  C_8
REMARK    8  A    between atoms: C_8  and  C_9
REMARK    9  A    between atoms: C_9  and  C_10
REMARK   10  A    between atoms: C_10  and  C_12
REMARK   11  A    between atoms: C_13  and  C_14
REMARK                            x       y       z     vdW  Elec       q    Type
REMARK                         _______ _______ _______ _____ _____    ______ ____
ROOT
ATOM      1  C   UNL     1       2.417   7.047  19.424  0.00  0.00    +0.000 C 
ATOM      2  O   UNL     1       2.086   8.165  19.049  0.00  0.00    +0.000 OA
ENDROOT
BRANCH   1   3
ATOM      3  C   UNL     1       3.514   6.322  18.760  0.00  0.00    +0.000 C 
ATOM      4  C   UNL     1       4.005   6.708  17.572  0.00  0.00    +0.000 C 
BRANCH   4   5
ATOM      5  C   UNL     1       5.048   5.951  16.841  0.00  0.00    +0.000 A 
ATOM      6  C   UNL     1       5.976   5.211  17.592  0.00  0.00    +0.000 A 
ATOM      7  C   UNL     1       7.006   4.515  16.955  0.00  0.00    +0.000 A 
ATOM      8  C   UNL     1       7.110   4.537  15.563  0.00  0.00    +0.000 A 
ATOM      9  C   UNL     1       6.183   5.253  14.803  0.00  0.00    +0.000 A 
ATOM     10  C   UNL     1       5.160   5.963  15.434  0.00  0.00    +0.000 A 
ENDBRANCH   4   5
ENDBRANCH   1   3
BRANCH   1  11
ATOM     11  C   UNL     1       1.665   6.343  20.515  0.00  0.00    +0.000 C 
BRANCH  11  12
ATOM     12  C   UNL     1       2.239   4.955  20.833  0.00  0.00    +0.000 C 
BRANCH  12  13
ATOM     13  N   UNL     1       1.215   3.889  20.785  0.00  0.00    +0.000 NA
ATOM     14  C   UNL     1       1.641   2.696  21.551  0.00  0.00    +0.000 C 
BRANCH  13  15
ATOM     15  C   UNL     1       0.936   3.571  19.366  0.00  0.00    +0.000 C 
BRANCH  15  16
ATOM     16  C   UNL     1       1.261   2.119  18.956  0.00  0.00    +0.000 C 
BRANCH  16  18
ATOM     17  C   UNL     1       2.503   3.289  17.271  0.00  0.00    +0.000 C 
ATOM     18  N   UNL     1       2.317   1.982  17.922  0.00  0.00    +0.000 NA
ATOM     19  C   UNL     1       3.618   1.522  18.442  0.00  0.00    +0.000 C 
ENDBRANCH  16  18
ENDBRANCH  15  16
ENDBRANCH  13  15
ENDBRANCH  12  13
ENDBRANCH  11  12
ENDBRANCH   1  11
TORSDOF 8
ENDMDL
MODEL 5
REMARK VINA RESULT:      -6.4      4.284      7.806
REMARK  Name = 
REMARK  11 active torsions:
REMARK  status: ('A' for Active; 'I' for Inactive)
REMARK    1  A    between atoms: C_1  and  N_2
REMARK    2  A    between atoms: N_2  and  C_3
REMARK    3  A    between atoms: N_2  and  C_4
REMARK    4  A    between atoms: C_4  and  C_5
REMARK    5  A    between atoms: C_5  and  N_6
REMARK    6  A    between atoms: N_6  and  C_7
REMARK    7  A    between atoms: N_6  and  C_8
REMARK    8  A    between atoms: C_8  and  C_9
REMARK    9  A    between atoms: C_9  and  C_10
REMARK   10  A    between atoms: C_10  and  C_12
REMARK   11  A    between atoms: C_13  and  C_14
REMARK                            x       y       z     vdW  Elec       q    Type
REMARK                         _______ _______ _______ _____ _____    ______ ____
ROOT
ATOM      1  C   UNL     1       6.822   5.416  19.159  0.00  0.00    +0.000 C 
ATOM      2  O   UNL     1       7.471   5.527  20.191  0.00  0.00    +0.000 OA
ENDROOT
BRANCH   1   3
ATOM      3  C   UNL     1       5.548   4.676  19.143  0.00  0.00    +0.000 C 
ATOM      4  C   UNL     1       4.370   5.281  19.365  0.00  0.00    +0.000 C 
BRANCH   4   5
ATOM      5  C   UNL     1       3.084   4.550  19.439  0.00  0.00    +0.000 A 
ATOM      6  C   UNL     1       2.382   4.569  20.655  0.00  0.00    +0.000 A 
ATOM      7  C   UNL     1       1.185   3.861  20.791  0.00  0.00    +0.000 A 
ATOM      8  C   UNL     1       0.670   3.141  19.711  0.00  0.00    +0.000 A 
ATOM      9  C   UNL     1       1.348   3.128  18.491  0.00  0.00    +0.000 A 
ATOM     10  C   UNL     1       2.552   3.822  18.353  0.00  0.00    +0.000 A 
ENDBRANCH   4   5
ENDBRANCH   1   3
BRANCH   1  11
ATOM     11  C   UNL     1       7.339   5.956  17.858  0.00  0.00    +0.000 C 
BRANCH  11  12
ATOM     12  C   UNL     1       7.345   4.905  16.739  0.00  0.00    +0.000 C 
BRANCH  12  13
ATOM     13  N   UNL     1       6.530   5.308  15.573  0.00  0.00    +0.000 NA
ATOM     14  C   UNL     1       5.444   6.235  15.966  0.00  0.00    +0.000 C 
BRANCH  13  15
ATOM     15  C   UNL     1       6.010   4.084  14.920  0.00  0.00    +0.000 C 
BRANCH  15  16
ATOM     16  C   UNL     1       5.436   4.304  13.505  0.00  0.00    +0.000 C 
BRANCH  16  18
ATOM     17  C   UNL     1       4.577   3.146  11.588  0.00  0.00    +0.000 C 
ATOM     18  N   UNL     1       5.694   3.201  12.546  0.00  0.00    +0.000 NA
ATOM     19  C   UNL     1       6.956   3.332  11.795  0.00  0.00    +0.000 C 
ENDBRANCH  16  18
ENDBRANCH  15  16
ENDBRANCH  13  15
ENDBRANCH  12  13
ENDBRANCH  11  12
ENDBRANCH   1  11
TORSDOF 8
ENDMDL
MODEL 6
REMARK VINA RESULT:      -6.4      4.978      5.917
REMARK  Name = 
REMARK  11 active torsions:
REMARK  status: ('A' for Active; 'I' for Inactive)
REMARK    1  A    between atoms: C_1  and  N_2
REMARK    2  A    between atoms: N_2  and  C_3
REMARK    3  A    between atoms: N_2  and  C_4
REMARK    4  A    between atoms: C_4  and  C_5
REMARK    5  A    between atoms: C_5  and  N_6
REMARK    6  A    between atoms: N_6  and  C_7
REMARK    7  A    between atoms: N_6  and  C_8
REMARK    8  A    between atoms: C_8  and  C_9
REMARK    9  A    between atoms: C_9  and  C_10
REMARK   10  A    between atoms: C_10  and  C_12
REMARK   11  A    between atoms: C_13  and  C_14
REMARK                            x       y       z     vdW  Elec       q    Type
REMARK                         _______ _______ _______ _____ _____    ______ ____
ROOT
ATOM      1  C   UNL     1       2.497   7.026  19.439  0.00  0.00    +0.000 C 
ATOM      2  O   UNL     1       2.142   8.133  19.054  0.00  0.00    +0.000 OA
ENDROOT
BRANCH   1   3
ATOM      3  C   UNL     1       3.653   6.349  18.826  0.00  0.00    +0.000 C 
ATOM      4  C   UNL     1       4.063   6.629  17.579  0.00  0.00    +0.000 C 
BRANCH   4   5
ATOM      5  C   UNL     1       5.167   5.905  16.907  0.00  0.00    +0.000 A 
ATOM      6  C   UNL     1       5.198   5.904  15.503  0.00  0.00    +0.000 A 
ATOM      7  C   UNL     1       6.193   5.201  14.819  0.00  0.00    +0.000 A 
ATOM      8  C   UNL     1       7.176   4.508  15.528  0.00  0.00    +0.000 A 
ATOM      9  C   UNL     1       7.168   4.517  16.925  0.00  0.00    +0.000 A 
ATOM     10  C   UNL     1       6.168   5.205  17.614  0.00  0.00    +0.000 A 
ENDBRANCH   4   5
ENDBRANCH   1   3
BRANCH   1  11
ATOM     11  C   UNL     1       1.721   6.287  20.489  0.00  0.00    +0.000 C 
BRANCH  11  12
ATOM     12  C   UNL     1       2.277   4.881  20.759  0.00  0.00    +0.000 C 
BRANCH  12  13
ATOM     13  N   UNL     1       1.221   3.846  20.789  0.00  0.00    +0.000 NA
ATOM     14  C   UNL     1       1.631   2.679  21.602  0.00  0.00    +0.000 C 
BRANCH  13  15
ATOM     15  C   UNL     1       0.896   3.469  19.394  0.00  0.00    +0.000 C 
BRANCH  15  16
ATOM     16  C   UNL     1       1.339   2.046  18.992  0.00  0.00    +0.000 C 
BRANCH  16  18
ATOM     17  C   UNL     1       2.455   3.251  17.245  0.00  0.00    +0.000 C 
ATOM     18  N   UNL     1       2.446   1.990  18.005  0.00  0.00    +0.000 NA
ATOM     19  C   UNL     1       3.780   1.787  18.600  0.00  0.00    +0.000 C 
ENDBRANCH  16  18
ENDBRANCH  15  16
ENDBRANCH  13  15
ENDBRANCH  12  13
ENDBRANCH  11  12
ENDBRANCH   1  11
TORSDOF 8
ENDMDL
MODEL 7
REMARK VINA RESULT:      -6.3      1.028      1.213
REMARK  Name = 
REMARK  11 active torsions:
REMARK  status: ('A' for Active; 'I' for Inactive)
REMARK    1  A    between atoms: C_1  and  N_2
REMARK    2  A    between atoms: N_2  and  C_3
REMARK    3  A    between atoms: N_2  and  C_4
REMARK    4  A    between atoms: C_4  and  C_5
REMARK    5  A    between atoms: C_5  and  N_6
REMARK    6  A    between atoms: N_6  and  C_7
REMARK    7  A    between atoms: N_6  and  C_8
REMARK    8  A    between atoms: C_8  and  C_9
REMARK    9  A    between atoms: C_9  and  C_10
REMARK   10  A    between atoms: C_10  and  C_12
REMARK   11  A    between atoms: C_13  and  C_14
REMARK                            x       y       z     vdW  Elec       q    Type
REMARK                         _______ _______ _______ _____ _____    ______ ____
ROOT
ATOM      1  C   UNL     1       7.585   6.935  17.678  0.00  0.00    +0.000 C 
ATOM      2  O   UNL     1       7.611   6.882  16.455  0.00  0.00    +0.000 OA
ENDROOT
BRANCH   1   3
ATOM      3  C   UNL     1       8.189   8.071  18.397  0.00  0.00    +0.000 C 
ATOM      4  C   UNL     1       8.249   9.301  17.862  0.00  0.00    +0.000 C 
BRANCH   4   5
ATOM      5  C   UNL     1       8.923  10.442  18.524  0.00  0.00    +0.000 A 
ATOM      6  C   UNL     1       9.067  11.636  17.800  0.00  0.00    +0.000 A 
ATOM      7  C   UNL     1       9.733  12.727  18.363  0.00  0.00    +0.000 A 
ATOM      8  C   UNL     1      10.246  12.644  19.658  0.00  0.00    +0.000 A 
ATOM      9  C   UNL     1      10.094  11.468  20.397  0.00  0.00    +0.000 A 
ATOM     10  C   UNL     1       9.443  10.369  19.835  0.00  0.00    +0.000 A 
ENDBRANCH   4   5
ENDBRANCH   1   3
BRANCH   1  11
ATOM     11  C   UNL     1       7.015   5.809  18.490  0.00  0.00    +0.000 C 
BRANCH  11  12
ATOM     12  C   UNL     1       6.434   4.686  17.621  0.00  0.00    +0.000 C 
BRANCH  12  13
ATOM     13  N   UNL     1       4.979   4.507  17.817  0.00  0.00    +0.000 NA
ATOM     14  C   UNL     1       4.223   5.703  17.382  0.00  0.00    +0.000 C 
BRANCH  13  15
ATOM     15  C   UNL     1       4.736   4.181  19.241  0.00  0.00    +0.000 C 
BRANCH  15  16
ATOM     16  C   UNL     1       3.249   4.177  19.656  0.00  0.00    +0.000 C 
BRANCH  16  18
ATOM     17  C   UNL     1       2.149   3.222  21.560  0.00  0.00    +0.000 C 
ATOM     18  N   UNL     1       2.771   2.910  20.263  0.00  0.00    +0.000 NA
ATOM     19  C   UNL     1       1.799   2.171  19.436  0.00  0.00    +0.000 C 
ENDBRANCH  16  18
ENDBRANCH  15  16
ENDBRANCH  13  15
ENDBRANCH  12  13
ENDBRANCH  11  12
ENDBRANCH   1  11
TORSDOF 8
ENDMDL
MODEL 8
REMARK VINA RESULT:      -6.2      1.169      1.459
REMARK  Name = 
REMARK  11 active torsions:
REMARK  status: ('A' for Active; 'I' for Inactive)
REMARK    1  A    between atoms: C_1  and  N_2
REMARK    2  A    between atoms: N_2  and  C_3
REMARK    3  A    between atoms: N_2  and  C_4
REMARK    4  A    between atoms: C_4  and  C_5
REMARK    5  A    between atoms: C_5  and  N_6
REMARK    6  A    between atoms: N_6  and  C_7
REMARK    7  A    between atoms: N_6  and  C_8
REMARK    8  A    between atoms: C_8  and  C_9
REMARK    9  A    between atoms: C_9  and  C_10
REMARK   10  A    between atoms: C_10  and  C_12
REMARK   11  A    between atoms: C_13  and  C_14
REMARK                            x       y       z     vdW  Elec       q    Type
REMARK                         _______ _______ _______ _____ _____    ______ ____
ROOT
ATOM      1  C   UNL     1       7.315   7.211  17.369  0.00  0.00    +0.000 C 
ATOM      2  O   UNL     1       7.670   6.694  16.317  0.00  0.00    +0.000 OA
ENDROOT
BRANCH   1   3
ATOM      3  C   UNL     1       8.225   8.092  18.122  0.00  0.00    +0.000 C 
ATOM      4  C   UNL     1       8.225   9.424  17.957  0.00  0.00    +0.000 C 
BRANCH   4   5
ATOM      5  C   UNL     1       9.183  10.326  18.636  0.00  0.00    +0.000 A 
ATOM      6  C   UNL     1      10.156  10.968  17.853  0.00  0.00    +0.000 A 
ATOM      7  C   UNL     1      11.111  11.795  18.450  0.00  0.00    +0.000 A 
ATOM      8  C   UNL     1      11.093  12.003  19.831  0.00  0.00    +0.000 A 
ATOM      9  C   UNL     1      10.120  11.386  20.619  0.00  0.00    +0.000 A 
ATOM     10  C   UNL     1       9.172  10.546  20.030  0.00  0.00    +0.000 A 
ENDBRANCH   4   5
ENDBRANCH   1   3
BRANCH   1  11
ATOM     11  C   UNL     1       5.976   6.899  17.971  0.00  0.00    +0.000 C 
BRANCH  11  12
ATOM     12  C   UNL     1       5.666   5.396  17.986  0.00  0.00    +0.000 C 
BRANCH  12  13
ATOM     13  N   UNL     1       4.818   4.999  19.131  0.00  0.00    +0.000 NA
ATOM     14  C   UNL     1       4.843   3.534  19.341  0.00  0.00    +0.000 C 
BRANCH  13  15
ATOM     15  C   UNL     1       3.447   5.506  18.895  0.00  0.00    +0.000 C 
BRANCH  15  16
ATOM     16  C   UNL     1       2.429   5.149  19.998  0.00  0.00    +0.000 C 
BRANCH  16  18
ATOM     17  C   UNL     1       1.480   3.987  18.127  0.00  0.00    +0.000 C 
ATOM     18  N   UNL     1       1.308   4.281  19.560  0.00  0.00    +0.000 NA
ATOM     19  C   UNL     1       1.203   3.007  20.295  0.00  0.00    +0.000 C 
ENDBRANCH  16  18
ENDBRANCH  15  16
ENDBRANCH  13  15
ENDBRANCH  12  13
ENDBRANCH  11  12
ENDBRANCH   1  11
TORSDOF 8
ENDMDL
MODEL 9
REMARK VINA RESULT:      -6.2      1.332      1.843
REMARK  Name = 
REMARK  11 active torsions:
REMARK  status: ('A' for Active; 'I' for Inactive)
REMARK    1  A    between atoms: C_1  and  N_2
REMARK    2  A    between atoms: N_2  and  C_3
REMARK    3  A    between atoms: N_2  and  C_4
REMARK    4  A    between atoms: C_4  and  C_5
REMARK    5  A    between atoms: C_5  and  N_6
REMARK    6  A    between atoms: N_6  and  C_7
REMARK    7  A    between atoms: N_6  and  C_8
REMARK    8  A    between atoms: C_8  and  C_9
REMARK    9  A    between atoms: C_9  and  C_10
REMARK   10  A    between atoms: C_10  and  C_12
REMARK   11  A    between atoms: C_13  and  C_14
REMARK                            x       y       z     vdW  Elec       q    Type
REMARK                         _______ _______ _______ _____ _____    ______ ____
ROOT
ATOM      1  C   UNL     1       7.320   6.518  17.405  0.00  0.00    +0.000 C 
ATOM      2  O   UNL     1       7.593   6.346  16.224  0.00  0.00    +0.000 OA
ENDROOT
BRANCH   1   3
ATOM      3  C   UNL     1       7.844   7.684  18.139  0.00  0.00    +0.000 C 
ATOM      4  C   UNL     1       8.007   8.880  17.551  0.00  0.00    +0.000 C 
BRANCH   4   5
ATOM      5  C   UNL     1       8.609  10.046  18.239  0.00  0.00    +0.000 A 
ATOM      6  C   UNL     1       9.220   9.835  19.485  0.00  0.00    +0.000 A 
ATOM      7  C   UNL     1       9.765  10.908  20.195  0.00  0.00    +0.000 A 
ATOM      8  C   UNL     1       9.721  12.197  19.661  0.00  0.00    +0.000 A 
ATOM      9  C   UNL     1       9.132  12.418  18.414  0.00  0.00    +0.000 A 
ATOM     10  C   UNL     1       8.573  11.353  17.706  0.00  0.00    +0.000 A 
ENDBRANCH   4   5
ENDBRANCH   1   3
BRANCH   1  11
ATOM     11  C   UNL     1       6.514   5.509  18.169  0.00  0.00    +0.000 C 
BRANCH  11  12
ATOM     12  C   UNL     1       5.027   5.879  18.255  0.00  0.00    +0.000 C 
BRANCH  12  13
ATOM     13  N   UNL     1       4.139   4.698  18.184  0.00  0.00    +0.000 NA
ATOM     14  C   UNL     1       4.397   3.901  16.964  0.00  0.00    +0.000 C 
BRANCH  13  15
ATOM     15  C   UNL     1       2.735   5.163  18.261  0.00  0.00    +0.000 C 
BRANCH  15  16
ATOM     16  C   UNL     1       1.685   4.108  17.854  0.00  0.00    +0.000 C 
BRANCH  16  18
ATOM     17  C   UNL     1       1.787   2.065  19.105  0.00  0.00    +0.000 C 
ATOM     18  N   UNL     1       1.085   3.353  18.982  0.00  0.00    +0.000 NA
ATOM     19  C   UNL     1       1.145   4.052  20.280  0.00  0.00    +0.000 C 
ENDBRANCH  16  18
ENDBRANCH  15  16
ENDBRANCH  13  15
ENDBRANCH  12  13
ENDBRANCH  11  12
ENDBRANCH   1  11
TORSDOF 8
ENDMDL
