MODEL 1
REMARK VINA RESULT:      -6.7      0.000      0.000
REMARK  Name = 
REMARK  3 active torsions:
REMARK  status: ('A' for Active; 'I' for Inactive)
REMARK    1  A    between atoms: C_4  and  C_5
REMARK    2  A    between atoms: C_13  and  C_14
REMARK    3  A    between atoms: N_20  and  N_21
REMARK                            x       y       z     vdW  Elec       q    Type
REMARK                         _______ _______ _______ _____ _____    ______ ____
ROOT
ATOM      1  O   UNL     1       2.180  12.726  20.899  0.00  0.00    +0.000 OA
ATOM      2  C   UNL     1       1.204  12.850  20.182  0.00  0.00    +0.000 C 
ATOM      3  C   UNL     1       1.031  13.738  18.991  0.00  0.00    +0.000 C 
ATOM      4  C   UNL     1       1.738  14.842  18.702  0.00  0.00    +0.000 C 
ATOM      5  N   UNL     1      -0.050  13.305  18.249  0.00  0.00    +0.000 NA
ATOM      6  C   UNL     1      -0.599  12.366  18.973  0.00  0.00    +0.000 C 
ATOM      7  N   UNL     1       0.035  12.131  20.167  0.00  0.00    +0.000 N 
ENDROOT
BRANCH   7   8
ATOM      8  N   UNL     1      -0.202  11.090  21.089  0.00  0.00    +0.000 N 
ATOM      9  C   UNL     1       0.304   9.840  20.788  0.00  0.00    +0.000 A 
ATOM     10  O   UNL     1       1.018   9.517  19.849  0.00  0.00    +0.000 OA
ATOM     11  C   UNL     1      -0.137   8.763  21.729  0.00  0.00    +0.000 A 
ATOM     12  N   UNL     1      -0.612   9.009  22.906  0.00  0.00    +0.000 NA
ATOM     13  N   UNL     1      -0.768  10.319  23.236  0.00  0.00    +0.000 N 
ATOM     14  C   UNL     1      -0.748  11.373  22.342  0.00  0.00    +0.000 A 
ATOM     15  S   UNL     1      -1.413  12.822  22.872  0.00  0.00    +0.000 S 
ATOM     16  H   UNL     1      -1.129  10.498  24.173  0.00  0.00    +0.000 HD
ENDBRANCH   7   8
BRANCH   4  17
ATOM     17  C   UNL     1       2.752  15.426  19.580  0.00  0.00    +0.000 A 
ATOM     18  C   UNL     1       2.398  16.302  20.609  0.00  0.00    +0.000 A 
ATOM     19  C   UNL     1       3.388  16.895  21.396  0.00  0.00    +0.000 A 
ATOM     20  C   UNL     1       4.729  16.608  21.159  0.00  0.00    +0.000 A 
ATOM     21 CL   UNL     1       5.950  17.357  22.113  0.00  0.00    +0.000 Cl
ATOM     22  C   UNL     1       5.094  15.717  20.147  0.00  0.00    +0.000 A 
ATOM     23  C   UNL     1       4.101  15.130  19.358  0.00  0.00    +0.000 A 
ENDBRANCH   4  17
BRANCH   6  24
ATOM     24  C   UNL     1      -1.764  11.595  18.485  0.00  0.00    +0.000 A 
ATOM     25  C   UNL     1      -3.042  12.039  18.856  0.00  0.00    +0.000 A 
ATOM     26  C   UNL     1      -4.182  11.413  18.345  0.00  0.00    +0.000 A 
ATOM     27  C   UNL     1      -4.047  10.343  17.464  0.00  0.00    +0.000 A 
ATOM     28  C   UNL     1      -2.777   9.877  17.118  0.00  0.00    +0.000 A 
ATOM     29  C   UNL     1      -1.635  10.487  17.642  0.00  0.00    +0.000 A 
ENDBRANCH   6  24
TORSDOF 3
ENDMDL
MODEL 2
REMARK VINA RESULT:      -6.5      0.207      1.308
REMARK  Name = 
REMARK  3 active torsions:
REMARK  status: ('A' for Active; 'I' for Inactive)
REMARK    1  A    between atoms: C_4  and  C_5
REMARK    2  A    between atoms: C_13  and  C_14
REMARK    3  A    between atoms: N_20  and  N_21
REMARK                            x       y       z     vdW  Elec       q    Type
REMARK                         _______ _______ _______ _____ _____    ______ ____
ROOT
ATOM      1  O   UNL     1       2.194  12.734  20.945  0.00  0.00    +0.000 OA
ATOM      2  C   UNL     1       1.223  12.893  20.228  0.00  0.00    +0.000 C 
ATOM      3  C   UNL     1       1.068  13.818  19.063  0.00  0.00    +0.000 C 
ATOM      4  C   UNL     1       1.792  14.918  18.808  0.00  0.00    +0.000 C 
ATOM      5  N   UNL     1      -0.017  13.423  18.305  0.00  0.00    +0.000 NA
ATOM      6  C   UNL     1      -0.583  12.472  19.000  0.00  0.00    +0.000 C 
ATOM      7  N   UNL     1       0.043  12.193  20.190  0.00  0.00    +0.000 N 
ENDROOT
BRANCH   7   8
ATOM      8  N   UNL     1      -0.214  11.130  21.081  0.00  0.00    +0.000 N 
ATOM      9  C   UNL     1       0.289   9.885  20.754  0.00  0.00    +0.000 A 
ATOM     10  O   UNL     1       1.014   9.582  19.817  0.00  0.00    +0.000 OA
ATOM     11  C   UNL     1      -0.172   8.787  21.660  0.00  0.00    +0.000 A 
ATOM     12  N   UNL     1      -0.662   9.005  22.836  0.00  0.00    +0.000 NA
ATOM     13  N   UNL     1      -0.815  10.307  23.199  0.00  0.00    +0.000 N 
ATOM     14  C   UNL     1      -0.776  11.383  22.333  0.00  0.00    +0.000 A 
ATOM     15  S   UNL     1      -1.439  12.823  22.891  0.00  0.00    +0.000 S 
ATOM     16  H   UNL     1      -1.187  10.464  24.135  0.00  0.00    +0.000 HD
ENDBRANCH   7   8
BRANCH   4  17
ATOM     17  C   UNL     1       2.812  15.461  19.705  0.00  0.00    +0.000 A 
ATOM     18  C   UNL     1       4.163  15.158  19.531  0.00  0.00    +0.000 A 
ATOM     19  C   UNL     1       5.113  15.638  20.436  0.00  0.00    +0.000 A 
ATOM     20  C   UNL     1       4.711  16.428  21.510  0.00  0.00    +0.000 A 
ATOM     21 CL   UNL     1       5.878  17.001  22.639  0.00  0.00    +0.000 Cl
ATOM     22  C   UNL     1       3.365  16.757  21.682  0.00  0.00    +0.000 A 
ATOM     23  C   UNL     1       2.417  16.269  20.778  0.00  0.00    +0.000 A 
ENDBRANCH   4  17
BRANCH   6  24
ATOM     24  C   UNL     1      -1.759  11.733  18.487  0.00  0.00    +0.000 A 
ATOM     25  C   UNL     1      -1.525  10.668  17.604  0.00  0.00    +0.000 A 
ATOM     26  C   UNL     1      -2.585   9.871  17.165  0.00  0.00    +0.000 A 
ATOM     27  C   UNL     1      -3.879  10.137  17.607  0.00  0.00    +0.000 A 
ATOM     28  C   UNL     1      -4.120  11.216  18.459  0.00  0.00    +0.000 A 
ATOM     29  C   UNL     1      -3.066  12.028  18.884  0.00  0.00    +0.000 A 
ENDBRANCH   6  24
TORSDOF 3
ENDMDL
MODEL 3
REMARK VINA RESULT:      -6.5      6.757      8.387
REMARK  Name = 
REMARK  3 active torsions:
REMARK  status: ('A' for Active; 'I' for Inactive)
REMARK    1  A    between atoms: C_4  and  C_5
REMARK    2  A    between atoms: C_13  and  C_14
REMARK    3  A    between atoms: N_20  and  N_21
REMARK                            x       y       z     vdW  Elec       q    Type
REMARK                         _______ _______ _______ _____ _____    ______ ____
ROOT
ATOM      1  O   UNL     1       1.911   7.223  19.659  0.00  0.00    +0.000 OA
ATOM      2  C   UNL     1       2.513   7.182  18.602  0.00  0.00    +0.000 C 
ATOM      3  C   UNL     1       2.944   8.321  17.733  0.00  0.00    +0.000 C 
ATOM      4  C   UNL     1       2.435   9.562  17.723  0.00  0.00    +0.000 C 
ATOM      5  N   UNL     1       3.910   7.883  16.849  0.00  0.00    +0.000 NA
ATOM      6  C   UNL     1       3.959   6.588  17.020  0.00  0.00    +0.000 C 
ATOM      7  N   UNL     1       3.083   6.110  17.962  0.00  0.00    +0.000 N 
ENDROOT
BRANCH   7   8
ATOM      8  N   UNL     1       3.002   4.805  18.494  0.00  0.00    +0.000 N 
ATOM      9  C   UNL     1       1.903   4.041  18.150  0.00  0.00    +0.000 A 
ATOM     10  O   UNL     1       1.007   4.313  17.363  0.00  0.00    +0.000 OA
ATOM     11  C   UNL     1       1.811   2.743  18.889  0.00  0.00    +0.000 A 
ATOM     12  N   UNL     1       2.820   2.203  19.490  0.00  0.00    +0.000 NA
ATOM     13  N   UNL     1       3.980   2.913  19.488  0.00  0.00    +0.000 N 
ATOM     14  C   UNL     1       4.091   4.254  19.170  0.00  0.00    +0.000 A 
ATOM     15  S   UNL     1       5.493   5.033  19.672  0.00  0.00    +0.000 S 
ATOM     16  H   UNL     1       4.771   2.468  19.952  0.00  0.00    +0.000 HD
ENDBRANCH   7   8
BRANCH   4  17
ATOM     17  C   UNL     1       1.277   9.985  18.510  0.00  0.00    +0.000 A 
ATOM     18  C   UNL     1      -0.023   9.823  18.028  0.00  0.00    +0.000 A 
ATOM     19  C   UNL     1      -1.111  10.290  18.770  0.00  0.00    +0.000 A 
ATOM     20  C   UNL     1      -0.898  10.912  19.998  0.00  0.00    +0.000 A 
ATOM     21 CL   UNL     1      -2.236  11.508  20.902  0.00  0.00    +0.000 Cl
ATOM     22  C   UNL     1       0.396  11.061  20.501  0.00  0.00    +0.000 A 
ATOM     23  C   UNL     1       1.482  10.598  19.751  0.00  0.00    +0.000 A 
ENDBRANCH   4  17
BRANCH   6  24
ATOM     24  C   UNL     1       4.936   5.748  16.292  0.00  0.00    +0.000 A 
ATOM     25  C   UNL     1       6.290   6.109  16.365  0.00  0.00    +0.000 A 
ATOM     26  C   UNL     1       7.268   5.299  15.783  0.00  0.00    +0.000 A 
ATOM     27  C   UNL     1       6.896   4.128  15.126  0.00  0.00    +0.000 A 
ATOM     28  C   UNL     1       5.547   3.782  15.023  0.00  0.00    +0.000 A 
ATOM     29  C   UNL     1       4.564   4.600  15.586  0.00  0.00    +0.000 A 
ENDBRANCH   6  24
TORSDOF 3
ENDMDL
MODEL 4
REMARK VINA RESULT:      -6.4      7.622      9.456
REMARK  Name = 
REMARK  3 active torsions:
REMARK  status: ('A' for Active; 'I' for Inactive)
REMARK    1  A    between atoms: C_4  and  C_5
REMARK    2  A    between atoms: C_13  and  C_14
REMARK    3  A    between atoms: N_20  and  N_21
REMARK                            x       y       z     vdW  Elec       q    Type
REMARK                         _______ _______ _______ _____ _____    ______ ____
ROOT
ATOM      1  O   UNL     1       8.766  14.127  21.723  0.00  0.00    +0.000 OA
ATOM      2  C   UNL     1       8.314  13.183  22.346  0.00  0.00    +0.000 C 
ATOM      3  C   UNL     1       8.797  11.768  22.369  0.00  0.00    +0.000 C 
ATOM      4  C   UNL     1       9.554  11.161  21.441  0.00  0.00    +0.000 C 
ATOM      5  N   UNL     1       8.268  11.121  23.468  0.00  0.00    +0.000 NA
ATOM      6  C   UNL     1       7.417  11.970  23.980  0.00  0.00    +0.000 C 
ATOM      7  N   UNL     1       7.326  13.158  23.298  0.00  0.00    +0.000 N 
ENDROOT
BRANCH   7   8
ATOM      8  N   UNL     1       6.636  14.329  23.676  0.00  0.00    +0.000 N 
ATOM      9  C   UNL     1       5.326  14.463  23.257  0.00  0.00    +0.000 A 
ATOM     10  O   UNL     1       4.634  13.652  22.657  0.00  0.00    +0.000 OA
ATOM     11  C   UNL     1       4.728  15.803  23.554  0.00  0.00    +0.000 A 
ATOM     12  N   UNL     1       5.218  16.612  24.435  0.00  0.00    +0.000 NA
ATOM     13  N   UNL     1       6.370  16.221  25.045  0.00  0.00    +0.000 N 
ATOM     14  C   UNL     1       7.199  15.207  24.603  0.00  0.00    +0.000 A 
ATOM     15  S   UNL     1       8.765  15.197  25.211  0.00  0.00    +0.000 S 
ATOM     16  H   UNL     1       6.736  16.861  25.748  0.00  0.00    +0.000 HD
ENDBRANCH   7   8
BRANCH   4  17
ATOM     17  C   UNL     1       9.954  11.773  20.174  0.00  0.00    +0.000 A 
ATOM     18  C   UNL     1       9.114  11.741  19.060  0.00  0.00    +0.000 A 
ATOM     19  C   UNL     1       9.542  12.278  17.842  0.00  0.00    +0.000 A 
ATOM     20  C   UNL     1      10.806  12.852  17.744  0.00  0.00    +0.000 A 
ATOM     21 CL   UNL     1      11.343  13.493  16.239  0.00  0.00    +0.000 Cl
ATOM     22  C   UNL     1      11.647  12.910  18.857  0.00  0.00    +0.000 A 
ATOM     23  C   UNL     1      11.217  12.366  20.071  0.00  0.00    +0.000 A 
ENDBRANCH   4  17
BRANCH   6  24
ATOM     24  C   UNL     1       6.682  11.671  25.229  0.00  0.00    +0.000 A 
ATOM     25  C   UNL     1       5.459  10.991  25.119  0.00  0.00    +0.000 A 
ATOM     26  C   UNL     1       4.769  10.593  26.266  0.00  0.00    +0.000 A 
ATOM     27  C   UNL     1       5.298  10.873  27.524  0.00  0.00    +0.000 A 
ATOM     28  C   UNL     1       6.497  11.578  27.638  0.00  0.00    +0.000 A 
ATOM     29  C   UNL     1       7.181  11.996  26.494  0.00  0.00    +0.000 A 
ENDBRANCH   6  24
TORSDOF 3
ENDMDL
MODEL 5
REMARK VINA RESULT:      -6.3      1.348      1.870
REMARK  Name = 
REMARK  3 active torsions:
REMARK  status: ('A' for Active; 'I' for Inactive)
REMARK    1  A    between atoms: C_4  and  C_5
REMARK    2  A    between atoms: C_13  and  C_14
REMARK    3  A    between atoms: N_20  and  N_21
REMARK                            x       y       z     vdW  Elec       q    Type
REMARK                         _______ _______ _______ _____ _____    ______ ____
ROOT
ATOM      1  O   UNL     1       2.250  12.757  20.846  0.00  0.00    +0.000 OA
ATOM      2  C   UNL     1       1.254  12.884  20.157  0.00  0.00    +0.000 C 
ATOM      3  C   UNL     1       1.051  13.775  18.972  0.00  0.00    +0.000 C 
ATOM      4  C   UNL     1       1.754  14.876  18.664  0.00  0.00    +0.000 C 
ATOM      5  N   UNL     1      -0.052  13.347  18.260  0.00  0.00    +0.000 NA
ATOM      6  C   UNL     1      -0.584  12.409  18.998  0.00  0.00    +0.000 C 
ATOM      7  N   UNL     1       0.082  12.170  20.175  0.00  0.00    +0.000 N 
ENDROOT
BRANCH   7   8
ATOM      8  N   UNL     1      -0.133  11.129  21.102  0.00  0.00    +0.000 N 
ATOM      9  C   UNL     1      -0.925  11.404  22.200  0.00  0.00    +0.000 A 
ATOM     10  O   UNL     1      -1.550  12.425  22.448  0.00  0.00    +0.000 OA
ATOM     11  C   UNL     1      -0.960  10.303  23.214  0.00  0.00    +0.000 A 
ATOM     12  N   UNL     1      -0.618   9.086  22.943  0.00  0.00    +0.000 NA
ATOM     13  N   UNL     1      -0.144   8.853  21.689  0.00  0.00    +0.000 N 
ATOM     14  C   UNL     1       0.275   9.828  20.804  0.00  0.00    +0.000 A 
ATOM     15  S   UNL     1       1.240   9.320  19.526  0.00  0.00    +0.000 S 
ATOM     16  H   UNL     1       0.106   7.887  21.484  0.00  0.00    +0.000 HD
ENDBRANCH   7   8
BRANCH   4  17
ATOM     17  C   UNL     1       2.794  15.456  19.514  0.00  0.00    +0.000 A 
ATOM     18  C   UNL     1       4.141  15.139  19.324  0.00  0.00    +0.000 A 
ATOM     19  C   UNL     1       5.111  15.657  20.186  0.00  0.00    +0.000 A 
ATOM     20  C   UNL     1       4.735  16.496  21.231  0.00  0.00    +0.000 A 
ATOM     21 CL   UNL     1       5.927  17.116  22.307  0.00  0.00    +0.000 Cl
ATOM     22  C   UNL     1       3.394  16.838  21.417  0.00  0.00    +0.000 A 
ATOM     23  C   UNL     1       2.426  16.313  20.556  0.00  0.00    +0.000 A 
ENDBRANCH   4  17
BRANCH   6  24
ATOM     24  C   UNL     1      -1.766  11.643  18.543  0.00  0.00    +0.000 A 
ATOM     25  C   UNL     1      -3.027  12.060  18.993  0.00  0.00    +0.000 A 
ATOM     26  C   UNL     1      -4.185  11.440  18.518  0.00  0.00    +0.000 A 
ATOM     27  C   UNL     1      -4.086  10.402  17.595  0.00  0.00    +0.000 A 
ATOM     28  C   UNL     1      -2.831   9.962  17.169  0.00  0.00    +0.000 A 
ATOM     29  C   UNL     1      -1.669  10.566  17.657  0.00  0.00    +0.000 A 
ENDBRANCH   6  24
TORSDOF 3
ENDMDL
MODEL 6
REMARK VINA RESULT:      -6.2      7.047     10.244
REMARK  Name = 
REMARK  3 active torsions:
REMARK  status: ('A' for Active; 'I' for Inactive)
REMARK    1  A    between atoms: C_4  and  C_5
REMARK    2  A    between atoms: C_13  and  C_14
REMARK    3  A    between atoms: N_20  and  N_21
REMARK                            x       y       z     vdW  Elec       q    Type
REMARK                         _______ _______ _______ _____ _____    ______ ____
ROOT
ATOM      1  O   UNL     1       6.707  17.025  18.674  0.00  0.00    +0.000 OA
ATOM      2  C   UNL     1       7.113  15.878  18.713  0.00  0.00    +0.000 C 
ATOM      3  C   UNL     1       6.481  14.647  18.144  0.00  0.00    +0.000 C 
ATOM      4  C   UNL     1       5.188  14.480  17.828  0.00  0.00    +0.000 C 
ATOM      5  N   UNL     1       7.424  13.641  18.066  0.00  0.00    +0.000 NA
ATOM      6  C   UNL     1       8.477  14.121  18.673  0.00  0.00    +0.000 C 
ATOM      7  N   UNL     1       8.314  15.392  19.167  0.00  0.00    +0.000 N 
ENDROOT
BRANCH   7   8
ATOM      8  N   UNL     1       9.293  16.244  19.720  0.00  0.00    +0.000 N 
ATOM      9  C   UNL     1       9.390  16.299  21.097  0.00  0.00    +0.000 A 
ATOM     10  O   UNL     1       8.786  15.633  21.927  0.00  0.00    +0.000 OA
ATOM     11  C   UNL     1      10.331  17.349  21.598  0.00  0.00    +0.000 A 
ATOM     12  N   UNL     1      11.243  17.888  20.857  0.00  0.00    +0.000 NA
ATOM     13  N   UNL     1      11.269  17.506  19.552  0.00  0.00    +0.000 N 
ATOM     14  C   UNL     1      10.248  16.843  18.896  0.00  0.00    +0.000 A 
ATOM     15  S   UNL     1      10.280  16.883  17.217  0.00  0.00    +0.000 S 
ATOM     16  H   UNL     1      12.003  17.926  18.983  0.00  0.00    +0.000 HD
ENDBRANCH   7   8
BRANCH   4  17
ATOM     17  C   UNL     1       4.140  15.466  18.092  0.00  0.00    +0.000 A 
ATOM     18  C   UNL     1       3.636  15.658  19.380  0.00  0.00    +0.000 A 
ATOM     19  C   UNL     1       2.593  16.562  19.598  0.00  0.00    +0.000 A 
ATOM     20  C   UNL     1       2.060  17.279  18.529  0.00  0.00    +0.000 A 
ATOM     21 CL   UNL     1       0.760  18.375  18.793  0.00  0.00    +0.000 Cl
ATOM     22  C   UNL     1       2.571  17.112  17.240  0.00  0.00    +0.000 A 
ATOM     23  C   UNL     1       3.610  16.202  17.026  0.00  0.00    +0.000 A 
ENDBRANCH   4  17
BRANCH   6  24
ATOM     24  C   UNL     1       9.744  13.359  18.745  0.00  0.00    +0.000 A 
ATOM     25  C   UNL     1      10.126  12.844  19.993  0.00  0.00    +0.000 A 
ATOM     26  C   UNL     1      11.257  12.032  20.104  0.00  0.00    +0.000 A 
ATOM     27  C   UNL     1      12.009  11.734  18.970  0.00  0.00    +0.000 A 
ATOM     28  C   UNL     1      11.651  12.271  17.732  0.00  0.00    +0.000 A 
ATOM     29  C   UNL     1      10.532  13.100  17.620  0.00  0.00    +0.000 A 
ENDBRANCH   6  24
TORSDOF 3
ENDMDL
MODEL 7
REMARK VINA RESULT:      -6.2      8.101      9.766
REMARK  Name = 
REMARK  3 active torsions:
REMARK  status: ('A' for Active; 'I' for Inactive)
REMARK    1  A    between atoms: C_4  and  C_5
REMARK    2  A    between atoms: C_13  and  C_14
REMARK    3  A    between atoms: N_20  and  N_21
REMARK                            x       y       z     vdW  Elec       q    Type
REMARK                         _______ _______ _______ _____ _____    ______ ____
ROOT
ATOM      1  O   UNL     1       9.238  14.119  21.839  0.00  0.00    +0.000 OA
ATOM      2  C   UNL     1       8.647  13.219  22.407  0.00  0.00    +0.000 C 
ATOM      3  C   UNL     1       8.883  11.745  22.308  0.00  0.00    +0.000 C 
ATOM      4  C   UNL     1       9.502  11.095  21.310  0.00  0.00    +0.000 C 
ATOM      5  N   UNL     1       8.278  11.111  23.375  0.00  0.00    +0.000 NA
ATOM      6  C   UNL     1       7.597  12.049  23.980  0.00  0.00    +0.000 C 
ATOM      7  N   UNL     1       7.693  13.285  23.391  0.00  0.00    +0.000 N 
ENDROOT
BRANCH   7   8
ATOM      8  N   UNL     1       7.222  14.522  23.879  0.00  0.00    +0.000 N 
ATOM      9  C   UNL     1       8.036  15.218  24.751  0.00  0.00    +0.000 A 
ATOM     10  O   UNL     1       9.175  14.946  25.106  0.00  0.00    +0.000 OA
ATOM     11  C   UNL     1       7.391  16.428  25.350  0.00  0.00    +0.000 A 
ATOM     12  N   UNL     1       6.347  16.994  24.839  0.00  0.00    +0.000 NA
ATOM     13  N   UNL     1       5.800  16.389  23.750  0.00  0.00    +0.000 N 
ATOM     14  C   UNL     1       6.072  15.099  23.337  0.00  0.00    +0.000 A 
ATOM     15  S   UNL     1       4.971  14.399  22.278  0.00  0.00    +0.000 S 
ATOM     16  H   UNL     1       4.987  16.854  23.348  0.00  0.00    +0.000 HD
ENDBRANCH   7   8
BRANCH   4  17
ATOM     17  C   UNL     1       9.970  11.728  20.077  0.00  0.00    +0.000 A 
ATOM     18  C   UNL     1       9.100  11.961  19.010  0.00  0.00    +0.000 A 
ATOM     19  C   UNL     1       9.582  12.512  17.820  0.00  0.00    +0.000 A 
ATOM     20  C   UNL     1      10.931  12.836  17.700  0.00  0.00    +0.000 A 
ATOM     21 CL   UNL     1      11.529  13.492  16.226  0.00  0.00    +0.000 Cl
ATOM     22  C   UNL     1      11.806  12.628  18.769  0.00  0.00    +0.000 A 
ATOM     23  C   UNL     1      11.320  12.071  19.956  0.00  0.00    +0.000 A 
ENDBRANCH   4  17
BRANCH   6  24
ATOM     24  C   UNL     1       6.852  11.780  25.230  0.00  0.00    +0.000 A 
ATOM     25  C   UNL     1       5.619  11.119  25.125  0.00  0.00    +0.000 A 
ATOM     26  C   UNL     1       4.918  10.748  26.275  0.00  0.00    +0.000 A 
ATOM     27  C   UNL     1       5.446  11.038  27.531  0.00  0.00    +0.000 A 
ATOM     28  C   UNL     1       6.657  11.725  27.639  0.00  0.00    +0.000 A 
ATOM     29  C   UNL     1       7.352  12.115  26.492  0.00  0.00    +0.000 A 
ENDBRANCH   6  24
TORSDOF 3
ENDMDL
MODEL 8
REMARK VINA RESULT:      -6.2      3.891      6.630
REMARK  Name = 
REMARK  3 active torsions:
REMARK  status: ('A' for Active; 'I' for Inactive)
REMARK    1  A    between atoms: C_4  and  C_5
REMARK    2  A    between atoms: C_13  and  C_14
REMARK    3  A    between atoms: N_20  and  N_21
REMARK                            x       y       z     vdW  Elec       q    Type
REMARK                         _______ _______ _______ _____ _____    ______ ____
ROOT
ATOM      1  O   UNL     1       1.943  12.122  20.767  0.00  0.00    +0.000 OA
ATOM      2  C   UNL     1       1.135  12.767  20.124  0.00  0.00    +0.000 C 
ATOM      3  C   UNL     1      -0.124  12.293  19.470  0.00  0.00    +0.000 C 
ATOM      4  C   UNL     1      -0.423  11.033  19.120  0.00  0.00    +0.000 C 
ATOM      5  N   UNL     1      -0.929  13.378  19.183  0.00  0.00    +0.000 NA
ATOM      6  C   UNL     1      -0.195  14.423  19.463  0.00  0.00    +0.000 C 
ATOM      7  N   UNL     1       1.065  14.122  19.918  0.00  0.00    +0.000 N 
ENDROOT
BRANCH   7   8
ATOM      8  N   UNL     1       2.031  15.000  20.453  0.00  0.00    +0.000 N 
ATOM      9  C   UNL     1       1.897  15.368  21.779  0.00  0.00    +0.000 A 
ATOM     10  O   UNL     1       1.084  14.965  22.599  0.00  0.00    +0.000 OA
ATOM     11  C   UNL     1       2.859  16.428  22.215  0.00  0.00    +0.000 A 
ATOM     12  N   UNL     1       3.943  16.704  21.566  0.00  0.00    +0.000 NA
ATOM     13  N   UNL     1       4.144  16.027  20.404  0.00  0.00    +0.000 N 
ATOM     14  C   UNL     1       3.178  15.312  19.722  0.00  0.00    +0.000 A 
ATOM     15  S   UNL     1       3.501  14.955  18.113  0.00  0.00    +0.000 S 
ATOM     16  H   UNL     1       5.011  16.242  19.912  0.00  0.00    +0.000 HD
ENDBRANCH   7   8
BRANCH   4  17
ATOM     17  C   UNL     1       0.500   9.903  19.233  0.00  0.00    +0.000 A 
ATOM     18  C   UNL     1       1.268   9.487  18.144  0.00  0.00    +0.000 A 
ATOM     19  C   UNL     1       2.098   8.368  18.258  0.00  0.00    +0.000 A 
ATOM     20  C   UNL     1       2.164   7.672  19.462  0.00  0.00    +0.000 A 
ATOM     21 CL   UNL     1       3.168   6.281  19.595  0.00  0.00    +0.000 Cl
ATOM     22  C   UNL     1       1.417   8.093  20.564  0.00  0.00    +0.000 A 
ATOM     23  C   UNL     1       0.584   9.208  20.445  0.00  0.00    +0.000 A 
ENDBRANCH   4  17
BRANCH   6  24
ATOM     24  C   UNL     1      -0.731  15.798  19.350  0.00  0.00    +0.000 A 
ATOM     25  C   UNL     1      -0.330  16.567  18.248  0.00  0.00    +0.000 A 
ATOM     26  C   UNL     1      -0.880  17.833  18.034  0.00  0.00    +0.000 A 
ATOM     27  C   UNL     1      -1.829  18.333  18.921  0.00  0.00    +0.000 A 
ATOM     28  C   UNL     1      -2.207  17.585  20.038  0.00  0.00    +0.000 A 
ATOM     29  C   UNL     1      -1.645  16.327  20.267  0.00  0.00    +0.000 A 
ENDBRANCH   6  24
TORSDOF 3
ENDMDL
MODEL 9
REMARK VINA RESULT:      -6.2      6.713     10.000
REMARK  Name = 
REMARK  3 active torsions:
REMARK  status: ('A' for Active; 'I' for Inactive)
REMARK    1  A    between atoms: C_4  and  C_5
REMARK    2  A    between atoms: C_13  and  C_14
REMARK    3  A    between atoms: N_20  and  N_21
REMARK                            x       y       z     vdW  Elec       q    Type
REMARK                         _______ _______ _______ _____ _____    ______ ____
ROOT
ATOM      1  O   UNL     1       6.436  17.042  18.649  0.00  0.00    +0.000 OA
ATOM      2  C   UNL     1       6.856  15.899  18.620  0.00  0.00    +0.000 C 
ATOM      3  C   UNL     1       6.215  14.688  18.019  0.00  0.00    +0.000 C 
ATOM      4  C   UNL     1       4.912  14.520  17.746  0.00  0.00    +0.000 C 
ATOM      5  N   UNL     1       7.164  13.698  17.860  0.00  0.00    +0.000 NA
ATOM      6  C   UNL     1       8.235  14.163  18.448  0.00  0.00    +0.000 C 
ATOM      7  N   UNL     1       8.078  15.408  19.005  0.00  0.00    +0.000 N 
ENDROOT
BRANCH   7   8
ATOM      8  N   UNL     1       9.069  16.246  19.559  0.00  0.00    +0.000 N 
ATOM      9  C   UNL     1       9.848  16.980  18.685  0.00  0.00    +0.000 A 
ATOM     10  O   UNL     1       9.744  17.071  17.470  0.00  0.00    +0.000 OA
ATOM     11  C   UNL     1      10.979  17.705  19.344  0.00  0.00    +0.000 A 
ATOM     12  N   UNL     1      11.014  17.949  20.613  0.00  0.00    +0.000 NA
ATOM     13  N   UNL     1       9.994  17.443  21.357  0.00  0.00    +0.000 N 
ATOM     14  C   UNL     1       9.110  16.467  20.937  0.00  0.00    +0.000 A 
ATOM     15  S   UNL     1       8.246  15.666  22.134  0.00  0.00    +0.000 S 
ATOM     16  H   UNL     1      10.026  17.655  22.354  0.00  0.00    +0.000 HD
ENDBRANCH   7   8
BRANCH   4  17
ATOM     17  C   UNL     1       3.865  15.481  18.094  0.00  0.00    +0.000 A 
ATOM     18  C   UNL     1       3.333  16.348  17.137  0.00  0.00    +0.000 A 
ATOM     19  C   UNL     1       2.378  17.299  17.505  0.00  0.00    +0.000 A 
ATOM     20  C   UNL     1       1.950  17.377  18.828  0.00  0.00    +0.000 A 
ATOM     21 CL   UNL     1       0.790  18.563  19.287  0.00  0.00    +0.000 Cl
ATOM     22  C   UNL     1       2.458  16.501  19.789  0.00  0.00    +0.000 A 
ATOM     23  C   UNL     1       3.418  15.555  19.418  0.00  0.00    +0.000 A 
ENDBRANCH   4  17
BRANCH   6  24
ATOM     24  C   UNL     1       9.511  13.413  18.436  0.00  0.00    +0.000 A 
ATOM     25  C   UNL     1       9.782  12.570  19.524  0.00  0.00    +0.000 A 
ATOM     26  C   UNL     1      10.921  11.762  19.522  0.00  0.00    +0.000 A 
ATOM     27  C   UNL     1      11.791  11.794  18.435  0.00  0.00    +0.000 A 
ATOM     28  C   UNL     1      11.542  12.656  17.365  0.00  0.00    +0.000 A 
ATOM     29  C   UNL     1      10.414  13.481  17.371  0.00  0.00    +0.000 A 
ENDBRANCH   6  24
TORSDOF 3
ENDMDL
