MODEL 1
REMARK VINA RESULT:      -8.1      0.000      0.000
REMARK  Name = 
REMARK  5 active torsions:
REMARK  status: ('A' for Active; 'I' for Inactive)
REMARK    1  A    between atoms: C_1  and  O_2
REMARK    2  A    between atoms: O_2  and  C_3
REMARK    3  A    between atoms: C_7  and  C_8
REMARK    4  A    between atoms: N_10  and  C_11
REMARK    5  A    between atoms: C_13  and  C_14
REMARK                            x       y       z     vdW  Elec       q    Type
REMARK                         _______ _______ _______ _____ _____    ______ ____
ROOT
ATOM      1  C   UNL     1       2.415   5.899  19.827  0.00  0.00    +0.000 A 
ATOM      2  C   UNL     1       3.511   6.045  19.064  0.00  0.00    +0.000 A 
ATOM      3  C   UNL     1       4.098   4.944  18.323  0.00  0.00    +0.000 A 
ATOM      4  C   UNL     1       3.531   3.730  18.404  0.00  0.00    +0.000 A 
ATOM      5  N   UNL     1       2.420   3.531  19.187  0.00  0.00    +0.000 N 
ATOM      6  C   UNL     1       1.811   4.520  19.926  0.00  0.00    +0.000 A 
ATOM      7  O   UNL     1       0.818   4.313  20.620  0.00  0.00    +0.000 OA
ATOM      8  H   UNL     1       1.994   2.613  19.236  0.00  0.00    +0.000 HD
ENDROOT
BRANCH   3   9
ATOM      9  C   UNL     1       5.288   5.129  17.474  0.00  0.00    +0.000 A 
ATOM     10  C   UNL     1       5.501   4.307  16.365  0.00  0.00    +0.000 A 
ATOM     11  C   UNL     1       6.609   4.552  15.572  0.00  0.00    +0.000 A 
ATOM     12  N   UNL     1       7.499   5.541  15.810  0.00  0.00    +0.000 NA
ATOM     13  C   UNL     1       7.262   6.329  16.880  0.00  0.00    +0.000 A 
ATOM     14  C   UNL     1       6.184   6.167  17.732  0.00  0.00    +0.000 A 
ENDBRANCH   3   9
BRANCH   1  17
ATOM     15  C   UNL     1       1.520   8.181  20.046  0.00  0.00    +0.000 C 
ATOM     16  O   UNL     1       1.783   8.581  18.917  0.00  0.00    +0.000 OA
ATOM     17  N   UNL     1       1.778   6.910  20.528  0.00  0.00    +0.000 N 
ATOM     18  H   UNL     1       1.308   6.604  21.376  0.00  0.00    +0.000 HD
BRANCH  15  23
ATOM     19  C   UNL     1      -0.615  11.018  21.378  0.00  0.00    +0.000 A 
ATOM     20  C   UNL     1      -0.641  10.676  22.735  0.00  0.00    +0.000 A 
ATOM     21  C   UNL     1       0.031   9.549  23.204  0.00  0.00    +0.000 A 
ATOM     22  C   UNL     1       0.743   8.757  22.309  0.00  0.00    +0.000 A 
ATOM     23  C   UNL     1       0.787   9.098  20.951  0.00  0.00    +0.000 A 
ATOM     24  C   UNL     1       0.100  10.225  20.477  0.00  0.00    +0.000 A 
BRANCH  19  26
ATOM     25  C   UNL     1      -1.970  12.193  19.807  0.00  0.00    +0.000 C 
ATOM     26  O   UNL     1      -1.333  12.143  21.076  0.00  0.00    +0.000 OA
ENDBRANCH  19  26
ENDBRANCH  15  23
ENDBRANCH   1  17
TORSDOF 4
ENDMDL
MODEL 2
REMARK VINA RESULT:      -8.1      2.480      4.010
REMARK  Name = 
REMARK  5 active torsions:
REMARK  status: ('A' for Active; 'I' for Inactive)
REMARK    1  A    between atoms: C_1  and  O_2
REMARK    2  A    between atoms: O_2  and  C_3
REMARK    3  A    between atoms: C_7  and  C_8
REMARK    4  A    between atoms: N_10  and  C_11
REMARK    5  A    between atoms: C_13  and  C_14
REMARK                            x       y       z     vdW  Elec       q    Type
REMARK                         _______ _______ _______ _____ _____    ______ ____
ROOT
ATOM      1  C   UNL     1       5.282   6.067  17.504  0.00  0.00    +0.000 A 
ATOM      2  C   UNL     1       5.481   5.834  16.196  0.00  0.00    +0.000 A 
ATOM      3  C   UNL     1       6.461   4.879  15.713  0.00  0.00    +0.000 A 
ATOM      4  C   UNL     1       7.204   4.203  16.604  0.00  0.00    +0.000 A 
ATOM      5  N   UNL     1       7.048   4.423  17.952  0.00  0.00    +0.000 N 
ATOM      6  C   UNL     1       6.149   5.317  18.486  0.00  0.00    +0.000 A 
ATOM      7  O   UNL     1       6.031   5.496  19.697  0.00  0.00    +0.000 OA
ATOM      8  H   UNL     1       7.607   3.903  18.617  0.00  0.00    +0.000 HD
ENDROOT
BRANCH   3   9
ATOM      9  C   UNL     1       6.649   4.621  14.275  0.00  0.00    +0.000 A 
ATOM     10  C   UNL     1       7.626   5.309  13.554  0.00  0.00    +0.000 A 
ATOM     11  C   UNL     1       7.794   4.996  12.215  0.00  0.00    +0.000 A 
ATOM     12  N   UNL     1       7.066   4.062  11.565  0.00  0.00    +0.000 NA
ATOM     13  C   UNL     1       6.137   3.401  12.289  0.00  0.00    +0.000 A 
ATOM     14  C   UNL     1       5.894   3.640  13.631  0.00  0.00    +0.000 A 
ENDBRANCH   3   9
BRANCH   1  17
ATOM     15  C   UNL     1       3.011   6.627  18.265  0.00  0.00    +0.000 C 
ATOM     16  O   UNL     1       2.485   5.538  18.064  0.00  0.00    +0.000 OA
ATOM     17  N   UNL     1       4.342   6.932  18.037  0.00  0.00    +0.000 N 
ATOM     18  H   UNL     1       4.731   7.771  18.461  0.00  0.00    +0.000 HD
BRANCH  15  23
ATOM     19  C   UNL     1       1.169   8.779  20.788  0.00  0.00    +0.000 A 
ATOM     20  C   UNL     1       0.715   9.798  19.941  0.00  0.00    +0.000 A 
ATOM     21  C   UNL     1       0.997   9.775  18.577  0.00  0.00    +0.000 A 
ATOM     22  C   UNL     1       1.737   8.722  18.049  0.00  0.00    +0.000 A 
ATOM     23  C   UNL     1       2.184   7.691  18.884  0.00  0.00    +0.000 A 
ATOM     24  C   UNL     1       1.912   7.719  20.260  0.00  0.00    +0.000 A 
BRANCH  19  26
ATOM     25  C   UNL     1      -0.546   9.200  22.388  0.00  0.00    +0.000 C 
ATOM     26  O   UNL     1       0.822   8.952  22.099  0.00  0.00    +0.000 OA
ENDBRANCH  19  26
ENDBRANCH  15  23
ENDBRANCH   1  17
TORSDOF 4
ENDMDL
MODEL 3
REMARK VINA RESULT:      -8.1      3.289      8.641
REMARK  Name = 
REMARK  5 active torsions:
REMARK  status: ('A' for Active; 'I' for Inactive)
REMARK    1  A    between atoms: C_1  and  O_2
REMARK    2  A    between atoms: O_2  and  C_3
REMARK    3  A    between atoms: C_7  and  C_8
REMARK    4  A    between atoms: N_10  and  C_11
REMARK    5  A    between atoms: C_13  and  C_14
REMARK                            x       y       z     vdW  Elec       q    Type
REMARK                         _______ _______ _______ _____ _____    ______ ____
ROOT
ATOM      1  C   UNL     1       3.803   5.020  17.561  0.00  0.00    +0.000 A 
ATOM      2  C   UNL     1       3.201   6.176  17.887  0.00  0.00    +0.000 A 
ATOM      3  C   UNL     1       2.627   6.415  19.198  0.00  0.00    +0.000 A 
ATOM      4  C   UNL     1       2.693   5.444  20.123  0.00  0.00    +0.000 A 
ATOM      5  N   UNL     1       3.282   4.238  19.828  0.00  0.00    +0.000 N 
ATOM      6  C   UNL     1       3.840   3.933  18.607  0.00  0.00    +0.000 A 
ATOM      7  O   UNL     1       4.359   2.844  18.369  0.00  0.00    +0.000 OA
ATOM      8  H   UNL     1       3.335   3.515  20.534  0.00  0.00    +0.000 HD
ENDROOT
BRANCH   3   9
ATOM      9  C   UNL     1       1.991   7.698  19.544  0.00  0.00    +0.000 A 
ATOM     10  C   UNL     1       1.828   8.691  18.576  0.00  0.00    +0.000 A 
ATOM     11  C   UNL     1       1.182   9.860  18.941  0.00  0.00    +0.000 A 
ATOM     12  N   UNL     1       0.700  10.097  20.180  0.00  0.00    +0.000 NA
ATOM     13  C   UNL     1       0.859   9.115  21.094  0.00  0.00    +0.000 A 
ATOM     14  C   UNL     1       1.489   7.911  20.828  0.00  0.00    +0.000 A 
ENDBRANCH   3   9
BRANCH   1  17
ATOM     15  C   UNL     1       5.652   5.185  15.946  0.00  0.00    +0.000 C 
ATOM     16  O   UNL     1       6.416   5.864  16.624  0.00  0.00    +0.000 OA
ATOM     17  N   UNL     1       4.405   4.737  16.347  0.00  0.00    +0.000 N 
ATOM     18  H   UNL     1       3.963   3.987  15.820  0.00  0.00    +0.000 HD
BRANCH  15  23
ATOM     19  C   UNL     1       5.865   3.485  12.562  0.00  0.00    +0.000 A 
ATOM     20  C   UNL     1       7.067   4.033  12.099  0.00  0.00    +0.000 A 
ATOM     21  C   UNL     1       7.795   4.930  12.879  0.00  0.00    +0.000 A 
ATOM     22  C   UNL     1       7.320   5.280  14.139  0.00  0.00    +0.000 A 
ATOM     23  C   UNL     1       6.126   4.727  14.618  0.00  0.00    +0.000 A 
ATOM     24  C   UNL     1       5.387   3.834  13.829  0.00  0.00    +0.000 A 
BRANCH  19  26
ATOM     25  C   UNL     1       4.023   3.035  11.117  0.00  0.00    +0.000 C 
ATOM     26  O   UNL     1       5.266   2.633  11.675  0.00  0.00    +0.000 OA
ENDBRANCH  19  26
ENDBRANCH  15  23
ENDBRANCH   1  17
TORSDOF 4
ENDMDL
MODEL 4
REMARK VINA RESULT:      -7.9      4.983      7.108
REMARK  Name = 
REMARK  5 active torsions:
REMARK  status: ('A' for Active; 'I' for Inactive)
REMARK    1  A    between atoms: C_1  and  O_2
REMARK    2  A    between atoms: O_2  and  C_3
REMARK    3  A    between atoms: C_7  and  C_8
REMARK    4  A    between atoms: N_10  and  C_11
REMARK    5  A    between atoms: C_13  and  C_14
REMARK                            x       y       z     vdW  Elec       q    Type
REMARK                         _______ _______ _______ _____ _____    ______ ____
ROOT
ATOM      1  C   UNL     1       6.122   6.266  16.801  0.00  0.00    +0.000 A 
ATOM      2  C   UNL     1       5.021   5.770  17.390  0.00  0.00    +0.000 A 
ATOM      3  C   UNL     1       4.497   4.452  17.080  0.00  0.00    +0.000 A 
ATOM      4  C   UNL     1       5.130   3.699  16.167  0.00  0.00    +0.000 A 
ATOM      5  N   UNL     1       6.248   4.175  15.525  0.00  0.00    +0.000 N 
ATOM      6  C   UNL     1       6.800   5.414  15.757  0.00  0.00    +0.000 A 
ATOM      7  O   UNL     1       7.801   5.815  15.167  0.00  0.00    +0.000 OA
ATOM      8  H   UNL     1       6.724   3.596  14.844  0.00  0.00    +0.000 HD
ENDROOT
BRANCH   3   9
ATOM      9  C   UNL     1       3.301   3.916  17.754  0.00  0.00    +0.000 A 
ATOM     10  C   UNL     1       3.022   2.549  17.717  0.00  0.00    +0.000 A 
ATOM     11  C   UNL     1       1.911   2.089  18.405  0.00  0.00    +0.000 A 
ATOM     12  N   UNL     1       1.081   2.888  19.110  0.00  0.00    +0.000 NA
ATOM     13  C   UNL     1       1.382   4.204  19.141  0.00  0.00    +0.000 A 
ATOM     14  C   UNL     1       2.468   4.761  18.488  0.00  0.00    +0.000 A 
ENDBRANCH   3   9
BRANCH   1  17
ATOM     15  C   UNL     1       7.688   7.724  18.015  0.00  0.00    +0.000 C 
ATOM     16  O   UNL     1       8.219   6.867  18.714  0.00  0.00    +0.000 OA
ATOM     17  N   UNL     1       6.700   7.495  17.074  0.00  0.00    +0.000 N 
ATOM     18  H   UNL     1       6.505   8.216  16.385  0.00  0.00    +0.000 HD
BRANCH  15  23
ATOM     19  C   UNL     1       8.130  11.464  17.568  0.00  0.00    +0.000 A 
ATOM     20  C   UNL     1       9.169  11.689  18.479  0.00  0.00    +0.000 A 
ATOM     21  C   UNL     1       9.718  10.641  19.214  0.00  0.00    +0.000 A 
ATOM     22  C   UNL     1       9.228   9.351  19.036  0.00  0.00    +0.000 A 
ATOM     23  C   UNL     1       8.198   9.112  18.117  0.00  0.00    +0.000 A 
ATOM     24  C   UNL     1       7.637  10.169  17.385  0.00  0.00    +0.000 A 
BRANCH  19  26
ATOM     25  C   UNL     1       7.584  13.780  17.711  0.00  0.00    +0.000 C 
ATOM     26  O   UNL     1       7.693  12.596  16.935  0.00  0.00    +0.000 OA
ENDBRANCH  19  26
ENDBRANCH  15  23
ENDBRANCH   1  17
TORSDOF 4
ENDMDL
MODEL 5
REMARK VINA RESULT:      -7.9      2.441      3.770
REMARK  Name = 
REMARK  5 active torsions:
REMARK  status: ('A' for Active; 'I' for Inactive)
REMARK    1  A    between atoms: C_1  and  O_2
REMARK    2  A    between atoms: O_2  and  C_3
REMARK    3  A    between atoms: C_7  and  C_8
REMARK    4  A    between atoms: N_10  and  C_11
REMARK    5  A    between atoms: C_13  and  C_14
REMARK                            x       y       z     vdW  Elec       q    Type
REMARK                         _______ _______ _______ _____ _____    ______ ____
ROOT
ATOM      1  C   UNL     1       5.327   6.065  17.561  0.00  0.00    +0.000 A 
ATOM      2  C   UNL     1       5.500   5.829  16.250  0.00  0.00    +0.000 A 
ATOM      3  C   UNL     1       6.479   4.882  15.749  0.00  0.00    +0.000 A 
ATOM      4  C   UNL     1       7.248   4.218  16.626  0.00  0.00    +0.000 A 
ATOM      5  N   UNL     1       7.120   4.441  17.976  0.00  0.00    +0.000 N 
ATOM      6  C   UNL     1       6.223   5.328  18.527  0.00  0.00    +0.000 A 
ATOM      7  O   UNL     1       6.131   5.510  19.739  0.00  0.00    +0.000 OA
ATOM      8  H   UNL     1       7.699   3.930  18.630  0.00  0.00    +0.000 HD
ENDROOT
BRANCH   3   9
ATOM      9  C   UNL     1       6.638   4.620  14.308  0.00  0.00    +0.000 A 
ATOM     10  C   UNL     1       7.612   5.294  13.569  0.00  0.00    +0.000 A 
ATOM     11  C   UNL     1       7.752   4.978  12.228  0.00  0.00    +0.000 A 
ATOM     12  N   UNL     1       6.999   4.053  11.592  0.00  0.00    +0.000 NA
ATOM     13  C   UNL     1       6.074   3.406  12.333  0.00  0.00    +0.000 A 
ATOM     14  C   UNL     1       5.858   3.649  13.678  0.00  0.00    +0.000 A 
ENDBRANCH   3   9
BRANCH   1  17
ATOM     15  C   UNL     1       3.074   6.597  18.394  0.00  0.00    +0.000 C 
ATOM     16  O   UNL     1       2.563   5.494  18.232  0.00  0.00    +0.000 OA
ATOM     17  N   UNL     1       4.390   6.922  18.111  0.00  0.00    +0.000 N 
ATOM     18  H   UNL     1       4.777   7.776  18.504  0.00  0.00    +0.000 HD
BRANCH  15  23
ATOM     19  C   UNL     1       1.006   9.727  18.951  0.00  0.00    +0.000 A 
ATOM     20  C   UNL     1       0.613   9.515  20.278  0.00  0.00    +0.000 A 
ATOM     21  C   UNL     1       1.022   8.381  20.976  0.00  0.00    +0.000 A 
ATOM     22  C   UNL     1       1.838   7.448  20.344  0.00  0.00    +0.000 A 
ATOM     23  C   UNL     1       2.249   7.656  19.022  0.00  0.00    +0.000 A 
ATOM     24  C   UNL     1       1.827   8.791  18.315  0.00  0.00    +0.000 A 
BRANCH  19  26
ATOM     25  C   UNL     1      -0.319  11.690  19.220  0.00  0.00    +0.000 C 
ATOM     26  O   UNL     1       0.512  10.878  18.403  0.00  0.00    +0.000 OA
ENDBRANCH  19  26
ENDBRANCH  15  23
ENDBRANCH   1  17
TORSDOF 4
ENDMDL
MODEL 6
REMARK VINA RESULT:      -7.6      4.944      7.579
REMARK  Name = 
REMARK  5 active torsions:
REMARK  status: ('A' for Active; 'I' for Inactive)
REMARK    1  A    between atoms: C_1  and  O_2
REMARK    2  A    between atoms: O_2  and  C_3
REMARK    3  A    between atoms: C_7  and  C_8
REMARK    4  A    between atoms: N_10  and  C_11
REMARK    5  A    between atoms: C_13  and  C_14
REMARK                            x       y       z     vdW  Elec       q    Type
REMARK                         _______ _______ _______ _____ _____    ______ ____
ROOT
ATOM      1  C   UNL     1       6.076   6.421  17.015  0.00  0.00    +0.000 A 
ATOM      2  C   UNL     1       4.967   5.964  17.621  0.00  0.00    +0.000 A 
ATOM      3  C   UNL     1       4.400   4.660  17.331  0.00  0.00    +0.000 A 
ATOM      4  C   UNL     1       5.000   3.878  16.419  0.00  0.00    +0.000 A 
ATOM      5  N   UNL     1       6.125   4.312  15.761  0.00  0.00    +0.000 N 
ATOM      6  C   UNL     1       6.717   5.537  15.973  0.00  0.00    +0.000 A 
ATOM      7  O   UNL     1       7.723   5.901  15.368  0.00  0.00    +0.000 OA
ATOM      8  H   UNL     1       6.576   3.713  15.081  0.00  0.00    +0.000 HD
ENDROOT
BRANCH   3   9
ATOM      9  C   UNL     1       3.196   4.167  18.022  0.00  0.00    +0.000 A 
ATOM     10  C   UNL     1       2.644   2.929  17.687  0.00  0.00    +0.000 A 
ATOM     11  C   UNL     1       1.540   2.491  18.399  0.00  0.00    +0.000 A 
ATOM     12  N   UNL     1       0.965   3.192  19.400  0.00  0.00    +0.000 NA
ATOM     13  C   UNL     1       1.527   4.379  19.714  0.00  0.00    +0.000 A 
ATOM     14  C   UNL     1       2.630   4.904  19.063  0.00  0.00    +0.000 A 
ENDBRANCH   3   9
BRANCH   1  17
ATOM     15  C   UNL     1       7.737   7.832  18.156  0.00  0.00    +0.000 C 
ATOM     16  O   UNL     1       8.287   6.957  18.815  0.00  0.00    +0.000 OA
ATOM     17  N   UNL     1       6.693   7.634  17.269  0.00  0.00    +0.000 N 
ATOM     18  H   UNL     1       6.475   8.367  16.599  0.00  0.00    +0.000 HD
BRANCH  15  23
ATOM     19  C   UNL     1       9.843  10.844  19.093  0.00  0.00    +0.000 A 
ATOM     20  C   UNL     1       9.284  11.798  18.235  0.00  0.00    +0.000 A 
ATOM     21  C   UNL     1       8.236  11.467  17.378  0.00  0.00    +0.000 A 
ATOM     22  C   UNL     1       7.737  10.168  17.380  0.00  0.00    +0.000 A 
ATOM     23  C   UNL     1       8.280   9.209  18.244  0.00  0.00    +0.000 A 
ATOM     24  C   UNL     1       9.343   9.539  19.097  0.00  0.00    +0.000 A 
BRANCH  19  26
ATOM     25  C   UNL     1      11.586  12.447  19.371  0.00  0.00    +0.000 C 
ATOM     26  O   UNL     1      10.870  11.322  19.860  0.00  0.00    +0.000 OA
ENDBRANCH  19  26
ENDBRANCH  15  23
ENDBRANCH   1  17
TORSDOF 4
ENDMDL
MODEL 7
REMARK VINA RESULT:      -7.6      5.295      7.530
REMARK  Name = 
REMARK  5 active torsions:
REMARK  status: ('A' for Active; 'I' for Inactive)
REMARK    1  A    between atoms: C_1  and  O_2
REMARK    2  A    between atoms: O_2  and  C_3
REMARK    3  A    between atoms: C_7  and  C_8
REMARK    4  A    between atoms: N_10  and  C_11
REMARK    5  A    between atoms: C_13  and  C_14
REMARK                            x       y       z     vdW  Elec       q    Type
REMARK                         _______ _______ _______ _____ _____    ______ ____
ROOT
ATOM      1  C   UNL     1       6.232   6.232  16.806  0.00  0.00    +0.000 A 
ATOM      2  C   UNL     1       5.153   5.686  17.390  0.00  0.00    +0.000 A 
ATOM      3  C   UNL     1       4.647   4.375  17.026  0.00  0.00    +0.000 A 
ATOM      4  C   UNL     1       5.276   3.680  16.065  0.00  0.00    +0.000 A 
ATOM      5  N   UNL     1       6.373   4.208  15.427  0.00  0.00    +0.000 N 
ATOM      6  C   UNL     1       6.905   5.446  15.709  0.00  0.00    +0.000 A 
ATOM      7  O   UNL     1       7.887   5.895  15.120  0.00  0.00    +0.000 OA
ATOM      8  H   UNL     1       6.846   3.673  14.709  0.00  0.00    +0.000 HD
ENDROOT
BRANCH   3   9
ATOM      9  C   UNL     1       3.475   3.782  17.695  0.00  0.00    +0.000 A 
ATOM     10  C   UNL     1       2.374   4.574  18.026  0.00  0.00    +0.000 A 
ATOM     11  C   UNL     1       1.279   3.960  18.610  0.00  0.00    +0.000 A 
ATOM     12  N   UNL     1       1.215   2.638  18.880  0.00  0.00    +0.000 NA
ATOM     13  C   UNL     1       2.287   1.893  18.537  0.00  0.00    +0.000 A 
ATOM     14  C   UNL     1       3.428   2.411  17.948  0.00  0.00    +0.000 A 
ENDBRANCH   3   9
BRANCH   1  17
ATOM     15  C   UNL     1       7.764   7.666  18.091  0.00  0.00    +0.000 C 
ATOM     16  O   UNL     1       8.295   6.792  18.768  0.00  0.00    +0.000 OA
ATOM     17  N   UNL     1       6.792   7.457  17.128  0.00  0.00    +0.000 N 
ATOM     18  H   UNL     1       6.598   8.199  16.461  0.00  0.00    +0.000 HD
BRANCH  15  23
ATOM     19  C   UNL     1       9.704  10.717  19.237  0.00  0.00    +0.000 A 
ATOM     20  C   UNL     1       9.175  11.674  18.363  0.00  0.00    +0.000 A 
ATOM     21  C   UNL     1       8.199  11.332  17.429  0.00  0.00    +0.000 A 
ATOM     22  C   UNL     1       7.743  10.018  17.368  0.00  0.00    +0.000 A 
ATOM     23  C   UNL     1       8.256   9.056  18.246  0.00  0.00    +0.000 A 
ATOM     24  C   UNL     1       9.247   9.397  19.178  0.00  0.00    +0.000 A 
BRANCH  19  26
ATOM     25  C   UNL     1      10.432  12.484  20.661  0.00  0.00    +0.000 C 
ATOM     26  O   UNL     1      10.660  11.207  20.083  0.00  0.00    +0.000 OA
ENDBRANCH  19  26
ENDBRANCH  15  23
ENDBRANCH   1  17
TORSDOF 4
ENDMDL
MODEL 8
REMARK VINA RESULT:      -7.5      1.145      1.667
REMARK  Name = 
REMARK  5 active torsions:
REMARK  status: ('A' for Active; 'I' for Inactive)
REMARK    1  A    between atoms: C_1  and  O_2
REMARK    2  A    between atoms: O_2  and  C_3
REMARK    3  A    between atoms: C_7  and  C_8
REMARK    4  A    between atoms: N_10  and  C_11
REMARK    5  A    between atoms: C_13  and  C_14
REMARK                            x       y       z     vdW  Elec       q    Type
REMARK                         _______ _______ _______ _____ _____    ______ ____
ROOT
ATOM      1  C   UNL     1       2.560   6.172  19.506  0.00  0.00    +0.000 A 
ATOM      2  C   UNL     1       3.643   6.090  18.716  0.00  0.00    +0.000 A 
ATOM      3  C   UNL     1       4.153   4.824  18.219  0.00  0.00    +0.000 A 
ATOM      4  C   UNL     1       3.524   3.690  18.565  0.00  0.00    +0.000 A 
ATOM      5  N   UNL     1       2.423   3.725  19.387  0.00  0.00    +0.000 N 
ATOM      6  C   UNL     1       1.887   4.882  19.905  0.00  0.00    +0.000 A 
ATOM      7  O   UNL     1       0.901   4.884  20.640  0.00  0.00    +0.000 OA
ATOM      8  H   UNL     1       1.951   2.865  19.636  0.00  0.00    +0.000 HD
ENDROOT
BRANCH   3   9
ATOM      9  C   UNL     1       5.329   4.756  17.335  0.00  0.00    +0.000 A 
ATOM     10  C   UNL     1       5.188   4.914  15.955  0.00  0.00    +0.000 A 
ATOM     11  C   UNL     1       6.330   4.888  15.173  0.00  0.00    +0.000 A 
ATOM     12  N   UNL     1       7.576   4.718  15.668  0.00  0.00    +0.000 NA
ATOM     13  C   UNL     1       7.686   4.582  17.006  0.00  0.00    +0.000 A 
ATOM     14  C   UNL     1       6.607   4.594  17.873  0.00  0.00    +0.000 A 
ENDBRANCH   3   9
BRANCH   1  17
ATOM     15  C   UNL     1       1.646   8.437  19.212  0.00  0.00    +0.000 C 
ATOM     16  O   UNL     1       1.751   8.511  17.992  0.00  0.00    +0.000 OA
ATOM     17  N   UNL     1       1.996   7.343  19.984  0.00  0.00    +0.000 N 
ATOM     18  H   UNL     1       1.647   7.286  20.937  0.00  0.00    +0.000 HD
BRANCH  15  23
ATOM     19  C   UNL     1      -0.134  10.549  21.811  0.00  0.00    +0.000 A 
ATOM     20  C   UNL     1      -0.032  11.806  21.204  0.00  0.00    +0.000 A 
ATOM     21  C   UNL     1       0.596  11.957  19.969  0.00  0.00    +0.000 A 
ATOM     22  C   UNL     1       1.124  10.840  19.330  0.00  0.00    +0.000 A 
ATOM     23  C   UNL     1       1.015   9.575  19.922  0.00  0.00    +0.000 A 
ATOM     24  C   UNL     1       0.394   9.424  21.170  0.00  0.00    +0.000 A 
BRANCH  19  26
ATOM     25  C   UNL     1      -1.800  11.525  23.210  0.00  0.00    +0.000 C 
ATOM     26  O   UNL     1      -0.766  10.569  23.024  0.00  0.00    +0.000 OA
ENDBRANCH  19  26
ENDBRANCH  15  23
ENDBRANCH   1  17
TORSDOF 4
ENDMDL
MODEL 9
REMARK VINA RESULT:      -7.3      1.272      2.051
REMARK  Name = 
REMARK  5 active torsions:
REMARK  status: ('A' for Active; 'I' for Inactive)
REMARK    1  A    between atoms: C_1  and  O_2
REMARK    2  A    between atoms: O_2  and  C_3
REMARK    3  A    between atoms: C_7  and  C_8
REMARK    4  A    between atoms: N_10  and  C_11
REMARK    5  A    between atoms: C_13  and  C_14
REMARK                            x       y       z     vdW  Elec       q    Type
REMARK                         _______ _______ _______ _____ _____    ______ ____
ROOT
ATOM      1  C   UNL     1       2.565   6.515  19.330  0.00  0.00    +0.000 A 
ATOM      2  C   UNL     1       3.592   6.419  18.470  0.00  0.00    +0.000 A 
ATOM      3  C   UNL     1       4.277   5.166  18.208  0.00  0.00    +0.000 A 
ATOM      4  C   UNL     1       3.875   4.059  18.852  0.00  0.00    +0.000 A 
ATOM      5  N   UNL     1       2.841   4.114  19.756  0.00  0.00    +0.000 N 
ATOM      6  C   UNL     1       2.149   5.264  20.064  0.00  0.00    +0.000 A 
ATOM      7  O   UNL     1       1.229   5.285  20.879  0.00  0.00    +0.000 OA
ATOM      8  H   UNL     1       2.540   3.273  20.231  0.00  0.00    +0.000 HD
ENDROOT
BRANCH   3   9
ATOM      9  C   UNL     1       5.387   5.076  17.243  0.00  0.00    +0.000 A 
ATOM     10  C   UNL     1       6.659   4.682  17.663  0.00  0.00    +0.000 A 
ATOM     11  C   UNL     1       7.656   4.569  16.709  0.00  0.00    +0.000 A 
ATOM     12  N   UNL     1       7.470   4.817  15.394  0.00  0.00    +0.000 NA
ATOM     13  C   UNL     1       6.227   5.182  15.013  0.00  0.00    +0.000 A 
ATOM     14  C   UNL     1       5.164   5.323  15.888  0.00  0.00    +0.000 A 
ENDBRANCH   3   9
BRANCH   1  17
ATOM     15  C   UNL     1       1.616   8.697  18.706  0.00  0.00    +0.000 C 
ATOM     16  O   UNL     1       1.992   8.725  17.539  0.00  0.00    +0.000 OA
ATOM     17  N   UNL     1       1.841   7.665  19.599  0.00  0.00    +0.000 N 
ATOM     18  H   UNL     1       1.288   7.626  20.451  0.00  0.00    +0.000 HD
BRANCH  15  23
ATOM     19  C   UNL     1       0.069  11.391  20.883  0.00  0.00    +0.000 A 
ATOM     20  C   UNL     1      -0.767  12.003  19.941  0.00  0.00    +0.000 A 
ATOM     21  C   UNL     1      -0.830  11.540  18.628  0.00  0.00    +0.000 A 
ATOM     22  C   UNL     1      -0.053  10.449  18.251  0.00  0.00    +0.000 A 
ATOM     23  C   UNL     1       0.777   9.820  19.189  0.00  0.00    +0.000 A 
ATOM     24  C   UNL     1       0.850  10.294  20.507  0.00  0.00    +0.000 A 
BRANCH  19  26
ATOM     25  C   UNL     1      -1.125  11.735  22.917  0.00  0.00    +0.000 C 
ATOM     26  O   UNL     1       0.027  11.971  22.121  0.00  0.00    +0.000 OA
ENDBRANCH  19  26
ENDBRANCH  15  23
ENDBRANCH   1  17
TORSDOF 4
ENDMDL
