MODEL 1
REMARK VINA RESULT:      -8.0      0.000      0.000
REMARK  Name = 
REMARK  8 active torsions:
REMARK  status: ('A' for Active; 'I' for Inactive)
REMARK    1  A    between atoms: C_1  and  C_2
REMARK    2  A    between atoms: C_2  and  C_3
REMARK    3  A    between atoms: C_3  and  C_4
REMARK    4  A    between atoms: C_3  and  N_5
REMARK    5  A    between atoms: N_5  and  C_6
REMARK    6  A    between atoms: N_5  and  C_11
REMARK    7  A    between atoms: C_6  and  C_7
REMARK    8  A    between atoms: C_19  and  C_20
REMARK                            x       y       z     vdW  Elec       q    Type
REMARK                         _______ _______ _______ _____ _____    ______ ____
ROOT
ATOM      1  C   UNL     1       2.559   6.829  19.130  0.00  0.00    +0.000 A 
ATOM      2  C   UNL     1       2.833   7.422  17.891  0.00  0.00    +0.000 A 
ATOM      3  C   UNL     1       2.385   8.707  17.581  0.00  0.00    +0.000 A 
ATOM      4  C   UNL     1       1.623   9.417  18.507  0.00  0.00    +0.000 A 
ATOM      5  N   UNL     1       1.204  10.710  18.171  0.00  0.00    +0.000 N 
ATOM      6  C   UNL     1       0.453  11.499  18.988  0.00  0.00    +0.000 A 
ATOM      7  O   UNL     1       0.110  12.635  18.688  0.00  0.00    +0.000 OA
ATOM      8  C   UNL     1       0.050  10.899  20.279  0.00  0.00    +0.000 A 
ATOM      9  C   UNL     1       0.422   9.661  20.664  0.00  0.00    +0.000 A 
ATOM     10  C   UNL     1       1.285   8.864  19.753  0.00  0.00    +0.000 A 
ATOM     11  C   UNL     1       1.788   7.580  20.040  0.00  0.00    +0.000 A 
ATOM     12  H   UNL     1       1.467  11.121  17.285  0.00  0.00    +0.000 HD
ENDROOT
BRANCH   9  13
ATOM     13  C   UNL     1      -0.094   9.172  21.985  0.00  0.00    +0.000 C 
ATOM     14  F   UNL     1       0.837   8.907  22.931  0.00  0.00    +0.000 F 
ATOM     15  F   UNL     1      -0.947  10.075  22.538  0.00  0.00    +0.000 F 
ATOM     16  F   UNL     1      -0.809   8.023  21.831  0.00  0.00    +0.000 F 
ENDBRANCH   9  13
BRANCH   1  17
ATOM     17  N   UNL     1       3.044   5.555  19.436  0.00  0.00    +0.000 N 
BRANCH  17  18
ATOM     18  C   UNL     1       2.170   4.361  19.319  0.00  0.00    +0.000 C 
ATOM     19  C   UNL     1       1.473   4.350  17.950  0.00  0.00    +0.000 C 
BRANCH  18  21
ATOM     20  C   UNL     1       1.374   2.979  21.318  0.00  0.00    +0.000 C 
ATOM     21  C   UNL     1       1.178   4.249  20.492  0.00  0.00    +0.000 C 
ENDBRANCH  18  21
ENDBRANCH  17  18
BRANCH  17  22
ATOM     22  C   UNL     1       4.524   5.386  19.539  0.00  0.00    +0.000 C 
BRANCH  22  23
ATOM     23  C   UNL     1       5.203   4.450  18.520  0.00  0.00    +0.000 C 
ATOM     24  F   UNL     1       6.544   4.579  18.463  0.00  0.00    +0.000 F 
ATOM     25  F   UNL     1       4.924   3.152  18.794  0.00  0.00    +0.000 F 
ATOM     26  F   UNL     1       4.728   4.698  17.272  0.00  0.00    +0.000 F 
ENDBRANCH  22  23
ENDBRANCH  17  22
ENDBRANCH   1  17
TORSDOF 6
ENDMDL
MODEL 2
REMARK VINA RESULT:      -7.9      0.106      1.078
REMARK  Name = 
REMARK  8 active torsions:
REMARK  status: ('A' for Active; 'I' for Inactive)
REMARK    1  A    between atoms: C_1  and  C_2
REMARK    2  A    between atoms: C_2  and  C_3
REMARK    3  A    between atoms: C_3  and  C_4
REMARK    4  A    between atoms: C_3  and  N_5
REMARK    5  A    between atoms: N_5  and  C_6
REMARK    6  A    between atoms: N_5  and  C_11
REMARK    7  A    between atoms: C_6  and  C_7
REMARK    8  A    between atoms: C_19  and  C_20
REMARK                            x       y       z     vdW  Elec       q    Type
REMARK                         _______ _______ _______ _____ _____    ______ ____
ROOT
ATOM      1  C   UNL     1       2.574   6.783  19.113  0.00  0.00    +0.000 A 
ATOM      2  C   UNL     1       2.889   7.381  17.886  0.00  0.00    +0.000 A 
ATOM      3  C   UNL     1       2.471   8.675  17.575  0.00  0.00    +0.000 A 
ATOM      4  C   UNL     1       1.698   9.392  18.487  0.00  0.00    +0.000 A 
ATOM      5  N   UNL     1       1.311  10.695  18.151  0.00  0.00    +0.000 N 
ATOM      6  C   UNL     1       0.553  11.490  18.955  0.00  0.00    +0.000 A 
ATOM      7  O   UNL     1       0.238  12.635  18.655  0.00  0.00    +0.000 OA
ATOM      8  C   UNL     1       0.107  10.888  20.231  0.00  0.00    +0.000 A 
ATOM      9  C   UNL     1       0.447   9.640  20.615  0.00  0.00    +0.000 A 
ATOM     10  C   UNL     1       1.319   8.835  19.719  0.00  0.00    +0.000 A 
ATOM     11  C   UNL     1       1.793   7.541  20.009  0.00  0.00    +0.000 A 
ATOM     12  H   UNL     1       1.603  11.107  17.275  0.00  0.00    +0.000 HD
ENDROOT
BRANCH   9  13
ATOM     13  C   UNL     1      -0.110   9.151  21.919  0.00  0.00    +0.000 C 
ATOM     14  F   UNL     1      -0.846   8.017  21.868  0.00  0.00    +0.000 F 
ATOM     15  F   UNL     1       0.886   8.913  22.814  0.00  0.00    +0.000 F 
ATOM     16  F   UNL     1      -0.911  10.094  22.488  0.00  0.00    +0.000 F 
ENDBRANCH   9  13
BRANCH   1  17
ATOM     17  N   UNL     1       3.029   5.499  19.421  0.00  0.00    +0.000 N 
BRANCH  17  18
ATOM     18  C   UNL     1       2.148   4.317  19.241  0.00  0.00    +0.000 C 
ATOM     19  C   UNL     1       1.468   4.371  17.864  0.00  0.00    +0.000 C 
BRANCH  18  21
ATOM     20  C   UNL     1       1.568   3.114  21.422  0.00  0.00    +0.000 C 
ATOM     21  C   UNL     1       1.140   4.161  20.395  0.00  0.00    +0.000 C 
ENDBRANCH  18  21
ENDBRANCH  17  18
BRANCH  17  22
ATOM     22  C   UNL     1       4.500   5.310  19.594  0.00  0.00    +0.000 C 
BRANCH  22  23
ATOM     23  C   UNL     1       5.230   4.441  18.552  0.00  0.00    +0.000 C 
ATOM     24  F   UNL     1       4.799   4.621  17.287  0.00  0.00    +0.000 F 
ATOM     25  F   UNL     1       6.564   4.680  18.571  0.00  0.00    +0.000 F 
ATOM     26  F   UNL     1       5.064   3.125  18.844  0.00  0.00    +0.000 F 
ENDBRANCH  22  23
ENDBRANCH  17  22
ENDBRANCH   1  17
TORSDOF 6
ENDMDL
MODEL 3
REMARK VINA RESULT:      -7.9      1.574      2.645
REMARK  Name = 
REMARK  8 active torsions:
REMARK  status: ('A' for Active; 'I' for Inactive)
REMARK    1  A    between atoms: C_1  and  C_2
REMARK    2  A    between atoms: C_2  and  C_3
REMARK    3  A    between atoms: C_3  and  C_4
REMARK    4  A    between atoms: C_3  and  N_5
REMARK    5  A    between atoms: N_5  and  C_6
REMARK    6  A    between atoms: N_5  and  C_11
REMARK    7  A    between atoms: C_6  and  C_7
REMARK    8  A    between atoms: C_19  and  C_20
REMARK                            x       y       z     vdW  Elec       q    Type
REMARK                         _______ _______ _______ _____ _____    ______ ____
ROOT
ATOM      1  C   UNL     1       2.395   7.424  18.983  0.00  0.00    +0.000 A 
ATOM      2  C   UNL     1       2.523   8.156  17.796  0.00  0.00    +0.000 A 
ATOM      3  C   UNL     1       1.969   9.429  17.658  0.00  0.00    +0.000 A 
ATOM      4  C   UNL     1       1.247   9.987  18.710  0.00  0.00    +0.000 A 
ATOM      5  N   UNL     1       0.720  11.274  18.545  0.00  0.00    +0.000 N 
ATOM      6  C   UNL     1      -0.007  11.922  19.498  0.00  0.00    +0.000 A 
ATOM      7  O   UNL     1      -0.445  13.055  19.346  0.00  0.00    +0.000 OA
ATOM      8  C   UNL     1      -0.259  11.170  20.747  0.00  0.00    +0.000 A 
ATOM      9  C   UNL     1       0.222   9.929  20.970  0.00  0.00    +0.000 A 
ATOM     10  C   UNL     1       1.053   9.291  19.914  0.00  0.00    +0.000 A 
ATOM     11  C   UNL     1       1.659   8.025  20.025  0.00  0.00    +0.000 A 
ATOM     12  H   UNL     1       0.879  11.789  17.690  0.00  0.00    +0.000 HD
ENDROOT
BRANCH   9  13
ATOM     13  C   UNL     1      -0.146   9.276  22.268  0.00  0.00    +0.000 C 
ATOM     14  F   UNL     1      -0.883   8.145  22.183  0.00  0.00    +0.000 F 
ATOM     15  F   UNL     1       0.966   8.949  22.980  0.00  0.00    +0.000 F 
ATOM     16  F   UNL     1      -0.859  10.130  23.055  0.00  0.00    +0.000 F 
ENDBRANCH   9  13
BRANCH   1  17
ATOM     17  N   UNL     1       2.984   6.165  19.115  0.00  0.00    +0.000 N 
BRANCH  17  18
ATOM     18  C   UNL     1       4.278   5.858  18.454  0.00  0.00    +0.000 C 
ATOM     19  C   UNL     1       4.038   5.032  17.182  0.00  0.00    +0.000 C 
BRANCH  18  21
ATOM     20  C   UNL     1       6.734   5.513  19.081  0.00  0.00    +0.000 C 
ATOM     21  C   UNL     1       5.279   5.191  19.417  0.00  0.00    +0.000 C 
ENDBRANCH  18  21
ENDBRANCH  17  18
BRANCH  17  22
ATOM     22  C   UNL     1       2.472   5.272  20.197  0.00  0.00    +0.000 C 
BRANCH  22  23
ATOM     23  C   UNL     1       1.617   4.063  19.772  0.00  0.00    +0.000 C 
ATOM     24  F   UNL     1       2.290   2.894  19.750  0.00  0.00    +0.000 F 
ATOM     25  F   UNL     1       0.552   3.910  20.596  0.00  0.00    +0.000 F 
ATOM     26  F   UNL     1       1.120   4.259  18.523  0.00  0.00    +0.000 F 
ENDBRANCH  22  23
ENDBRANCH  17  22
ENDBRANCH   1  17
TORSDOF 6
ENDMDL
MODEL 4
REMARK VINA RESULT:      -7.9      1.596      2.603
REMARK  Name = 
REMARK  8 active torsions:
REMARK  status: ('A' for Active; 'I' for Inactive)
REMARK    1  A    between atoms: C_1  and  C_2
REMARK    2  A    between atoms: C_2  and  C_3
REMARK    3  A    between atoms: C_3  and  C_4
REMARK    4  A    between atoms: C_3  and  N_5
REMARK    5  A    between atoms: N_5  and  C_6
REMARK    6  A    between atoms: N_5  and  C_11
REMARK    7  A    between atoms: C_6  and  C_7
REMARK    8  A    between atoms: C_19  and  C_20
REMARK                            x       y       z     vdW  Elec       q    Type
REMARK                         _______ _______ _______ _____ _____    ______ ____
ROOT
ATOM      1  C   UNL     1       2.401   7.474  18.954  0.00  0.00    +0.000 A 
ATOM      2  C   UNL     1       2.533   8.217  17.775  0.00  0.00    +0.000 A 
ATOM      3  C   UNL     1       1.962   9.484  17.641  0.00  0.00    +0.000 A 
ATOM      4  C   UNL     1       1.218  10.022  18.689  0.00  0.00    +0.000 A 
ATOM      5  N   UNL     1       0.675  11.303  18.529  0.00  0.00    +0.000 N 
ATOM      6  C   UNL     1      -0.073  11.932  19.478  0.00  0.00    +0.000 A 
ATOM      7  O   UNL     1      -0.526  13.060  19.330  0.00  0.00    +0.000 OA
ATOM      8  C   UNL     1      -0.329  11.165  20.717  0.00  0.00    +0.000 A 
ATOM      9  C   UNL     1       0.167   9.930  20.935  0.00  0.00    +0.000 A 
ATOM     10  C   UNL     1       1.020   9.313  19.885  0.00  0.00    +0.000 A 
ATOM     11  C   UNL     1       1.643   8.055  19.993  0.00  0.00    +0.000 A 
ATOM     12  H   UNL     1       0.838  11.827  17.680  0.00  0.00    +0.000 HD
ENDROOT
BRANCH   9  13
ATOM     13  C   UNL     1      -0.207   9.261  22.224  0.00  0.00    +0.000 C 
ATOM     14  F   UNL     1       0.812   8.956  23.059  0.00  0.00    +0.000 F 
ATOM     15  F   UNL     1      -1.065  10.034  22.942  0.00  0.00    +0.000 F 
ATOM     16  F   UNL     1      -0.862   8.090  21.989  0.00  0.00    +0.000 F 
ENDBRANCH   9  13
BRANCH   1  17
ATOM     17  N   UNL     1       3.006   6.222  19.083  0.00  0.00    +0.000 N 
BRANCH  17  18
ATOM     18  C   UNL     1       4.297   5.930  18.410  0.00  0.00    +0.000 C 
ATOM     19  C   UNL     1       4.058   5.070  17.160  0.00  0.00    +0.000 C 
BRANCH  18  21
ATOM     20  C   UNL     1       6.766   5.469  18.890  0.00  0.00    +0.000 C 
ATOM     21  C   UNL     1       5.327   5.307  19.372  0.00  0.00    +0.000 C 
ENDBRANCH  18  21
ENDBRANCH  17  18
BRANCH  17  22
ATOM     22  C   UNL     1       2.516   5.326  20.172  0.00  0.00    +0.000 C 
BRANCH  22  23
ATOM     23  C   UNL     1       1.596   4.157  19.768  0.00  0.00    +0.000 C 
ATOM     24  F   UNL     1       1.146   4.226  18.498  0.00  0.00    +0.000 F 
ATOM     25  F   UNL     1       2.229   2.969  19.918  0.00  0.00    +0.000 F 
ATOM     26  F   UNL     1       0.503   4.124  20.575  0.00  0.00    +0.000 F 
ENDBRANCH  22  23
ENDBRANCH  17  22
ENDBRANCH   1  17
TORSDOF 6
ENDMDL
MODEL 5
REMARK VINA RESULT:      -7.9      0.713      1.283
REMARK  Name = 
REMARK  8 active torsions:
REMARK  status: ('A' for Active; 'I' for Inactive)
REMARK    1  A    between atoms: C_1  and  C_2
REMARK    2  A    between atoms: C_2  and  C_3
REMARK    3  A    between atoms: C_3  and  C_4
REMARK    4  A    between atoms: C_3  and  N_5
REMARK    5  A    between atoms: N_5  and  C_6
REMARK    6  A    between atoms: N_5  and  C_11
REMARK    7  A    between atoms: C_6  and  C_7
REMARK    8  A    between atoms: C_19  and  C_20
REMARK                            x       y       z     vdW  Elec       q    Type
REMARK                         _______ _______ _______ _____ _____    ______ ____
ROOT
ATOM      1  C   UNL     1       2.356   6.899  19.416  0.00  0.00    +0.000 A 
ATOM      2  C   UNL     1       2.583   7.409  18.132  0.00  0.00    +0.000 A 
ATOM      3  C   UNL     1       2.157   8.687  17.767  0.00  0.00    +0.000 A 
ATOM      4  C   UNL     1       1.466   9.475  18.684  0.00  0.00    +0.000 A 
ATOM      5  N   UNL     1       1.069  10.759  18.292  0.00  0.00    +0.000 N 
ATOM      6  C   UNL     1       0.384  11.619  19.096  0.00  0.00    +0.000 A 
ATOM      7  O   UNL     1       0.060  12.746  18.744  0.00  0.00    +0.000 OA
ATOM      8  C   UNL     1       0.031  11.109  20.440  0.00  0.00    +0.000 A 
ATOM      9  C   UNL     1       0.385   9.885  20.880  0.00  0.00    +0.000 A 
ATOM     10  C   UNL     1       1.176   9.007  19.977  0.00  0.00    +0.000 A 
ATOM     11  C   UNL     1       1.655   7.728  20.316  0.00  0.00    +0.000 A 
ATOM     12  H   UNL     1       1.298  11.108  17.371  0.00  0.00    +0.000 HD
ENDROOT
BRANCH   9  13
ATOM     13  C   UNL     1      -0.076   9.492  22.252  0.00  0.00    +0.000 C 
ATOM     14  F   UNL     1       0.894   9.222  23.156  0.00  0.00    +0.000 F 
ATOM     15  F   UNL     1      -0.844  10.468  22.805  0.00  0.00    +0.000 F 
ATOM     16  F   UNL     1      -0.860   8.379  22.200  0.00  0.00    +0.000 F 
ENDBRANCH   9  13
BRANCH   1  17
ATOM     17  N   UNL     1       2.818   5.630  19.775  0.00  0.00    +0.000 N 
BRANCH  17  18
ATOM     18  C   UNL     1       1.866   4.529  20.067  0.00  0.00    +0.000 C 
ATOM     19  C   UNL     1       2.520   3.500  21.001  0.00  0.00    +0.000 C 
BRANCH  18  21
ATOM     20  C   UNL     1       1.105   2.383  18.903  0.00  0.00    +0.000 C 
ATOM     21  C   UNL     1       1.301   3.893  18.783  0.00  0.00    +0.000 C 
ENDBRANCH  18  21
ENDBRANCH  17  18
BRANCH  17  22
ATOM     22  C   UNL     1       4.256   5.321  19.518  0.00  0.00    +0.000 C 
BRANCH  22  23
ATOM     23  C   UNL     1       4.594   4.537  18.235  0.00  0.00    +0.000 C 
ATOM     24  F   UNL     1       3.764   4.788  17.202  0.00  0.00    +0.000 F 
ATOM     25  F   UNL     1       5.858   4.804  17.823  0.00  0.00    +0.000 F 
ATOM     26  F   UNL     1       4.535   3.201  18.476  0.00  0.00    +0.000 F 
ENDBRANCH  22  23
ENDBRANCH  17  22
ENDBRANCH   1  17
TORSDOF 6
ENDMDL
MODEL 6
REMARK VINA RESULT:      -7.9      0.774      1.457
REMARK  Name = 
REMARK  8 active torsions:
REMARK  status: ('A' for Active; 'I' for Inactive)
REMARK    1  A    between atoms: C_1  and  C_2
REMARK    2  A    between atoms: C_2  and  C_3
REMARK    3  A    between atoms: C_3  and  C_4
REMARK    4  A    between atoms: C_3  and  N_5
REMARK    5  A    between atoms: N_5  and  C_6
REMARK    6  A    between atoms: N_5  and  C_11
REMARK    7  A    between atoms: C_6  and  C_7
REMARK    8  A    between atoms: C_19  and  C_20
REMARK                            x       y       z     vdW  Elec       q    Type
REMARK                         _______ _______ _______ _____ _____    ______ ____
ROOT
ATOM      1  C   UNL     1       2.467   6.715  19.480  0.00  0.00    +0.000 A 
ATOM      2  C   UNL     1       2.772   7.192  18.199  0.00  0.00    +0.000 A 
ATOM      3  C   UNL     1       2.376   8.462  17.778  0.00  0.00    +0.000 A 
ATOM      4  C   UNL     1       1.637   9.276  18.634  0.00  0.00    +0.000 A 
ATOM      5  N   UNL     1       1.273  10.552  18.188  0.00  0.00    +0.000 N 
ATOM      6  C   UNL     1       0.548  11.435  18.930  0.00  0.00    +0.000 A 
ATOM      7  O   UNL     1       0.252  12.555  18.532  0.00  0.00    +0.000 OA
ATOM      8  C   UNL     1       0.113  10.961  20.262  0.00  0.00    +0.000 A 
ATOM      9  C   UNL     1       0.433   9.746  20.752  0.00  0.00    +0.000 A 
ATOM     10  C   UNL     1       1.270   8.842  19.919  0.00  0.00    +0.000 A 
ATOM     11  C   UNL     1       1.720   7.569  20.317  0.00  0.00    +0.000 A 
ATOM     12  H   UNL     1       1.557  10.877  17.274  0.00  0.00    +0.000 HD
ENDROOT
BRANCH   9  13
ATOM     13  C   UNL     1      -0.110   9.389  22.104  0.00  0.00    +0.000 C 
ATOM     14  F   UNL     1      -0.864   8.267  22.171  0.00  0.00    +0.000 F 
ATOM     15  F   UNL     1       0.896   9.221  23.003  0.00  0.00    +0.000 F 
ATOM     16  F   UNL     1      -0.889  10.394  22.594  0.00  0.00    +0.000 F 
ENDBRANCH   9  13
BRANCH   1  17
ATOM     17  N   UNL     1       2.899   5.453  19.895  0.00  0.00    +0.000 N 
BRANCH  17  18
ATOM     18  C   UNL     1       1.946   4.480  20.485  0.00  0.00    +0.000 C 
ATOM     19  C   UNL     1       2.711   3.387  21.246  0.00  0.00    +0.000 C 
BRANCH  18  21
ATOM     20  C   UNL     1       1.089   2.390  19.286  0.00  0.00    +0.000 C 
ATOM     21  C   UNL     1       0.976   3.905  19.435  0.00  0.00    +0.000 C 
ENDBRANCH  18  21
ENDBRANCH  17  18
BRANCH  17  22
ATOM     22  C   UNL     1       4.236   4.989  19.419  0.00  0.00    +0.000 C 
BRANCH  22  23
ATOM     23  C   UNL     1       4.267   4.074  18.179  0.00  0.00    +0.000 C 
ATOM     24  F   UNL     1       4.230   2.757  18.466  0.00  0.00    +0.000 F 
ATOM     25  F   UNL     1       3.230   4.345  17.351  0.00  0.00    +0.000 F 
ATOM     26  F   UNL     1       5.404   4.293  17.468  0.00  0.00    +0.000 F 
ENDBRANCH  22  23
ENDBRANCH  17  22
ENDBRANCH   1  17
TORSDOF 6
ENDMDL
MODEL 7
REMARK VINA RESULT:      -7.8      0.902      1.406
REMARK  Name = 
REMARK  8 active torsions:
REMARK  status: ('A' for Active; 'I' for Inactive)
REMARK    1  A    between atoms: C_1  and  C_2
REMARK    2  A    between atoms: C_2  and  C_3
REMARK    3  A    between atoms: C_3  and  C_4
REMARK    4  A    between atoms: C_3  and  N_5
REMARK    5  A    between atoms: N_5  and  C_6
REMARK    6  A    between atoms: N_5  and  C_11
REMARK    7  A    between atoms: C_6  and  C_7
REMARK    8  A    between atoms: C_19  and  C_20
REMARK                            x       y       z     vdW  Elec       q    Type
REMARK                         _______ _______ _______ _____ _____    ______ ____
ROOT
ATOM      1  C   UNL     1       2.507   6.644  19.502  0.00  0.00    +0.000 A 
ATOM      2  C   UNL     1       2.822   7.117  18.222  0.00  0.00    +0.000 A 
ATOM      3  C   UNL     1       2.423   8.384  17.792  0.00  0.00    +0.000 A 
ATOM      4  C   UNL     1       1.671   9.197  18.637  0.00  0.00    +0.000 A 
ATOM      5  N   UNL     1       1.304  10.469  18.181  0.00  0.00    +0.000 N 
ATOM      6  C   UNL     1       0.566  11.351  18.912  0.00  0.00    +0.000 A 
ATOM      7  O   UNL     1       0.268  12.467  18.506  0.00  0.00    +0.000 OA
ATOM      8  C   UNL     1       0.121  10.880  20.242  0.00  0.00    +0.000 A 
ATOM      9  C   UNL     1       0.443   9.669  20.741  0.00  0.00    +0.000 A 
ATOM     10  C   UNL     1       1.294   8.767  19.920  0.00  0.00    +0.000 A 
ATOM     11  C   UNL     1       1.747   7.498  20.328  0.00  0.00    +0.000 A 
ATOM     12  H   UNL     1       1.595  10.791  17.268  0.00  0.00    +0.000 HD
ENDROOT
BRANCH   9  13
ATOM     13  C   UNL     1      -0.110   9.316  22.089  0.00  0.00    +0.000 C 
ATOM     14  F   UNL     1      -0.915  10.237  22.667  0.00  0.00    +0.000 F 
ATOM     15  F   UNL     1      -0.835   8.166  22.030  0.00  0.00    +0.000 F 
ATOM     16  F   UNL     1       0.894   9.083  22.979  0.00  0.00    +0.000 F 
ENDBRANCH   9  13
BRANCH   1  17
ATOM     17  N   UNL     1       2.943   5.387  19.927  0.00  0.00    +0.000 N 
BRANCH  17  18
ATOM     18  C   UNL     1       2.063   4.516  20.746  0.00  0.00    +0.000 C 
ATOM     19  C   UNL     1       2.856   3.308  21.269  0.00  0.00    +0.000 C 
BRANCH  18  21
ATOM     20  C   UNL     1       0.789   2.641  19.563  0.00  0.00    +0.000 C 
ATOM     21  C   UNL     1       0.784   4.106  19.992  0.00  0.00    +0.000 C 
ENDBRANCH  18  21
ENDBRANCH  17  18
BRANCH  17  22
ATOM     22  C   UNL     1       4.147   4.810  19.259  0.00  0.00    +0.000 C 
BRANCH  22  23
ATOM     23  C   UNL     1       3.916   3.963  17.992  0.00  0.00    +0.000 C 
ATOM     24  F   UNL     1       4.803   4.198  17.004  0.00  0.00    +0.000 F 
ATOM     25  F   UNL     1       3.960   2.640  18.281  0.00  0.00    +0.000 F 
ATOM     26  F   UNL     1       2.681   4.212  17.484  0.00  0.00    +0.000 F 
ENDBRANCH  22  23
ENDBRANCH  17  22
ENDBRANCH   1  17
TORSDOF 6
ENDMDL
MODEL 8
REMARK VINA RESULT:      -7.8      1.606      2.558
REMARK  Name = 
REMARK  8 active torsions:
REMARK  status: ('A' for Active; 'I' for Inactive)
REMARK    1  A    between atoms: C_1  and  C_2
REMARK    2  A    between atoms: C_2  and  C_3
REMARK    3  A    between atoms: C_3  and  C_4
REMARK    4  A    between atoms: C_3  and  N_5
REMARK    5  A    between atoms: N_5  and  C_6
REMARK    6  A    between atoms: N_5  and  C_11
REMARK    7  A    between atoms: C_6  and  C_7
REMARK    8  A    between atoms: C_19  and  C_20
REMARK                            x       y       z     vdW  Elec       q    Type
REMARK                         _______ _______ _______ _____ _____    ______ ____
ROOT
ATOM      1  C   UNL     1       2.485   6.899  19.024  0.00  0.00    +0.000 A 
ATOM      2  C   UNL     1       2.749   7.553  17.815  0.00  0.00    +0.000 A 
ATOM      3  C   UNL     1       2.323   8.862  17.583  0.00  0.00    +0.000 A 
ATOM      4  C   UNL     1       1.594   9.536  18.560  0.00  0.00    +0.000 A 
ATOM      5  N   UNL     1       1.198  10.854  18.302  0.00  0.00    +0.000 N 
ATOM      6  C   UNL     1       0.479  11.613  19.175  0.00  0.00    +0.000 A 
ATOM      7  O   UNL     1       0.156  12.771  18.943  0.00  0.00    +0.000 OA
ATOM      8  C   UNL     1       0.087  10.952  20.440  0.00  0.00    +0.000 A 
ATOM      9  C   UNL     1       0.438   9.687  20.750  0.00  0.00    +0.000 A 
ATOM     10  C   UNL     1       1.267   8.923  19.781  0.00  0.00    +0.000 A 
ATOM     11  C   UNL     1       1.747   7.616  19.989  0.00  0.00    +0.000 A 
ATOM     12  H   UNL     1       1.454  11.307  17.435  0.00  0.00    +0.000 HD
ENDROOT
BRANCH   9  13
ATOM     13  C   UNL     1      -0.064   9.138  22.053  0.00  0.00    +0.000 C 
ATOM     14  F   UNL     1       0.877   8.824  22.973  0.00  0.00    +0.000 F 
ATOM     15  F   UNL     1      -0.905  10.019  22.659  0.00  0.00    +0.000 F 
ATOM     16  F   UNL     1      -0.788   8.002  21.852  0.00  0.00    +0.000 F 
ENDBRANCH   9  13
BRANCH   1  17
ATOM     17  N   UNL     1       2.947   5.601  19.252  0.00  0.00    +0.000 N 
BRANCH  17  18
ATOM     18  C   UNL     1       3.925   4.970  18.329  0.00  0.00    +0.000 C 
ATOM     19  C   UNL     1       3.210   3.967  17.410  0.00  0.00    +0.000 C 
BRANCH  18  21
ATOM     20  C   UNL     1       6.280   5.314  19.263  0.00  0.00    +0.000 C 
ATOM     21  C   UNL     1       5.115   4.344  19.081  0.00  0.00    +0.000 C 
ENDBRANCH  18  21
ENDBRANCH  17  18
BRANCH  17  22
ATOM     22  C   UNL     1       2.713   5.011  20.604  0.00  0.00    +0.000 C 
BRANCH  22  23
ATOM     23  C   UNL     1       1.632   3.919  20.722  0.00  0.00    +0.000 C 
ATOM     24  F   UNL     1       1.452   3.457  21.976  0.00  0.00    +0.000 F 
ATOM     25  F   UNL     1       0.436   4.372  20.274  0.00  0.00    +0.000 F 
ATOM     26  F   UNL     1       1.961   2.852  19.949  0.00  0.00    +0.000 F 
ENDBRANCH  22  23
ENDBRANCH  17  22
ENDBRANCH   1  17
TORSDOF 6
ENDMDL
MODEL 9
REMARK VINA RESULT:      -7.8      1.689      2.581
REMARK  Name = 
REMARK  8 active torsions:
REMARK  status: ('A' for Active; 'I' for Inactive)
REMARK    1  A    between atoms: C_1  and  C_2
REMARK    2  A    between atoms: C_2  and  C_3
REMARK    3  A    between atoms: C_3  and  C_4
REMARK    4  A    between atoms: C_3  and  N_5
REMARK    5  A    between atoms: N_5  and  C_6
REMARK    6  A    between atoms: N_5  and  C_11
REMARK    7  A    between atoms: C_6  and  C_7
REMARK    8  A    between atoms: C_19  and  C_20
REMARK                            x       y       z     vdW  Elec       q    Type
REMARK                         _______ _______ _______ _____ _____    ______ ____
ROOT
ATOM      1  C   UNL     1       2.549   6.468  19.275  0.00  0.00    +0.000 A 
ATOM      2  C   UNL     1       2.876   6.969  18.009  0.00  0.00    +0.000 A 
ATOM      3  C   UNL     1       2.543   8.270  17.630  0.00  0.00    +0.000 A 
ATOM      4  C   UNL     1       1.846   9.092  18.513  0.00  0.00    +0.000 A 
ATOM      5  N   UNL     1       1.544  10.398  18.108  0.00  0.00    +0.000 N 
ATOM      6  C   UNL     1       0.864  11.292  18.879  0.00  0.00    +0.000 A 
ATOM      7  O   UNL     1       0.624  12.437  18.517  0.00  0.00    +0.000 OA
ATOM      8  C   UNL     1       0.409  10.798  20.197  0.00  0.00    +0.000 A 
ATOM      9  C   UNL     1       0.669   9.554  20.648  0.00  0.00    +0.000 A 
ATOM     10  C   UNL     1       1.459   8.637  19.784  0.00  0.00    +0.000 A 
ATOM     11  C   UNL     1       1.847   7.332  20.141  0.00  0.00    +0.000 A 
ATOM     12  H   UNL     1       1.843  10.737  17.203  0.00  0.00    +0.000 HD
ENDROOT
BRANCH   9  13
ATOM     13  C   UNL     1       0.111   9.183  21.990  0.00  0.00    +0.000 C 
ATOM     14  F   UNL     1       1.011   8.828  22.936  0.00  0.00    +0.000 F 
ATOM     15  F   UNL     1      -0.607  10.209  22.519  0.00  0.00    +0.000 F 
ATOM     16  F   UNL     1      -0.752   8.135  21.882  0.00  0.00    +0.000 F 
ENDBRANCH   9  13
BRANCH   1  17
ATOM     17  N   UNL     1       2.920   5.175  19.650  0.00  0.00    +0.000 N 
BRANCH  17  18
ATOM     18  C   UNL     1       4.093   4.510  19.030  0.00  0.00    +0.000 C 
ATOM     19  C   UNL     1       5.367   5.323  19.308  0.00  0.00    +0.000 C 
BRANCH  18  21
ATOM     20  C   UNL     1       2.683   3.325  17.256  0.00  0.00    +0.000 C 
ATOM     21  C   UNL     1       3.880   4.233  17.530  0.00  0.00    +0.000 C 
ENDBRANCH  18  21
ENDBRANCH  17  18
BRANCH  17  22
ATOM     22  C   UNL     1       2.335   4.627  20.911  0.00  0.00    +0.000 C 
BRANCH  22  23
ATOM     23  C   UNL     1       1.500   3.336  20.802  0.00  0.00    +0.000 C 
ATOM     24  F   UNL     1       2.176   2.285  20.295  0.00  0.00    +0.000 F 
ATOM     25  F   UNL     1       1.016   2.969  22.013  0.00  0.00    +0.000 F 
ATOM     26  F   UNL     1       0.426   3.543  19.996  0.00  0.00    +0.000 F 
ENDBRANCH  22  23
ENDBRANCH  17  22
ENDBRANCH   1  17
TORSDOF 6
ENDMDL
