MODEL 1
REMARK VINA RESULT:      -6.8      0.000      0.000
REMARK  Name = 
REMARK  5 active torsions:
REMARK  status: ('A' for Active; 'I' for Inactive)
REMARK    1  A    between atoms: C_1  and  C_2
REMARK    2  A    between atoms: C_2  and  C_3
REMARK    3  A    between atoms: C_3  and  O_4
REMARK    4  A    between atoms: C_5  and  C_6
REMARK    5  A    between atoms: C_5  and  C_8
REMARK                            x       y       z     vdW  Elec       q    Type
REMARK                         _______ _______ _______ _____ _____    ______ ____
ROOT
ATOM      1  C   UNL     1       4.527   3.759  18.397  0.00  0.00    +0.000 A 
ATOM      2  N   UNL     1       4.172   3.399  17.180  0.00  0.00    +0.000 NA
ATOM      3  N   UNL     1       4.887   4.142  16.282  0.00  0.00    +0.000 NA
ATOM      4  C   UNL     1       5.666   4.966  16.950  0.00  0.00    +0.000 A 
ATOM      5  N   UNL     1       5.517   4.719  18.298  0.00  0.00    +0.000 N 
ATOM      6  C   UNL     1       6.231   5.355  19.388  0.00  0.00    +0.000 C 
ATOM      7  C   UNL     1       7.693   5.657  19.076  0.00  0.00    +0.000 C 
ATOM      8  C   UNL     1       7.898   6.935  18.262  0.00  0.00    +0.000 C 
ATOM      9  C   UNL     1       6.847   7.201  17.183  0.00  0.00    +0.000 C 
ATOM     10  C   UNL     1       6.553   5.984  16.316  0.00  0.00    +0.000 C 
ENDROOT
BRANCH   1  12
ATOM     11  C   UNL     1       2.871   3.997  20.128  0.00  0.00    +0.000 C 
ATOM     12  C   UNL     1       3.968   3.370  19.643  0.00  0.00    +0.000 C 
BRANCH  11  14
ATOM     13  C   UNL     1       1.226   2.642  21.471  0.00  0.00    +0.000 C 
ATOM     14  C   UNL     1       2.281   3.737  21.499  0.00  0.00    +0.000 C 
ENDBRANCH  11  14
BRANCH  11  15
ATOM     15  O   UNL     1       2.214   4.960  19.371  0.00  0.00    +0.000 OA
ATOM     16  H   UNL     1       1.883   5.665  19.959  0.00  0.00    +0.000 HD
ENDBRANCH  11  15
BRANCH  12  17
ATOM     17  C   UNL     1       4.620   2.329  20.367  0.00  0.00    +0.000 C 
ATOM     18  N   UNL     1       5.172   1.532  21.007  0.00  0.00    +0.000 NA
ENDBRANCH  12  17
ENDBRANCH   1  12
TORSDOF 4
ENDMDL
MODEL 2
REMARK VINA RESULT:      -6.7      2.347      5.830
REMARK  Name = 
REMARK  5 active torsions:
REMARK  status: ('A' for Active; 'I' for Inactive)
REMARK    1  A    between atoms: C_1  and  C_2
REMARK    2  A    between atoms: C_2  and  C_3
REMARK    3  A    between atoms: C_3  and  O_4
REMARK    4  A    between atoms: C_5  and  C_6
REMARK    5  A    between atoms: C_5  and  C_8
REMARK                            x       y       z     vdW  Elec       q    Type
REMARK                         _______ _______ _______ _____ _____    ______ ____
ROOT
ATOM      1  C   UNL     1       4.755   3.983  18.252  0.00  0.00    +0.000 A 
ATOM      2  N   UNL     1       5.671   3.559  19.100  0.00  0.00    +0.000 NA
ATOM      3  N   UNL     1       5.041   3.020  20.187  0.00  0.00    +0.000 NA
ATOM      4  C   UNL     1       3.741   3.129  20.009  0.00  0.00    +0.000 A 
ATOM      5  N   UNL     1       3.510   3.681  18.767  0.00  0.00    +0.000 N 
ATOM      6  C   UNL     1       2.223   3.920  18.143  0.00  0.00    +0.000 C 
ATOM      7  C   UNL     1       1.186   2.840  18.431  0.00  0.00    +0.000 C 
ATOM      8  C   UNL     1       0.499   2.992  19.788  0.00  0.00    +0.000 C 
ATOM      9  C   UNL     1       1.399   3.467  20.929  0.00  0.00    +0.000 C 
ATOM     10  C   UNL     1       2.718   2.710  21.011  0.00  0.00    +0.000 C 
ENDROOT
BRANCH   1  12
ATOM     11  C   UNL     1       5.477   4.157  15.962  0.00  0.00    +0.000 C 
ATOM     12  C   UNL     1       4.923   4.729  17.055  0.00  0.00    +0.000 C 
BRANCH  11  14
ATOM     13  C   UNL     1       6.206   3.967  13.558  0.00  0.00    +0.000 C 
ATOM     14  C   UNL     1       5.809   4.905  14.687  0.00  0.00    +0.000 C 
ENDBRANCH  11  14
BRANCH  11  15
ATOM     15  O   UNL     1       5.796   2.804  15.957  0.00  0.00    +0.000 OA
ATOM     16  H   UNL     1       5.742   2.453  16.865  0.00  0.00    +0.000 HD
ENDBRANCH  11  15
BRANCH  12  17
ATOM     17  C   UNL     1       4.520   6.097  17.064  0.00  0.00    +0.000 C 
ATOM     18  N   UNL     1       4.170   7.202  17.142  0.00  0.00    +0.000 NA
ENDBRANCH  12  17
ENDBRANCH   1  12
TORSDOF 4
ENDMDL
MODEL 3
REMARK VINA RESULT:      -6.6      2.264      5.267
REMARK  Name = 
REMARK  5 active torsions:
REMARK  status: ('A' for Active; 'I' for Inactive)
REMARK    1  A    between atoms: C_1  and  C_2
REMARK    2  A    between atoms: C_2  and  C_3
REMARK    3  A    between atoms: C_3  and  O_4
REMARK    4  A    between atoms: C_5  and  C_6
REMARK    5  A    between atoms: C_5  and  C_8
REMARK                            x       y       z     vdW  Elec       q    Type
REMARK                         _______ _______ _______ _____ _____    ______ ____
ROOT
ATOM      1  C   UNL     1       3.878   4.394  17.296  0.00  0.00    +0.000 A 
ATOM      2  N   UNL     1       3.257   3.423  16.656  0.00  0.00    +0.000 NA
ATOM      3  N   UNL     1       2.117   3.111  17.343  0.00  0.00    +0.000 NA
ATOM      4  C   UNL     1       2.049   3.881  18.409  0.00  0.00    +0.000 A 
ATOM      5  N   UNL     1       3.116   4.755  18.390  0.00  0.00    +0.000 N 
ATOM      6  C   UNL     1       3.394   5.814  19.340  0.00  0.00    +0.000 C 
ATOM      7  C   UNL     1       2.148   6.529  19.851  0.00  0.00    +0.000 C 
ATOM      8  C   UNL     1       1.425   5.782  20.973  0.00  0.00    +0.000 C 
ATOM      9  C   UNL     1       1.391   4.260  20.830  0.00  0.00    +0.000 C 
ATOM     10  C   UNL     1       0.976   3.794  19.441  0.00  0.00    +0.000 C 
ENDROOT
BRANCH   1  12
ATOM     11  C   UNL     1       6.225   4.591  17.793  0.00  0.00    +0.000 C 
ATOM     12  C   UNL     1       5.159   4.954  17.044  0.00  0.00    +0.000 C 
BRANCH  11  14
ATOM     13  C   UNL     1       7.810   6.319  18.714  0.00  0.00    +0.000 C 
ATOM     14  C   UNL     1       7.597   5.223  17.681  0.00  0.00    +0.000 C 
ENDBRANCH  11  14
BRANCH  11  15
ATOM     15  O   UNL     1       6.109   3.591  18.752  0.00  0.00    +0.000 OA
ATOM     16  H   UNL     1       5.386   2.984  18.503  0.00  0.00    +0.000 HD
ENDBRANCH  11  15
BRANCH  12  17
ATOM     17  C   UNL     1       5.266   5.926  16.006  0.00  0.00    +0.000 C 
ATOM     18  N   UNL     1       5.293   6.751  15.188  0.00  0.00    +0.000 NA
ENDBRANCH  12  17
ENDBRANCH   1  12
TORSDOF 4
ENDMDL
MODEL 4
REMARK VINA RESULT:      -6.6      1.904      3.168
REMARK  Name = 
REMARK  5 active torsions:
REMARK  status: ('A' for Active; 'I' for Inactive)
REMARK    1  A    between atoms: C_1  and  C_2
REMARK    2  A    between atoms: C_2  and  C_3
REMARK    3  A    between atoms: C_3  and  O_4
REMARK    4  A    between atoms: C_5  and  C_6
REMARK    5  A    between atoms: C_5  and  C_8
REMARK                            x       y       z     vdW  Elec       q    Type
REMARK                         _______ _______ _______ _____ _____    ______ ____
ROOT
ATOM      1  C   UNL     1       4.998   5.020  19.191  0.00  0.00    +0.000 A 
ATOM      2  N   UNL     1       6.100   4.907  19.906  0.00  0.00    +0.000 NA
ATOM      3  N   UNL     1       7.162   4.803  19.052  0.00  0.00    +0.000 NA
ATOM      4  C   UNL     1       6.708   4.837  17.817  0.00  0.00    +0.000 A 
ATOM      5  N   UNL     1       5.344   5.035  17.854  0.00  0.00    +0.000 N 
ATOM      6  C   UNL     1       4.453   5.196  16.721  0.00  0.00    +0.000 C 
ATOM      7  C   UNL     1       5.059   5.985  15.565  0.00  0.00    +0.000 C 
ATOM      8  C   UNL     1       5.973   5.154  14.664  0.00  0.00    +0.000 C 
ATOM      9  C   UNL     1       6.843   4.123  15.385  0.00  0.00    +0.000 C 
ATOM     10  C   UNL     1       7.562   4.687  16.603  0.00  0.00    +0.000 C 
ENDROOT
BRANCH   1  12
ATOM     11  C   UNL     1       3.049   3.865  20.003  0.00  0.00    +0.000 C 
ATOM     12  C   UNL     1       3.647   5.018  19.627  0.00  0.00    +0.000 C 
BRANCH  11  14
ATOM     13  C   UNL     1       1.354   2.820  21.547  0.00  0.00    +0.000 C 
ATOM     14  C   UNL     1       1.582   3.745  20.361  0.00  0.00    +0.000 C 
ENDBRANCH  11  14
BRANCH  11  15
ATOM     15  O   UNL     1       3.774   2.680  20.068  0.00  0.00    +0.000 OA
ATOM     16  H   UNL     1       3.980   2.475  20.999  0.00  0.00    +0.000 HD
ENDBRANCH  11  15
BRANCH  12  17
ATOM     17  C   UNL     1       2.945   6.260  19.620  0.00  0.00    +0.000 C 
ATOM     18  N   UNL     1       2.310   7.233  19.606  0.00  0.00    +0.000 NA
ENDBRANCH  12  17
ENDBRANCH   1  12
TORSDOF 4
ENDMDL
MODEL 5
REMARK VINA RESULT:      -6.5      1.998      2.612
REMARK  Name = 
REMARK  5 active torsions:
REMARK  status: ('A' for Active; 'I' for Inactive)
REMARK    1  A    between atoms: C_1  and  C_2
REMARK    2  A    between atoms: C_2  and  C_3
REMARK    3  A    between atoms: C_3  and  O_4
REMARK    4  A    between atoms: C_5  and  C_6
REMARK    5  A    between atoms: C_5  and  C_8
REMARK                            x       y       z     vdW  Elec       q    Type
REMARK                         _______ _______ _______ _____ _____    ______ ____
ROOT
ATOM      1  C   UNL     1       2.990   5.566  18.250  0.00  0.00    +0.000 A 
ATOM      2  N   UNL     1       2.630   6.821  18.067  0.00  0.00    +0.000 NA
ATOM      3  N   UNL     1       3.701   7.512  17.575  0.00  0.00    +0.000 NA
ATOM      4  C   UNL     1       4.719   6.683  17.471  0.00  0.00    +0.000 A 
ATOM      5  N   UNL     1       4.298   5.421  17.833  0.00  0.00    +0.000 N 
ATOM      6  C   UNL     1       5.079   4.199  17.806  0.00  0.00    +0.000 C 
ATOM      7  C   UNL     1       6.042   4.106  16.628  0.00  0.00    +0.000 C 
ATOM      8  C   UNL     1       7.347   4.875  16.837  0.00  0.00    +0.000 C 
ATOM      9  C   UNL     1       7.211   6.210  17.570  0.00  0.00    +0.000 C 
ATOM     10  C   UNL     1       6.086   7.083  17.029  0.00  0.00    +0.000 C 
ENDROOT
BRANCH   1  12
ATOM     11  C   UNL     1       1.869   4.612  20.155  0.00  0.00    +0.000 C 
ATOM     12  C   UNL     1       2.267   4.510  18.866  0.00  0.00    +0.000 C 
BRANCH  11  14
ATOM     13  C   UNL     1       2.209   2.680  21.736  0.00  0.00    +0.000 C 
ATOM     14  C   UNL     1       1.206   3.493  20.931  0.00  0.00    +0.000 C 
ENDBRANCH  11  14
BRANCH  11  15
ATOM     15  O   UNL     1       2.069   5.790  20.866  0.00  0.00    +0.000 OA
ATOM     16  H   UNL     1       2.069   6.546  20.250  0.00  0.00    +0.000 HD
ENDBRANCH  11  15
BRANCH  12  17
ATOM     17  C   UNL     1       2.011   3.340  18.092  0.00  0.00    +0.000 C 
ATOM     18  N   UNL     1       1.861   2.354  17.495  0.00  0.00    +0.000 NA
ENDBRANCH  12  17
ENDBRANCH   1  12
TORSDOF 4
ENDMDL
MODEL 6
REMARK VINA RESULT:      -6.5      2.128      5.161
REMARK  Name = 
REMARK  5 active torsions:
REMARK  status: ('A' for Active; 'I' for Inactive)
REMARK    1  A    between atoms: C_1  and  C_2
REMARK    2  A    between atoms: C_2  and  C_3
REMARK    3  A    between atoms: C_3  and  O_4
REMARK    4  A    between atoms: C_5  and  C_6
REMARK    5  A    between atoms: C_5  and  C_8
REMARK                            x       y       z     vdW  Elec       q    Type
REMARK                         _______ _______ _______ _____ _____    ______ ____
ROOT
ATOM      1  C   UNL     1       5.048   4.929  17.724  0.00  0.00    +0.000 A 
ATOM      2  N   UNL     1       4.881   4.083  16.726  0.00  0.00    +0.000 NA
ATOM      3  N   UNL     1       3.697   3.424  16.909  0.00  0.00    +0.000 NA
ATOM      4  C   UNL     1       3.148   3.856  18.025  0.00  0.00    +0.000 A 
ATOM      5  N   UNL     1       3.941   4.856  18.548  0.00  0.00    +0.000 N 
ATOM      6  C   UNL     1       3.679   5.649  19.733  0.00  0.00    +0.000 C 
ATOM      7  C   UNL     1       2.208   5.997  19.932  0.00  0.00    +0.000 C 
ATOM      8  C   UNL     1       1.389   4.872  20.565  0.00  0.00    +0.000 C 
ATOM      9  C   UNL     1       1.753   3.459  20.108  0.00  0.00    +0.000 C 
ATOM     10  C   UNL     1       1.875   3.328  18.596  0.00  0.00    +0.000 C 
ENDROOT
BRANCH   1  12
ATOM     11  C   UNL     1       6.605   6.681  17.180  0.00  0.00    +0.000 C 
ATOM     12  C   UNL     1       6.179   5.726  18.039  0.00  0.00    +0.000 C 
BRANCH  11  14
ATOM     13  C   UNL     1       7.575   8.941  17.727  0.00  0.00    +0.000 C 
ATOM     14  C   UNL     1       7.870   7.492  17.372  0.00  0.00    +0.000 C 
ENDBRANCH  11  14
BRANCH  11  15
ATOM     15  O   UNL     1       5.885   6.968  16.027  0.00  0.00    +0.000 OA
ATOM     16  H   UNL     1       6.108   6.318  15.334  0.00  0.00    +0.000 HD
ENDBRANCH  11  15
BRANCH  12  17
ATOM     17  C   UNL     1       6.859   5.460  19.264  0.00  0.00    +0.000 C 
ATOM     18  N   UNL     1       7.477   5.252  20.226  0.00  0.00    +0.000 NA
ENDBRANCH  12  17
ENDBRANCH   1  12
TORSDOF 4
ENDMDL
MODEL 7
REMARK VINA RESULT:      -6.4      2.597      5.203
REMARK  Name = 
REMARK  5 active torsions:
REMARK  status: ('A' for Active; 'I' for Inactive)
REMARK    1  A    between atoms: C_1  and  C_2
REMARK    2  A    between atoms: C_2  and  C_3
REMARK    3  A    between atoms: C_3  and  O_4
REMARK    4  A    between atoms: C_5  and  C_6
REMARK    5  A    between atoms: C_5  and  C_8
REMARK                            x       y       z     vdW  Elec       q    Type
REMARK                         _______ _______ _______ _____ _____    ______ ____
ROOT
ATOM      1  C   UNL     1       6.392   5.228  17.552  0.00  0.00    +0.000 A 
ATOM      2  N   UNL     1       6.742   4.413  16.576  0.00  0.00    +0.000 NA
ATOM      3  N   UNL     1       5.656   3.658  16.230  0.00  0.00    +0.000 NA
ATOM      4  C   UNL     1       4.648   4.001  17.004  0.00  0.00    +0.000 A 
ATOM      5  N   UNL     1       5.050   5.037  17.821  0.00  0.00    +0.000 N 
ATOM      6  C   UNL     1       4.238   5.757  18.782  0.00  0.00    +0.000 C 
ATOM      7  C   UNL     1       2.799   5.982  18.331  0.00  0.00    +0.000 C 
ATOM      8  C   UNL     1       1.890   4.773  18.546  0.00  0.00    +0.000 C 
ATOM      9  C   UNL     1       2.536   3.412  18.284  0.00  0.00    +0.000 C 
ATOM     10  C   UNL     1       3.304   3.353  16.970  0.00  0.00    +0.000 C 
ENDROOT
BRANCH   1  12
ATOM     11  C   UNL     1       7.556   7.313  17.850  0.00  0.00    +0.000 C 
ATOM     12  C   UNL     1       7.206   6.097  18.326  0.00  0.00    +0.000 C 
BRANCH  11  14
ATOM     13  C   UNL     1       8.385   9.684  18.049  0.00  0.00    +0.000 C 
ATOM     14  C   UNL     1       8.519   8.253  18.546  0.00  0.00    +0.000 C 
ENDBRANCH  11  14
BRANCH  11  15
ATOM     15  O   UNL     1       7.044   7.775  16.643  0.00  0.00    +0.000 OA
ATOM     16  H   UNL     1       6.320   8.406  16.817  0.00  0.00    +0.000 HD
ENDBRANCH  11  15
BRANCH  12  17
ATOM     17  C   UNL     1       7.660   5.627  19.594  0.00  0.00    +0.000 C 
ATOM     18  N   UNL     1       8.099   5.265  20.607  0.00  0.00    +0.000 NA
ENDBRANCH  12  17
ENDBRANCH   1  12
TORSDOF 4
ENDMDL
MODEL 8
REMARK VINA RESULT:      -6.4      2.184      5.356
REMARK  Name = 
REMARK  5 active torsions:
REMARK  status: ('A' for Active; 'I' for Inactive)
REMARK    1  A    between atoms: C_1  and  C_2
REMARK    2  A    between atoms: C_2  and  C_3
REMARK    3  A    between atoms: C_3  and  O_4
REMARK    4  A    between atoms: C_5  and  C_6
REMARK    5  A    between atoms: C_5  and  C_8
REMARK                            x       y       z     vdW  Elec       q    Type
REMARK                         _______ _______ _______ _____ _____    ______ ____
ROOT
ATOM      1  C   UNL     1       4.240   5.635  18.980  0.00  0.00    +0.000 A 
ATOM      2  N   UNL     1       3.584   6.778  18.951  0.00  0.00    +0.000 NA
ATOM      3  N   UNL     1       2.338   6.577  19.476  0.00  0.00    +0.000 NA
ATOM      4  C   UNL     1       2.228   5.308  19.811  0.00  0.00    +0.000 A 
ATOM      5  N   UNL     1       3.432   4.682  19.570  0.00  0.00    +0.000 N 
ATOM      6  C   UNL     1       3.770   3.301  19.852  0.00  0.00    +0.000 C 
ATOM      7  C   UNL     1       3.157   2.765  21.141  0.00  0.00    +0.000 C 
ATOM      8  C   UNL     1       1.700   2.325  20.994  0.00  0.00    +0.000 C 
ATOM      9  C   UNL     1       0.841   3.200  20.081  0.00  0.00    +0.000 C 
ATOM     10  C   UNL     1       0.987   4.689  20.362  0.00  0.00    +0.000 C 
ENDROOT
BRANCH   1  12
ATOM     11  C   UNL     1       5.614   4.947  17.127  0.00  0.00    +0.000 C 
ATOM     12  C   UNL     1       5.507   5.318  18.424  0.00  0.00    +0.000 C 
BRANCH  11  14
ATOM     13  C   UNL     1       6.822   4.490  14.964  0.00  0.00    +0.000 C 
ATOM     14  C   UNL     1       6.900   4.472  16.483  0.00  0.00    +0.000 C 
ENDBRANCH  11  14
BRANCH  11  15
ATOM     15  O   UNL     1       4.504   4.968  16.291  0.00  0.00    +0.000 OA
ATOM     16  H   UNL     1       4.557   4.225  15.661  0.00  0.00    +0.000 HD
ENDBRANCH  11  15
BRANCH  12  17
ATOM     17  C   UNL     1       6.643   5.374  19.285  0.00  0.00    +0.000 C 
ATOM     18  N   UNL     1       7.526   5.389  20.040  0.00  0.00    +0.000 NA
ENDBRANCH  12  17
ENDBRANCH   1  12
TORSDOF 4
ENDMDL
MODEL 9
REMARK VINA RESULT:      -6.4      1.676      2.057
REMARK  Name = 
REMARK  5 active torsions:
REMARK  status: ('A' for Active; 'I' for Inactive)
REMARK    1  A    between atoms: C_1  and  C_2
REMARK    2  A    between atoms: C_2  and  C_3
REMARK    3  A    between atoms: C_3  and  O_4
REMARK    4  A    between atoms: C_5  and  C_6
REMARK    5  A    between atoms: C_5  and  C_8
REMARK                            x       y       z     vdW  Elec       q    Type
REMARK                         _______ _______ _______ _____ _____    ______ ____
ROOT
ATOM      1  C   UNL     1       3.875   4.185  17.884  0.00  0.00    +0.000 A 
ATOM      2  N   UNL     1       3.834   3.717  16.652  0.00  0.00    +0.000 NA
ATOM      3  N   UNL     1       4.970   4.110  16.000  0.00  0.00    +0.000 NA
ATOM      4  C   UNL     1       5.697   4.829  16.829  0.00  0.00    +0.000 A 
ATOM      5  N   UNL     1       5.071   4.854  18.057  0.00  0.00    +0.000 N 
ATOM      6  C   UNL     1       5.556   5.480  19.272  0.00  0.00    +0.000 C 
ATOM      7  C   UNL     1       7.065   5.374  19.462  0.00  0.00    +0.000 C 
ATOM      8  C   UNL     1       7.861   6.412  18.670  0.00  0.00    +0.000 C 
ATOM      9  C   UNL     1       7.317   6.731  17.277  0.00  0.00    +0.000 C 
ATOM     10  C   UNL     1       6.984   5.489  16.462  0.00  0.00    +0.000 C 
ENDROOT
BRANCH   1  12
ATOM     11  C   UNL     1       2.299   2.981  19.249  0.00  0.00    +0.000 C 
ATOM     12  C   UNL     1       2.870   4.153  18.886  0.00  0.00    +0.000 C 
BRANCH  11  14
ATOM     13  C   UNL     1       1.597   2.595  21.637  0.00  0.00    +0.000 C 
ATOM     14  C   UNL     1       1.137   2.865  20.213  0.00  0.00    +0.000 C 
ENDBRANCH  11  14
BRANCH  11  15
ATOM     15  O   UNL     1       2.759   1.779  18.724  0.00  0.00    +0.000 OA
ATOM     16  H   UNL     1       3.462   1.421  19.297  0.00  0.00    +0.000 HD
ENDBRANCH  11  15
BRANCH  12  17
ATOM     17  C   UNL     1       2.467   5.394  19.461  0.00  0.00    +0.000 C 
ATOM     18  N   UNL     1       2.150   6.376  19.997  0.00  0.00    +0.000 NA
ENDBRANCH  12  17
ENDBRANCH   1  12
TORSDOF 4
ENDMDL
