MODEL 1
REMARK VINA RESULT:      -7.5      0.000      0.000
REMARK  Name = 
REMARK  10 active torsions:
REMARK  status: ('A' for Active; 'I' for Inactive)
REMARK    1  A    between atoms: C_1  and  O_2
REMARK    2  A    between atoms: O_2  and  C_3
REMARK    3  A    between atoms: C_6  and  C_7
REMARK    4  A    between atoms: C_7  and  C_8
REMARK    5  A    between atoms: C_8  and  N_9
REMARK    6  A    between atoms: C_10  and  C_12
REMARK    7  A    between atoms: C_12  and  O_13
REMARK    8  A    between atoms: O_13  and  C_14
REMARK    9  A    between atoms: C_14  and  C_16
REMARK   10  A    between atoms: C_19  and  C_20
REMARK                            x       y       z     vdW  Elec       q    Type
REMARK                         _______ _______ _______ _____ _____    ______ ____
ROOT
ATOM      1  N   UNL     1       8.553   8.183  18.819  0.00  0.00    +0.000 N 
ATOM      2  C   UNL     1       7.784   7.377  18.003  0.00  0.00    +0.000 C 
ATOM      3  O   UNL     1       7.210   7.792  16.998  0.00  0.00    +0.000 OA
ATOM      4  H   UNL     1       8.903   7.802  19.690  0.00  0.00    +0.000 HD
ENDROOT
BRANCH   1   5
ATOM      5  C   UNL     1       8.774   9.576  18.467  0.00  0.00    +0.000 C 
BRANCH   5   6
ATOM      6  C   UNL     1       9.394  10.397  19.597  0.00  0.00    +0.000 C 
BRANCH   6  10
ATOM      7  C   UNL     1      11.678  13.754  18.087  0.00  0.00    +0.000 A 
ATOM      8  C   UNL     1      10.673  13.172  17.314  0.00  0.00    +0.000 A 
ATOM      9  C   UNL     1       9.929  12.096  17.805  0.00  0.00    +0.000 A 
ATOM     10  C   UNL     1      10.192  11.571  19.077  0.00  0.00    +0.000 A 
ATOM     11  C   UNL     1      11.226  12.136  19.836  0.00  0.00    +0.000 A 
ATOM     12  C   UNL     1      11.964  13.223  19.345  0.00  0.00    +0.000 A 
BRANCH   7  14
ATOM     13  C   UNL     1      11.508  15.768  16.860  0.00  0.00    +0.000 C 
ATOM     14  O   UNL     1      12.333  14.801  17.499  0.00  0.00    +0.000 OA
ENDBRANCH   7  14
ENDBRANCH   6  10
ENDBRANCH   5   6
ENDBRANCH   1   5
BRANCH   2  15
ATOM     15  C   UNL     1       7.631   5.935  18.486  0.00  0.00    +0.000 C 
BRANCH  15  16
ATOM     16  O   UNL     1       6.272   5.517  18.614  0.00  0.00    +0.000 OA
BRANCH  16  17
ATOM     17  C   UNL     1       5.862   4.610  17.688  0.00  0.00    +0.000 C 
ATOM     18  O   UNL     1       6.484   4.269  16.696  0.00  0.00    +0.000 OA
BRANCH  17  19
ATOM     19  C   UNL     1       4.514   4.088  18.031  0.00  0.00    +0.000 A 
ATOM     20  C   UNL     1       4.383   3.214  19.100  0.00  0.00    +0.000 A 
ATOM     21  N   UNL     1       3.199   2.632  19.427  0.00  0.00    +0.000 NA
ATOM     22  C   UNL     1       2.141   2.963  18.647  0.00  0.00    +0.000 A 
ATOM     23  C   UNL     1       0.823   2.311  18.937  0.00  0.00    +0.000 C 
ATOM     24  C   UNL     1       2.269   3.877  17.605  0.00  0.00    +0.000 A 
ATOM     25  N   UNL     1       3.448   4.455  17.267  0.00  0.00    +0.000 NA
ENDBRANCH  17  19
ENDBRANCH  16  17
ENDBRANCH  15  16
ENDBRANCH   2  15
TORSDOF 8
ENDMDL
MODEL 2
REMARK VINA RESULT:      -7.3      0.887      1.208
REMARK  Name = 
REMARK  10 active torsions:
REMARK  status: ('A' for Active; 'I' for Inactive)
REMARK    1  A    between atoms: C_1  and  O_2
REMARK    2  A    between atoms: O_2  and  C_3
REMARK    3  A    between atoms: C_6  and  C_7
REMARK    4  A    between atoms: C_7  and  C_8
REMARK    5  A    between atoms: C_8  and  N_9
REMARK    6  A    between atoms: C_10  and  C_12
REMARK    7  A    between atoms: C_12  and  O_13
REMARK    8  A    between atoms: O_13  and  C_14
REMARK    9  A    between atoms: C_14  and  C_16
REMARK   10  A    between atoms: C_19  and  C_20
REMARK                            x       y       z     vdW  Elec       q    Type
REMARK                         _______ _______ _______ _____ _____    ______ ____
ROOT
ATOM      1  N   UNL     1       8.539   8.230  18.799  0.00  0.00    +0.000 N 
ATOM      2  C   UNL     1       7.826   7.384  17.971  0.00  0.00    +0.000 C 
ATOM      3  O   UNL     1       7.275   7.762  16.941  0.00  0.00    +0.000 OA
ATOM      4  H   UNL     1       8.871   7.876  19.689  0.00  0.00    +0.000 HD
ENDROOT
BRANCH   1   5
ATOM      5  C   UNL     1       8.724   9.624  18.430  0.00  0.00    +0.000 C 
BRANCH   5   6
ATOM      6  C   UNL     1       9.418  10.451  19.511  0.00  0.00    +0.000 C 
BRANCH   6  10
ATOM      7  C   UNL     1      11.314  13.998  17.902  0.00  0.00    +0.000 A 
ATOM      8  C   UNL     1      10.674  14.033  19.141  0.00  0.00    +0.000 A 
ATOM      9  C   UNL     1      10.072  12.887  19.665  0.00  0.00    +0.000 A 
ATOM     10  C   UNL     1      10.084  11.685  18.946  0.00  0.00    +0.000 A 
ATOM     11  C   UNL     1      10.698  11.662  17.686  0.00  0.00    +0.000 A 
ATOM     12  C   UNL     1      11.312  12.812  17.167  0.00  0.00    +0.000 A 
BRANCH   7  14
ATOM     13  C   UNL     1      10.993  16.077  16.822  0.00  0.00    +0.000 C 
ATOM     14  O   UNL     1      11.868  15.181  17.498  0.00  0.00    +0.000 OA
ENDBRANCH   7  14
ENDBRANCH   6  10
ENDBRANCH   5   6
ENDBRANCH   1   5
BRANCH   2  15
ATOM     15  C   UNL     1       7.707   5.946  18.475  0.00  0.00    +0.000 C 
BRANCH  15  16
ATOM     16  O   UNL     1       6.359   5.536  18.714  0.00  0.00    +0.000 OA
BRANCH  16  17
ATOM     17  C   UNL     1       5.880   4.610  17.843  0.00  0.00    +0.000 C 
ATOM     18  O   UNL     1       6.421   4.250  16.810  0.00  0.00    +0.000 OA
BRANCH  17  19
ATOM     19  C   UNL     1       4.566   4.092  18.303  0.00  0.00    +0.000 A 
ATOM     20  C   UNL     1       3.951   3.080  17.581  0.00  0.00    +0.000 A 
ATOM     21  N   UNL     1       2.715   2.608  17.892  0.00  0.00    +0.000 NA
ATOM     22  C   UNL     1       2.114   3.182  18.963  0.00  0.00    +0.000 A 
ATOM     23  C   UNL     1       0.730   2.730  19.317  0.00  0.00    +0.000 C 
ATOM     24  C   UNL     1       2.756   4.165  19.712  0.00  0.00    +0.000 A 
ATOM     25  N   UNL     1       3.984   4.647  19.403  0.00  0.00    +0.000 NA
ENDBRANCH  17  19
ENDBRANCH  16  17
ENDBRANCH  15  16
ENDBRANCH   2  15
TORSDOF 8
ENDMDL
MODEL 3
REMARK VINA RESULT:      -7.2      1.112      1.462
REMARK  Name = 
REMARK  10 active torsions:
REMARK  status: ('A' for Active; 'I' for Inactive)
REMARK    1  A    between atoms: C_1  and  O_2
REMARK    2  A    between atoms: O_2  and  C_3
REMARK    3  A    between atoms: C_6  and  C_7
REMARK    4  A    between atoms: C_7  and  C_8
REMARK    5  A    between atoms: C_8  and  N_9
REMARK    6  A    between atoms: C_10  and  C_12
REMARK    7  A    between atoms: C_12  and  O_13
REMARK    8  A    between atoms: O_13  and  C_14
REMARK    9  A    between atoms: C_14  and  C_16
REMARK   10  A    between atoms: C_19  and  C_20
REMARK                            x       y       z     vdW  Elec       q    Type
REMARK                         _______ _______ _______ _____ _____    ______ ____
ROOT
ATOM      1  N   UNL     1       8.527   8.176  18.944  0.00  0.00    +0.000 N 
ATOM      2  C   UNL     1       7.895   7.320  18.063  0.00  0.00    +0.000 C 
ATOM      3  O   UNL     1       7.530   7.663  16.940  0.00  0.00    +0.000 OA
ATOM      4  H   UNL     1       8.698   7.860  19.892  0.00  0.00    +0.000 HD
ENDROOT
BRANCH   1   5
ATOM      5  C   UNL     1       8.853   9.532  18.534  0.00  0.00    +0.000 C 
BRANCH   5   6
ATOM      6  C   UNL     1       9.458  10.376  19.655  0.00  0.00    +0.000 C 
BRANCH   6  10
ATOM      7  C   UNL     1      11.673  13.763  18.110  0.00  0.00    +0.000 A 
ATOM      8  C   UNL     1      10.927  12.951  17.256  0.00  0.00    +0.000 A 
ATOM      9  C   UNL     1      10.204  11.865  17.756  0.00  0.00    +0.000 A 
ATOM     10  C   UNL     1      10.230  11.562  19.123  0.00  0.00    +0.000 A 
ATOM     11  C   UNL     1      11.009  12.359  19.973  0.00  0.00    +0.000 A 
ATOM     12  C   UNL     1      11.725  13.456  19.469  0.00  0.00    +0.000 A 
BRANCH   7  14
ATOM     13  C   UNL     1      11.513  15.813  16.941  0.00  0.00    +0.000 C 
ATOM     14  O   UNL     1      12.333  14.796  17.503  0.00  0.00    +0.000 OA
ENDBRANCH   7  14
ENDBRANCH   6  10
ENDBRANCH   5   6
ENDBRANCH   1   5
BRANCH   2  15
ATOM     15  C   UNL     1       7.611   5.925  18.618  0.00  0.00    +0.000 C 
BRANCH  15  16
ATOM     16  O   UNL     1       7.876   4.876  17.685  0.00  0.00    +0.000 OA
BRANCH  16  17
ATOM     17  C   UNL     1       6.852   4.590  16.839  0.00  0.00    +0.000 C 
ATOM     18  O   UNL     1       6.939   4.449  15.630  0.00  0.00    +0.000 OA
BRANCH  17  19
ATOM     19  C   UNL     1       5.570   4.493  17.585  0.00  0.00    +0.000 A 
ATOM     20  C   UNL     1       4.492   5.261  17.172  0.00  0.00    +0.000 A 
ATOM     21  N   UNL     1       3.313   5.286  17.848  0.00  0.00    +0.000 NA
ATOM     22  C   UNL     1       3.247   4.507  18.955  0.00  0.00    +0.000 A 
ATOM     23  C   UNL     1       1.985   4.538  19.762  0.00  0.00    +0.000 C 
ATOM     24  C   UNL     1       4.317   3.703  19.338  0.00  0.00    +0.000 A 
ATOM     25  N   UNL     1       5.499   3.678  18.675  0.00  0.00    +0.000 NA
ENDBRANCH  17  19
ENDBRANCH  16  17
ENDBRANCH  15  16
ENDBRANCH   2  15
TORSDOF 8
ENDMDL
MODEL 4
REMARK VINA RESULT:      -7.2      1.752      2.408
REMARK  Name = 
REMARK  10 active torsions:
REMARK  status: ('A' for Active; 'I' for Inactive)
REMARK    1  A    between atoms: C_1  and  O_2
REMARK    2  A    between atoms: O_2  and  C_3
REMARK    3  A    between atoms: C_6  and  C_7
REMARK    4  A    between atoms: C_7  and  C_8
REMARK    5  A    between atoms: C_8  and  N_9
REMARK    6  A    between atoms: C_10  and  C_12
REMARK    7  A    between atoms: C_12  and  O_13
REMARK    8  A    between atoms: O_13  and  C_14
REMARK    9  A    between atoms: C_14  and  C_16
REMARK   10  A    between atoms: C_19  and  C_20
REMARK                            x       y       z     vdW  Elec       q    Type
REMARK                         _______ _______ _______ _____ _____    ______ ____
ROOT
ATOM      1  N   UNL     1       7.370   7.186  17.057  0.00  0.00    +0.000 N 
ATOM      2  C   UNL     1       7.332   5.815  17.229  0.00  0.00    +0.000 C 
ATOM      3  O   UNL     1       7.954   5.233  18.114  0.00  0.00    +0.000 OA
ATOM      4  H   UNL     1       6.925   7.587  16.240  0.00  0.00    +0.000 HD
ENDROOT
BRANCH   1   5
ATOM      5  C   UNL     1       8.114   8.015  17.991  0.00  0.00    +0.000 C 
BRANCH   5   6
ATOM      6  C   UNL     1       7.955   9.513  17.732  0.00  0.00    +0.000 C 
BRANCH   6  10
ATOM      7  C   UNL     1      11.139  11.830  19.536  0.00  0.00    +0.000 A 
ATOM      8  C   UNL     1      11.011  11.756  18.149  0.00  0.00    +0.000 A 
ATOM      9  C   UNL     1       9.978  11.017  17.567  0.00  0.00    +0.000 A 
ATOM     10  C   UNL     1       9.062  10.323  18.368  0.00  0.00    +0.000 A 
ATOM     11  C   UNL     1       9.215  10.371  19.760  0.00  0.00    +0.000 A 
ATOM     12  C   UNL     1      10.247  11.122  20.342  0.00  0.00    +0.000 A 
BRANCH   7  14
ATOM     13  C   UNL     1      12.186  13.950  19.584  0.00  0.00    +0.000 C 
ATOM     14  O   UNL     1      12.187  12.585  19.985  0.00  0.00    +0.000 OA
ENDBRANCH   7  14
ENDBRANCH   6  10
ENDBRANCH   5   6
ENDBRANCH   1   5
BRANCH   2  15
ATOM     15  C   UNL     1       6.515   5.061  16.180  0.00  0.00    +0.000 C 
BRANCH  15  16
ATOM     16  O   UNL     1       5.395   4.362  16.725  0.00  0.00    +0.000 OA
BRANCH  16  17
ATOM     17  C   UNL     1       4.417   5.156  17.235  0.00  0.00    +0.000 C 
ATOM     18  O   UNL     1       4.177   6.303  16.896  0.00  0.00    +0.000 OA
BRANCH  17  19
ATOM     19  C   UNL     1       3.670   4.444  18.303  0.00  0.00    +0.000 A 
ATOM     20  C   UNL     1       2.355   4.801  18.557  0.00  0.00    +0.000 A 
ATOM     21  N   UNL     1       1.631   4.252  19.568  0.00  0.00    +0.000 NA
ATOM     22  C   UNL     1       2.271   3.321  20.317  0.00  0.00    +0.000 A 
ATOM     23  C   UNL     1       1.532   2.721  21.474  0.00  0.00    +0.000 C 
ATOM     24  C   UNL     1       3.576   2.933  20.027  0.00  0.00    +0.000 A 
ATOM     25  N   UNL     1       4.307   3.481  19.027  0.00  0.00    +0.000 NA
ENDBRANCH  17  19
ENDBRANCH  16  17
ENDBRANCH  15  16
ENDBRANCH   2  15
TORSDOF 8
ENDMDL
MODEL 5
REMARK VINA RESULT:      -7.1      1.700      2.280
REMARK  Name = 
REMARK  10 active torsions:
REMARK  status: ('A' for Active; 'I' for Inactive)
REMARK    1  A    between atoms: C_1  and  O_2
REMARK    2  A    between atoms: O_2  and  C_3
REMARK    3  A    between atoms: C_6  and  C_7
REMARK    4  A    between atoms: C_7  and  C_8
REMARK    5  A    between atoms: C_8  and  N_9
REMARK    6  A    between atoms: C_10  and  C_12
REMARK    7  A    between atoms: C_12  and  O_13
REMARK    8  A    between atoms: O_13  and  C_14
REMARK    9  A    between atoms: C_14  and  C_16
REMARK   10  A    between atoms: C_19  and  C_20
REMARK                            x       y       z     vdW  Elec       q    Type
REMARK                         _______ _______ _______ _____ _____    ______ ____
ROOT
ATOM      1  N   UNL     1       6.835   7.457  17.457  0.00  0.00    +0.000 N 
ATOM      2  C   UNL     1       6.927   6.360  16.622  0.00  0.00    +0.000 C 
ATOM      3  O   UNL     1       7.781   6.254  15.744  0.00  0.00    +0.000 OA
ATOM      4  H   UNL     1       6.039   7.528  18.081  0.00  0.00    +0.000 HD
ENDROOT
BRANCH   1   5
ATOM      5  C   UNL     1       7.818   8.523  17.369  0.00  0.00    +0.000 C 
BRANCH   5   6
ATOM      6  C   UNL     1       8.608   8.729  18.661  0.00  0.00    +0.000 C 
BRANCH   6  10
ATOM      7  C   UNL     1       9.812  12.852  19.220  0.00  0.00    +0.000 A 
ATOM      8  C   UNL     1      10.015  11.908  20.228  0.00  0.00    +0.000 A 
ATOM      9  C   UNL     1       9.636  10.577  20.043  0.00  0.00    +0.000 A 
ATOM     10  C   UNL     1       9.029  10.168  18.849  0.00  0.00    +0.000 A 
ATOM     11  C   UNL     1       8.796  11.126  17.852  0.00  0.00    +0.000 A 
ATOM     12  C   UNL     1       9.187  12.460  18.036  0.00  0.00    +0.000 A 
BRANCH   7  14
ATOM     13  C   UNL     1      10.606  14.925  18.407  0.00  0.00    +0.000 C 
ATOM     14  O   UNL     1      10.227  14.120  19.518  0.00  0.00    +0.000 OA
ENDBRANCH   7  14
ENDBRANCH   6  10
ENDBRANCH   5   6
ENDBRANCH   1   5
BRANCH   2  15
ATOM     15  C   UNL     1       5.832   5.311  16.818  0.00  0.00    +0.000 C 
BRANCH  15  16
ATOM     16  O   UNL     1       6.160   4.320  17.792  0.00  0.00    +0.000 OA
BRANCH  16  17
ATOM     17  C   UNL     1       5.935   4.688  19.081  0.00  0.00    +0.000 C 
ATOM     18  O   UNL     1       6.742   5.219  19.826  0.00  0.00    +0.000 OA
BRANCH  17  19
ATOM     19  C   UNL     1       4.552   4.332  19.491  0.00  0.00    +0.000 A 
ATOM     20  C   UNL     1       4.193   2.994  19.556  0.00  0.00    +0.000 A 
ATOM     21  N   UNL     1       2.928   2.591  19.846  0.00  0.00    +0.000 NA
ATOM     22  C   UNL     1       2.029   3.578  20.077  0.00  0.00    +0.000 A 
ATOM     23  C   UNL     1       0.609   3.187  20.353  0.00  0.00    +0.000 C 
ATOM     24  C   UNL     1       2.407   4.918  20.057  0.00  0.00    +0.000 A 
ATOM     25  N   UNL     1       3.663   5.329  19.760  0.00  0.00    +0.000 NA
ENDBRANCH  17  19
ENDBRANCH  16  17
ENDBRANCH  15  16
ENDBRANCH   2  15
TORSDOF 8
ENDMDL
MODEL 6
REMARK VINA RESULT:      -7.0      1.720      2.028
REMARK  Name = 
REMARK  10 active torsions:
REMARK  status: ('A' for Active; 'I' for Inactive)
REMARK    1  A    between atoms: C_1  and  O_2
REMARK    2  A    between atoms: O_2  and  C_3
REMARK    3  A    between atoms: C_6  and  C_7
REMARK    4  A    between atoms: C_7  and  C_8
REMARK    5  A    between atoms: C_8  and  N_9
REMARK    6  A    between atoms: C_10  and  C_12
REMARK    7  A    between atoms: C_12  and  O_13
REMARK    8  A    between atoms: O_13  and  C_14
REMARK    9  A    between atoms: C_14  and  C_16
REMARK   10  A    between atoms: C_19  and  C_20
REMARK                            x       y       z     vdW  Elec       q    Type
REMARK                         _______ _______ _______ _____ _____    ______ ____
ROOT
ATOM      1  N   UNL     1       7.782   7.163  17.124  0.00  0.00    +0.000 N 
ATOM      2  C   UNL     1       6.656   6.590  16.565  0.00  0.00    +0.000 C 
ATOM      3  O   UNL     1       5.576   7.171  16.487  0.00  0.00    +0.000 OA
ATOM      4  H   UNL     1       8.606   6.588  17.257  0.00  0.00    +0.000 HD
ENDROOT
BRANCH   1   5
ATOM      5  C   UNL     1       7.744   8.539  17.589  0.00  0.00    +0.000 C 
BRANCH   5   6
ATOM      6  C   UNL     1       8.673   8.806  18.773  0.00  0.00    +0.000 C 
BRANCH   6  10
ATOM      7  C   UNL     1       9.940  12.946  18.930  0.00  0.00    +0.000 A 
ATOM      8  C   UNL     1       9.137  12.487  17.887  0.00  0.00    +0.000 A 
ATOM      9  C   UNL     1       8.720  11.154  17.841  0.00  0.00    +0.000 A 
ATOM     10  C   UNL     1       9.116  10.250  18.835  0.00  0.00    +0.000 A 
ATOM     11  C   UNL     1       9.951  10.707  19.864  0.00  0.00    +0.000 A 
ATOM     12  C   UNL     1      10.360  12.048  19.912  0.00  0.00    +0.000 A 
BRANCH   7  14
ATOM     13  C   UNL     1      10.137  15.005  20.075  0.00  0.00    +0.000 C 
ATOM     14  O   UNL     1      10.280  14.269  18.866  0.00  0.00    +0.000 OA
ENDBRANCH   7  14
ENDBRANCH   6  10
ENDBRANCH   5   6
ENDBRANCH   1   5
BRANCH   2  15
ATOM     15  C   UNL     1       6.831   5.140  16.116  0.00  0.00    +0.000 C 
BRANCH  15  16
ATOM     16  O   UNL     1       6.060   4.210  16.879  0.00  0.00    +0.000 OA
BRANCH  16  17
ATOM     17  C   UNL     1       6.150   4.363  18.226  0.00  0.00    +0.000 C 
ATOM     18  O   UNL     1       7.178   4.538  18.860  0.00  0.00    +0.000 OA
BRANCH  17  19
ATOM     19  C   UNL     1       4.807   4.262  18.853  0.00  0.00    +0.000 A 
ATOM     20  C   UNL     1       4.090   3.083  18.722  0.00  0.00    +0.000 A 
ATOM     21  N   UNL     1       2.825   2.941  19.198  0.00  0.00    +0.000 NA
ATOM     22  C   UNL     1       2.300   4.024  19.821  0.00  0.00    +0.000 A 
ATOM     23  C   UNL     1       0.891   3.934  20.321  0.00  0.00    +0.000 C 
ATOM     24  C   UNL     1       3.043   5.190  19.991  0.00  0.00    +0.000 A 
ATOM     25  N   UNL     1       4.301   5.343  19.511  0.00  0.00    +0.000 NA
ENDBRANCH  17  19
ENDBRANCH  16  17
ENDBRANCH  15  16
ENDBRANCH   2  15
TORSDOF 8
ENDMDL
MODEL 7
REMARK VINA RESULT:      -6.9      2.624     10.449
REMARK  Name = 
REMARK  10 active torsions:
REMARK  status: ('A' for Active; 'I' for Inactive)
REMARK    1  A    between atoms: C_1  and  O_2
REMARK    2  A    between atoms: O_2  and  C_3
REMARK    3  A    between atoms: C_6  and  C_7
REMARK    4  A    between atoms: C_7  and  C_8
REMARK    5  A    between atoms: C_8  and  N_9
REMARK    6  A    between atoms: C_10  and  C_12
REMARK    7  A    between atoms: C_12  and  O_13
REMARK    8  A    between atoms: O_13  and  C_14
REMARK    9  A    between atoms: C_14  and  C_16
REMARK   10  A    between atoms: C_19  and  C_20
REMARK                            x       y       z     vdW  Elec       q    Type
REMARK                         _______ _______ _______ _____ _____    ______ ____
ROOT
ATOM      1  N   UNL     1       7.090   7.578  16.839  0.00  0.00    +0.000 N 
ATOM      2  C   UNL     1       7.881   7.862  17.935  0.00  0.00    +0.000 C 
ATOM      3  O   UNL     1       8.196   7.019  18.772  0.00  0.00    +0.000 OA
ATOM      4  H   UNL     1       6.776   8.343  16.253  0.00  0.00    +0.000 HD
ENDROOT
BRANCH   1   5
ATOM      5  C   UNL     1       6.650   6.215  16.593  0.00  0.00    +0.000 C 
BRANCH   5   6
ATOM      6  C   UNL     1       5.138   6.088  16.408  0.00  0.00    +0.000 C 
BRANCH   6  10
ATOM      7  C   UNL     1       3.289   3.862  19.631  0.00  0.00    +0.000 A 
ATOM      8  C   UNL     1       4.603   3.597  19.245  0.00  0.00    +0.000 A 
ATOM      9  C   UNL     1       5.203   4.322  18.213  0.00  0.00    +0.000 A 
ATOM     10  C   UNL     1       4.488   5.317  17.534  0.00  0.00    +0.000 A 
ATOM     11  C   UNL     1       3.157   5.557  17.901  0.00  0.00    +0.000 A 
ATOM     12  C   UNL     1       2.561   4.834  18.945  0.00  0.00    +0.000 A 
BRANCH   7  14
ATOM     13  C   UNL     1       1.409   2.871  20.667  0.00  0.00    +0.000 C 
ATOM     14  O   UNL     1       2.815   3.089  20.654  0.00  0.00    +0.000 OA
ENDBRANCH   7  14
ENDBRANCH   6  10
ENDBRANCH   5   6
ENDBRANCH   1   5
BRANCH   2  15
ATOM     15  C   UNL     1       8.275   9.332  18.077  0.00  0.00    +0.000 C 
BRANCH  15  16
ATOM     16  O   UNL     1       9.447   9.535  18.868  0.00  0.00    +0.000 OA
BRANCH  16  17
ATOM     17  C   UNL     1       9.408  10.624  19.679  0.00  0.00    +0.000 C 
ATOM     18  O   UNL     1       8.976  10.652  20.820  0.00  0.00    +0.000 OA
BRANCH  17  19
ATOM     19  C   UNL     1       9.949  11.817  18.978  0.00  0.00    +0.000 A 
ATOM     20  C   UNL     1       9.259  13.017  19.062  0.00  0.00    +0.000 A 
ATOM     21  N   UNL     1       9.647  14.131  18.386  0.00  0.00    +0.000 NA
ATOM     22  C   UNL     1      10.760  14.004  17.623  0.00  0.00    +0.000 A 
ATOM     23  C   UNL     1      11.200  15.190  16.820  0.00  0.00    +0.000 C 
ATOM     24  C   UNL     1      11.474  12.809  17.580  0.00  0.00    +0.000 A 
ATOM     25  N   UNL     1      11.090  11.692  18.244  0.00  0.00    +0.000 NA
ENDBRANCH  17  19
ENDBRANCH  16  17
ENDBRANCH  15  16
ENDBRANCH   2  15
TORSDOF 8
ENDMDL
MODEL 8
REMARK VINA RESULT:      -6.8      5.826      8.570
REMARK  Name = 
REMARK  10 active torsions:
REMARK  status: ('A' for Active; 'I' for Inactive)
REMARK    1  A    between atoms: C_1  and  O_2
REMARK    2  A    between atoms: O_2  and  C_3
REMARK    3  A    between atoms: C_6  and  C_7
REMARK    4  A    between atoms: C_7  and  C_8
REMARK    5  A    between atoms: C_8  and  N_9
REMARK    6  A    between atoms: C_10  and  C_12
REMARK    7  A    between atoms: C_12  and  O_13
REMARK    8  A    between atoms: O_13  and  C_14
REMARK    9  A    between atoms: C_14  and  C_16
REMARK   10  A    between atoms: C_19  and  C_20
REMARK                            x       y       z     vdW  Elec       q    Type
REMARK                         _______ _______ _______ _____ _____    ______ ____
ROOT
ATOM      1  N   UNL     1       1.544   4.905  19.785  0.00  0.00    +0.000 N 
ATOM      2  C   UNL     1       1.381   3.615  20.251  0.00  0.00    +0.000 C 
ATOM      3  O   UNL     1       1.370   3.330  21.446  0.00  0.00    +0.000 OA
ATOM      4  H   UNL     1       1.656   5.053  18.788  0.00  0.00    +0.000 HD
ENDROOT
BRANCH   1   5
ATOM      5  C   UNL     1       1.638   6.011  20.723  0.00  0.00    +0.000 C 
BRANCH   5   6
ATOM      6  C   UNL     1       1.947   7.350  20.054  0.00  0.00    +0.000 C 
BRANCH   6  10
ATOM      7  C   UNL     1       0.055  10.657  22.115  0.00  0.00    +0.000 A 
ATOM      8  C   UNL     1       0.559   9.570  22.827  0.00  0.00    +0.000 A 
ATOM      9  C   UNL     1       1.178   8.508  22.163  0.00  0.00    +0.000 A 
ATOM     10  C   UNL     1       1.288   8.509  20.767  0.00  0.00    +0.000 A 
ATOM     11  C   UNL     1       0.750   9.588  20.052  0.00  0.00    +0.000 A 
ATOM     12  C   UNL     1       0.139  10.657  20.722  0.00  0.00    +0.000 A 
BRANCH   7  14
ATOM     13  C   UNL     1      -1.935  11.539  23.037  0.00  0.00    +0.000 C 
ATOM     14  O   UNL     1      -0.525  11.635  22.875  0.00  0.00    +0.000 OA
ENDBRANCH   7  14
ENDBRANCH   6  10
ENDBRANCH   5   6
ENDBRANCH   1   5
BRANCH   2  15
ATOM     15  C   UNL     1       1.294   2.546  19.162  0.00  0.00    +0.000 C 
BRANCH  15  16
ATOM     16  O   UNL     1       2.149   2.799  18.046  0.00  0.00    +0.000 OA
BRANCH  16  17
ATOM     17  C   UNL     1       3.401   2.282  18.157  0.00  0.00    +0.000 C 
ATOM     18  O   UNL     1       3.678   1.121  18.410  0.00  0.00    +0.000 OA
BRANCH  17  19
ATOM     19  C   UNL     1       4.422   3.342  17.950  0.00  0.00    +0.000 A 
ATOM     20  C   UNL     1       4.937   4.005  19.054  0.00  0.00    +0.000 A 
ATOM     21  N   UNL     1       5.814   5.037  18.943  0.00  0.00    +0.000 NA
ATOM     22  C   UNL     1       6.167   5.382  17.680  0.00  0.00    +0.000 A 
ATOM     23  C   UNL     1       7.093   6.546  17.502  0.00  0.00    +0.000 C 
ATOM     24  C   UNL     1       5.682   4.682  16.578  0.00  0.00    +0.000 A 
ATOM     25  N   UNL     1       4.802   3.658  16.680  0.00  0.00    +0.000 NA
ENDBRANCH  17  19
ENDBRANCH  16  17
ENDBRANCH  15  16
ENDBRANCH   2  15
TORSDOF 8
ENDMDL
MODEL 9
REMARK VINA RESULT:      -6.8      2.445      2.989
REMARK  Name = 
REMARK  10 active torsions:
REMARK  status: ('A' for Active; 'I' for Inactive)
REMARK    1  A    between atoms: C_1  and  O_2
REMARK    2  A    between atoms: O_2  and  C_3
REMARK    3  A    between atoms: C_6  and  C_7
REMARK    4  A    between atoms: C_7  and  C_8
REMARK    5  A    between atoms: C_8  and  N_9
REMARK    6  A    between atoms: C_10  and  C_12
REMARK    7  A    between atoms: C_12  and  O_13
REMARK    8  A    between atoms: O_13  and  C_14
REMARK    9  A    between atoms: C_14  and  C_16
REMARK   10  A    between atoms: C_19  and  C_20
REMARK                            x       y       z     vdW  Elec       q    Type
REMARK                         _______ _______ _______ _____ _____    ______ ____
ROOT
ATOM      1  N   UNL     1       7.130   6.907  17.808  0.00  0.00    +0.000 N 
ATOM      2  C   UNL     1       7.154   5.937  16.825  0.00  0.00    +0.000 C 
ATOM      3  O   UNL     1       7.672   6.110  15.724  0.00  0.00    +0.000 OA
ATOM      4  H   UNL     1       6.589   6.736  18.648  0.00  0.00    +0.000 HD
ENDROOT
BRANCH   1   5
ATOM      5  C   UNL     1       7.801   8.178  17.593  0.00  0.00    +0.000 C 
BRANCH   5   6
ATOM      6  C   UNL     1       8.729   8.577  18.739  0.00  0.00    +0.000 C 
BRANCH   6  10
ATOM      7  C   UNL     1       9.396  12.855  18.865  0.00  0.00    +0.000 A 
ATOM      8  C   UNL     1       8.760  12.267  17.773  0.00  0.00    +0.000 A 
ATOM      9  C   UNL     1       8.536  10.888  17.737  0.00  0.00    +0.000 A 
ATOM     10  C   UNL     1       8.962  10.070  18.791  0.00  0.00    +0.000 A 
ATOM     11  C   UNL     1       9.632  10.661  19.871  0.00  0.00    +0.000 A 
ATOM     12  C   UNL     1       9.846  12.047  19.909  0.00  0.00    +0.000 A 
BRANCH   7  14
ATOM     13  C   UNL     1      10.838  14.708  19.149  0.00  0.00    +0.000 C 
ATOM     14  O   UNL     1       9.555  14.211  18.786  0.00  0.00    +0.000 OA
ENDBRANCH   7  14
ENDBRANCH   6  10
ENDBRANCH   5   6
ENDBRANCH   1   5
BRANCH   2  15
ATOM     15  C   UNL     1       6.413   4.648  17.178  0.00  0.00    +0.000 C 
BRANCH  15  16
ATOM     16  O   UNL     1       5.808   4.674  18.472  0.00  0.00    +0.000 OA
BRANCH  16  17
ATOM     17  C   UNL     1       4.467   4.454  18.481  0.00  0.00    +0.000 C 
ATOM     18  O   UNL     1       3.919   3.368  18.389  0.00  0.00    +0.000 OA
BRANCH  17  19
ATOM     19  C   UNL     1       3.729   5.739  18.596  0.00  0.00    +0.000 A 
ATOM     20  C   UNL     1       2.903   5.944  19.691  0.00  0.00    +0.000 A 
ATOM     21  N   UNL     1       2.135   7.057  19.828  0.00  0.00    +0.000 NA
ATOM     22  C   UNL     1       2.229   7.969  18.829  0.00  0.00    +0.000 A 
ATOM     23  C   UNL     1       1.366   9.191  18.909  0.00  0.00    +0.000 C 
ATOM     24  C   UNL     1       3.096   7.778  17.756  0.00  0.00    +0.000 A 
ATOM     25  N   UNL     1       3.857   6.667  17.607  0.00  0.00    +0.000 NA
ENDBRANCH  17  19
ENDBRANCH  16  17
ENDBRANCH  15  16
ENDBRANCH   2  15
TORSDOF 8
ENDMDL
