MODEL 1
REMARK VINA RESULT:      -8.8      0.000      0.000
REMARK  Name = 
REMARK  5 active torsions:
REMARK  status: ('A' for Active; 'I' for Inactive)
REMARK    1  A    between atoms: O_1  and  C_2
REMARK    2  A    between atoms: C_7  and  C_8
REMARK    3  A    between atoms: C_17  and  N_18
REMARK    4  A    between atoms: N_18  and  C_19
REMARK    5  A    between atoms: C_19  and  C_20
REMARK                            x       y       z     vdW  Elec       q    Type
REMARK                         _______ _______ _______ _____ _____    ______ ____
ROOT
ATOM      1  C   UNL     1       6.995   5.449  15.706  0.00  0.00    +0.000 A 
ATOM      2  N   UNL     1       7.807   5.491  14.591  0.00  0.00    +0.000 NA
ATOM      3  C   UNL     1       7.163   4.842  13.654  0.00  0.00    +0.000 A 
ATOM      4  C   UNL     1       7.491   4.628  12.284  0.00  0.00    +0.000 A 
ATOM      5  C   UNL     1       6.674   3.893  11.504  0.00  0.00    +0.000 A 
ATOM      6  C   UNL     1       5.454   3.307  12.036  0.00  0.00    +0.000 A 
ATOM      7 CL   UNL     1       4.458   2.369  11.002  0.00  0.00    +0.000 Cl
ATOM      8  C   UNL     1       5.125   3.528  13.317  0.00  0.00    +0.000 A 
ATOM      9  N   UNL     1       5.973   4.299  14.124  0.00  0.00    +0.000 N 
ATOM     10  C   UNL     1       5.833   4.709  15.453  0.00  0.00    +0.000 A 
ENDROOT
BRANCH   1  16
ATOM     11  C   UNL     1       7.586   5.443  18.145  0.00  0.00    +0.000 A 
ATOM     12  C   UNL     1       8.088   6.101  19.273  0.00  0.00    +0.000 A 
ATOM     13  C   UNL     1       8.389   7.460  19.211  0.00  0.00    +0.000 A 
ATOM     14  C   UNL     1       8.111   8.177  18.053  0.00  0.00    +0.000 A 
ATOM     15  C   UNL     1       7.551   7.529  16.949  0.00  0.00    +0.000 A 
ATOM     16  C   UNL     1       7.357   6.137  16.945  0.00  0.00    +0.000 A 
BRANCH  11  17
ATOM     17  O   UNL     1       7.371   4.094  18.231  0.00  0.00    +0.000 OA
ATOM     18  H   UNL     1       6.614   3.934  18.816  0.00  0.00    +0.000 HD
ENDBRANCH  11  17
ENDBRANCH   1  16
BRANCH  10  19
ATOM     19  N   UNL     1       4.710   4.372  16.170  0.00  0.00    +0.000 N 
ATOM     20  H   UNL     1       4.128   5.093  16.587  0.00  0.00    +0.000 HD
BRANCH  19  21
ATOM     21  C   UNL     1       4.552   3.087  16.829  0.00  0.00    +0.000 C 
BRANCH  21  22
ATOM     22  C   UNL     1       3.527   3.179  17.926  0.00  0.00    +0.000 A 
ATOM     23  C   UNL     1       2.212   3.620  17.659  0.00  0.00    +0.000 A 
ATOM     24  C   UNL     1       1.255   3.656  18.677  0.00  0.00    +0.000 A 
ATOM     25  C   UNL     1       1.644   3.256  19.936  0.00  0.00    +0.000 A 
ATOM     26  C   UNL     1       2.927   2.839  20.205  0.00  0.00    +0.000 A 
ATOM     27  C   UNL     1       3.891   2.798  19.227  0.00  0.00    +0.000 A 
ATOM     28  O   UNL     1       3.101   2.481  21.503  0.00  0.00    +0.000 OA
ATOM     29  C   UNL     1       1.782   2.726  22.028  0.00  0.00    +0.000 C 
ATOM     30  O   UNL     1       0.849   3.212  21.040  0.00  0.00    +0.000 OA
ENDBRANCH  21  22
ENDBRANCH  19  21
ENDBRANCH  10  19
TORSDOF 5
ENDMDL
MODEL 2
REMARK VINA RESULT:      -8.6      1.994      2.287
REMARK  Name = 
REMARK  5 active torsions:
REMARK  status: ('A' for Active; 'I' for Inactive)
REMARK    1  A    between atoms: O_1  and  C_2
REMARK    2  A    between atoms: C_7  and  C_8
REMARK    3  A    between atoms: C_17  and  N_18
REMARK    4  A    between atoms: N_18  and  C_19
REMARK    5  A    between atoms: C_19  and  C_20
REMARK                            x       y       z     vdW  Elec       q    Type
REMARK                         _______ _______ _______ _____ _____    ______ ____
ROOT
ATOM      1  C   UNL     1       6.890   5.414  15.743  0.00  0.00    +0.000 A 
ATOM      2  N   UNL     1       7.760   5.245  14.686  0.00  0.00    +0.000 NA
ATOM      3  C   UNL     1       7.067   4.661  13.741  0.00  0.00    +0.000 A 
ATOM      4  C   UNL     1       7.432   4.308  12.409  0.00  0.00    +0.000 A 
ATOM      5  C   UNL     1       6.543   3.679  11.614  0.00  0.00    +0.000 A 
ATOM      6  C   UNL     1       5.211   3.348  12.090  0.00  0.00    +0.000 A 
ATOM      7 CL   UNL     1       4.126   2.535  11.041  0.00  0.00    +0.000 Cl
ATOM      8  C   UNL     1       4.851   3.702  13.334  0.00  0.00    +0.000 A 
ATOM      9  N   UNL     1       5.775   4.363  14.156  0.00  0.00    +0.000 N 
ATOM     10  C   UNL     1       5.631   4.873  15.450  0.00  0.00    +0.000 A 
ENDROOT
BRANCH   1  16
ATOM     11  C   UNL     1       7.594   5.411  18.152  0.00  0.00    +0.000 A 
ATOM     12  C   UNL     1       8.135   6.075  19.259  0.00  0.00    +0.000 A 
ATOM     13  C   UNL     1       8.404   7.439  19.190  0.00  0.00    +0.000 A 
ATOM     14  C   UNL     1       8.059   8.156  18.050  0.00  0.00    +0.000 A 
ATOM     15  C   UNL     1       7.460   7.500  16.969  0.00  0.00    +0.000 A 
ATOM     16  C   UNL     1       7.295   6.105  16.967  0.00  0.00    +0.000 A 
BRANCH  11  17
ATOM     17  O   UNL     1       7.410   4.057  18.242  0.00  0.00    +0.000 OA
ATOM     18  H   UNL     1       7.201   3.711  17.361  0.00  0.00    +0.000 HD
ENDBRANCH  11  17
ENDBRANCH   1  16
BRANCH  10  19
ATOM     19  N   UNL     1       4.427   4.781  16.105  0.00  0.00    +0.000 N 
ATOM     20  H   UNL     1       3.726   5.510  16.002  0.00  0.00    +0.000 HD
BRANCH  19  21
ATOM     21  C   UNL     1       4.251   4.017  17.327  0.00  0.00    +0.000 C 
BRANCH  21  22
ATOM     22  C   UNL     1       3.449   4.801  18.330  0.00  0.00    +0.000 A 
ATOM     23  C   UNL     1       2.971   4.196  19.513  0.00  0.00    +0.000 A 
ATOM     24  C   UNL     1       2.268   4.946  20.460  0.00  0.00    +0.000 A 
ATOM     25  C   UNL     1       2.056   6.279  20.191  0.00  0.00    +0.000 A 
ATOM     26  C   UNL     1       2.507   6.871  19.035  0.00  0.00    +0.000 A 
ATOM     27  C   UNL     1       3.196   6.159  18.083  0.00  0.00    +0.000 A 
ATOM     28  O   UNL     1       2.202   8.192  18.967  0.00  0.00    +0.000 OA
ATOM     29  C   UNL     1       1.500   8.369  20.213  0.00  0.00    +0.000 C 
ATOM     30  O   UNL     1       1.407   7.162  20.998  0.00  0.00    +0.000 OA
ENDBRANCH  21  22
ENDBRANCH  19  21
ENDBRANCH  10  19
TORSDOF 5
ENDMDL
MODEL 3
REMARK VINA RESULT:      -8.6      1.177      1.231
REMARK  Name = 
REMARK  5 active torsions:
REMARK  status: ('A' for Active; 'I' for Inactive)
REMARK    1  A    between atoms: O_1  and  C_2
REMARK    2  A    between atoms: C_7  and  C_8
REMARK    3  A    between atoms: C_17  and  N_18
REMARK    4  A    between atoms: N_18  and  C_19
REMARK    5  A    between atoms: C_19  and  C_20
REMARK                            x       y       z     vdW  Elec       q    Type
REMARK                         _______ _______ _______ _____ _____    ______ ____
ROOT
ATOM      1  C   UNL     1       6.892   5.485  15.809  0.00  0.00    +0.000 A 
ATOM      2  N   UNL     1       7.759   5.274  14.756  0.00  0.00    +0.000 NA
ATOM      3  C   UNL     1       7.047   4.705  13.815  0.00  0.00    +0.000 A 
ATOM      4  C   UNL     1       7.402   4.326  12.489  0.00  0.00    +0.000 A 
ATOM      5  C   UNL     1       6.494   3.720  11.697  0.00  0.00    +0.000 A 
ATOM      6  C   UNL     1       5.149   3.442  12.173  0.00  0.00    +0.000 A 
ATOM      7 CL   UNL     1       4.039   2.657  11.129  0.00  0.00    +0.000 Cl
ATOM      8  C   UNL     1       4.800   3.821  13.412  0.00  0.00    +0.000 A 
ATOM      9  N   UNL     1       5.744   4.458  14.230  0.00  0.00    +0.000 N 
ATOM     10  C   UNL     1       5.616   4.986  15.518  0.00  0.00    +0.000 A 
ENDROOT
BRANCH   1  16
ATOM     11  C   UNL     1       7.583   5.482  18.222  0.00  0.00    +0.000 A 
ATOM     12  C   UNL     1       8.145   6.137  19.324  0.00  0.00    +0.000 A 
ATOM     13  C   UNL     1       8.470   7.489  19.240  0.00  0.00    +0.000 A 
ATOM     14  C   UNL     1       8.159   8.205  18.089  0.00  0.00    +0.000 A 
ATOM     15  C   UNL     1       7.541   7.561  17.014  0.00  0.00    +0.000 A 
ATOM     16  C   UNL     1       7.319   6.173  17.028  0.00  0.00    +0.000 A 
BRANCH  11  17
ATOM     17  O   UNL     1       7.344   4.139  18.327  0.00  0.00    +0.000 OA
ATOM     18  H   UNL     1       7.304   3.900  19.266  0.00  0.00    +0.000 HD
ENDBRANCH  11  17
ENDBRANCH   1  16
BRANCH  10  19
ATOM     19  N   UNL     1       4.408   4.944  16.171  0.00  0.00    +0.000 N 
ATOM     20  H   UNL     1       3.644   4.381  15.808  0.00  0.00    +0.000 HD
BRANCH  19  21
ATOM     21  C   UNL     1       3.940   6.016  17.033  0.00  0.00    +0.000 C 
BRANCH  21  22
ATOM     22  C   UNL     1       3.415   5.460  18.328  0.00  0.00    +0.000 A 
ATOM     23  C   UNL     1       2.540   6.214  19.142  0.00  0.00    +0.000 A 
ATOM     24  C   UNL     1       2.021   5.669  20.320  0.00  0.00    +0.000 A 
ATOM     25  C   UNL     1       2.398   4.388  20.654  0.00  0.00    +0.000 A 
ATOM     26  C   UNL     1       3.260   3.655  19.873  0.00  0.00    +0.000 A 
ATOM     27  C   UNL     1       3.792   4.164  18.713  0.00  0.00    +0.000 A 
ATOM     28  O   UNL     1       3.497   2.415  20.373  0.00  0.00    +0.000 OA
ATOM     29  C   UNL     1       2.690   2.450  21.566  0.00  0.00    +0.000 C 
ATOM     30  O   UNL     1       1.985   3.695  21.749  0.00  0.00    +0.000 OA
ENDBRANCH  21  22
ENDBRANCH  19  21
ENDBRANCH  10  19
TORSDOF 5
ENDMDL
MODEL 4
REMARK VINA RESULT:      -8.4      2.421      2.621
REMARK  Name = 
REMARK  5 active torsions:
REMARK  status: ('A' for Active; 'I' for Inactive)
REMARK    1  A    between atoms: O_1  and  C_2
REMARK    2  A    between atoms: C_7  and  C_8
REMARK    3  A    between atoms: C_17  and  N_18
REMARK    4  A    between atoms: N_18  and  C_19
REMARK    5  A    between atoms: C_19  and  C_20
REMARK                            x       y       z     vdW  Elec       q    Type
REMARK                         _______ _______ _______ _____ _____    ______ ____
ROOT
ATOM      1  C   UNL     1       6.895   5.415  15.742  0.00  0.00    +0.000 A 
ATOM      2  N   UNL     1       7.755   5.288  14.671  0.00  0.00    +0.000 NA
ATOM      3  C   UNL     1       7.065   4.701  13.725  0.00  0.00    +0.000 A 
ATOM      4  C   UNL     1       7.421   4.381  12.383  0.00  0.00    +0.000 A 
ATOM      5  C   UNL     1       6.540   3.740  11.589  0.00  0.00    +0.000 A 
ATOM      6  C   UNL     1       5.223   3.364  12.078  0.00  0.00    +0.000 A 
ATOM      7 CL   UNL     1       4.147   2.538  11.029  0.00  0.00    +0.000 Cl
ATOM      8  C   UNL     1       4.871   3.686  13.332  0.00  0.00    +0.000 A 
ATOM      9  N   UNL     1       5.788   4.360  14.153  0.00  0.00    +0.000 N 
ATOM     10  C   UNL     1       5.648   4.843  15.457  0.00  0.00    +0.000 A 
ENDROOT
BRANCH   1  16
ATOM     11  C   UNL     1       7.627   5.392  18.143  0.00  0.00    +0.000 A 
ATOM     12  C   UNL     1       8.165   6.051  19.254  0.00  0.00    +0.000 A 
ATOM     13  C   UNL     1       8.401   7.423  19.203  0.00  0.00    +0.000 A 
ATOM     14  C   UNL     1       8.025   8.148  18.078  0.00  0.00    +0.000 A 
ATOM     15  C   UNL     1       7.429   7.495  16.995  0.00  0.00    +0.000 A 
ATOM     16  C   UNL     1       7.298   6.096  16.973  0.00  0.00    +0.000 A 
BRANCH  11  17
ATOM     17  O   UNL     1       7.478   4.033  18.213  0.00  0.00    +0.000 OA
ATOM     18  H   UNL     1       7.538   3.664  17.318  0.00  0.00    +0.000 HD
ENDBRANCH  11  17
ENDBRANCH   1  16
BRANCH  10  19
ATOM     19  N   UNL     1       4.457   4.707  16.126  0.00  0.00    +0.000 N 
ATOM     20  H   UNL     1       3.584   4.997  15.693  0.00  0.00    +0.000 HD
BRANCH  19  21
ATOM     21  C   UNL     1       4.366   4.673  17.576  0.00  0.00    +0.000 C 
BRANCH  21  22
ATOM     22  C   UNL     1       3.631   5.880  18.088  0.00  0.00    +0.000 A 
ATOM     23  C   UNL     1       3.584   7.077  17.339  0.00  0.00    +0.000 A 
ATOM     24  C   UNL     1       2.858   8.177  17.803  0.00  0.00    +0.000 A 
ATOM     25  C   UNL     1       2.204   8.051  19.008  0.00  0.00    +0.000 A 
ATOM     26  C   UNL     1       2.256   6.893  19.748  0.00  0.00    +0.000 A 
ATOM     27  C   UNL     1       2.967   5.797  19.322  0.00  0.00    +0.000 A 
ATOM     28  O   UNL     1       1.539   6.973  20.897  0.00  0.00    +0.000 OA
ATOM     29  C   UNL     1       1.030   8.317  20.804  0.00  0.00    +0.000 C 
ATOM     30  O   UNL     1       1.442   9.007  19.605  0.00  0.00    +0.000 OA
ENDBRANCH  21  22
ENDBRANCH  19  21
ENDBRANCH  10  19
TORSDOF 5
ENDMDL
MODEL 5
REMARK VINA RESULT:      -8.2      4.377      6.754
REMARK  Name = 
REMARK  5 active torsions:
REMARK  status: ('A' for Active; 'I' for Inactive)
REMARK    1  A    between atoms: O_1  and  C_2
REMARK    2  A    between atoms: C_7  and  C_8
REMARK    3  A    between atoms: C_17  and  N_18
REMARK    4  A    between atoms: N_18  and  C_19
REMARK    5  A    between atoms: C_19  and  C_20
REMARK                            x       y       z     vdW  Elec       q    Type
REMARK                         _______ _______ _______ _____ _____    ______ ____
ROOT
ATOM      1  C   UNL     1       4.151   4.593  18.956  0.00  0.00    +0.000 A 
ATOM      2  N   UNL     1       5.390   4.289  19.480  0.00  0.00    +0.000 NA
ATOM      3  C   UNL     1       6.191   5.246  19.085  0.00  0.00    +0.000 A 
ATOM      4  C   UNL     1       7.565   5.485  19.382  0.00  0.00    +0.000 A 
ATOM      5  C   UNL     1       8.198   6.538  18.829  0.00  0.00    +0.000 A 
ATOM      6  C   UNL     1       7.505   7.443  17.927  0.00  0.00    +0.000 A 
ATOM      7 CL   UNL     1       8.363   8.759  17.241  0.00  0.00    +0.000 Cl
ATOM      8  C   UNL     1       6.204   7.241  17.665  0.00  0.00    +0.000 A 
ATOM      9  N   UNL     1       5.546   6.148  18.248  0.00  0.00    +0.000 N 
ATOM     10  C   UNL     1       4.207   5.755  18.175  0.00  0.00    +0.000 A 
ENDROOT
BRANCH   1  16
ATOM     11  C   UNL     1       2.203   3.963  20.408  0.00  0.00    +0.000 A 
ATOM     12  C   UNL     1       0.993   3.284  20.587  0.00  0.00    +0.000 A 
ATOM     13  C   UNL     1       0.524   2.423  19.597  0.00  0.00    +0.000 A 
ATOM     14  C   UNL     1       1.300   2.177  18.470  0.00  0.00    +0.000 A 
ATOM     15  C   UNL     1       2.538   2.810  18.325  0.00  0.00    +0.000 A 
ATOM     16  C   UNL     1       2.973   3.776  19.247  0.00  0.00    +0.000 A 
BRANCH  11  17
ATOM     17  O   UNL     1       2.590   4.850  21.376  0.00  0.00    +0.000 OA
ATOM     18  H   UNL     1       3.143   5.535  20.969  0.00  0.00    +0.000 HD
ENDBRANCH  11  17
ENDBRANCH   1  16
BRANCH  10  19
ATOM     19  N   UNL     1       3.301   6.500  17.460  0.00  0.00    +0.000 N 
ATOM     20  H   UNL     1       2.867   6.121  16.622  0.00  0.00    +0.000 HD
BRANCH  19  21
ATOM     21  C   UNL     1       3.284   7.952  17.480  0.00  0.00    +0.000 C 
BRANCH  21  22
ATOM     22  C   UNL     1       2.252   8.455  18.451  0.00  0.00    +0.000 A 
ATOM     23  C   UNL     1       2.099   7.861  19.724  0.00  0.00    +0.000 A 
ATOM     24  C   UNL     1       1.170   8.367  20.637  0.00  0.00    +0.000 A 
ATOM     25  C   UNL     1       0.413   9.449  20.247  0.00  0.00    +0.000 A 
ATOM     26  C   UNL     1       0.547  10.023  19.004  0.00  0.00    +0.000 A 
ATOM     27  C   UNL     1       1.448   9.545  18.083  0.00  0.00    +0.000 A 
ATOM     28  O   UNL     1      -0.284  11.081  18.822  0.00  0.00    +0.000 OA
ATOM     29  C   UNL     1      -0.966  11.107  20.091  0.00  0.00    +0.000 C 
ATOM     30  O   UNL     1      -0.526  10.079  21.003  0.00  0.00    +0.000 OA
ENDBRANCH  21  22
ENDBRANCH  19  21
ENDBRANCH  10  19
TORSDOF 5
ENDMDL
MODEL 6
REMARK VINA RESULT:      -8.2      4.489      8.045
REMARK  Name = 
REMARK  5 active torsions:
REMARK  status: ('A' for Active; 'I' for Inactive)
REMARK    1  A    between atoms: O_1  and  C_2
REMARK    2  A    between atoms: C_7  and  C_8
REMARK    3  A    between atoms: C_17  and  N_18
REMARK    4  A    between atoms: N_18  and  C_19
REMARK    5  A    between atoms: C_19  and  C_20
REMARK                            x       y       z     vdW  Elec       q    Type
REMARK                         _______ _______ _______ _____ _____    ______ ____
ROOT
ATOM      1  C   UNL     1       2.177   6.302  19.996  0.00  0.00    +0.000 A 
ATOM      2  N   UNL     1       1.495   6.689  21.131  0.00  0.00    +0.000 NA
ATOM      3  C   UNL     1       1.087   7.912  20.905  0.00  0.00    +0.000 A 
ATOM      4  C   UNL     1       0.282   8.780  21.698  0.00  0.00    +0.000 A 
ATOM      5  C   UNL     1       0.010  10.028  21.264  0.00  0.00    +0.000 A 
ATOM      6  C   UNL     1       0.528  10.511  19.995  0.00  0.00    +0.000 A 
ATOM      7 CL   UNL     1       0.164  12.111  19.499  0.00  0.00    +0.000 Cl
ATOM      8  C   UNL     1       1.264   9.690  19.231  0.00  0.00    +0.000 A 
ATOM      9  N   UNL     1       1.538   8.390  19.681  0.00  0.00    +0.000 N 
ATOM     10  C   UNL     1       2.227   7.344  19.060  0.00  0.00    +0.000 A 
ENDROOT
BRANCH   1  16
ATOM     11  C   UNL     1       1.921   3.806  19.968  0.00  0.00    +0.000 A 
ATOM     12  C   UNL     1       2.428   2.537  19.666  0.00  0.00    +0.000 A 
ATOM     13  C   UNL     1       3.741   2.400  19.222  0.00  0.00    +0.000 A 
ATOM     14  C   UNL     1       4.570   3.514  19.159  0.00  0.00    +0.000 A 
ATOM     15  C   UNL     1       4.078   4.771  19.522  0.00  0.00    +0.000 A 
ATOM     16  C   UNL     1       2.723   4.953  19.851  0.00  0.00    +0.000 A 
BRANCH  11  17
ATOM     17  O   UNL     1       0.605   3.900  20.334  0.00  0.00    +0.000 OA
ATOM     18  H   UNL     1       0.200   3.021  20.278  0.00  0.00    +0.000 HD
ENDBRANCH  11  17
ENDBRANCH   1  16
BRANCH  10  19
ATOM     19  N   UNL     1       2.741   7.502  17.796  0.00  0.00    +0.000 N 
ATOM     20  H   UNL     1       2.495   6.854  17.054  0.00  0.00    +0.000 HD
BRANCH  19  21
ATOM     21  C   UNL     1       3.995   8.188  17.536  0.00  0.00    +0.000 C 
BRANCH  21  22
ATOM     22  C   UNL     1       5.023   7.226  17.008  0.00  0.00    +0.000 A 
ATOM     23  C   UNL     1       6.297   7.118  17.609  0.00  0.00    +0.000 A 
ATOM     24  C   UNL     1       7.227   6.187  17.140  0.00  0.00    +0.000 A 
ATOM     25  C   UNL     1       6.859   5.395  16.076  0.00  0.00    +0.000 A 
ATOM     26  C   UNL     1       5.626   5.504  15.478  0.00  0.00    +0.000 A 
ATOM     27  C   UNL     1       4.692   6.413  15.912  0.00  0.00    +0.000 A 
ATOM     28  O   UNL     1       5.460   4.628  14.454  0.00  0.00    +0.000 OA
ATOM     29  C   UNL     1       6.733   3.954  14.468  0.00  0.00    +0.000 C 
ATOM     30  O   UNL     1       7.625   4.430  15.498  0.00  0.00    +0.000 OA
ENDBRANCH  21  22
ENDBRANCH  19  21
ENDBRANCH  10  19
TORSDOF 5
ENDMDL
MODEL 7
REMARK VINA RESULT:      -8.1      4.737      6.565
REMARK  Name = 
REMARK  5 active torsions:
REMARK  status: ('A' for Active; 'I' for Inactive)
REMARK    1  A    between atoms: O_1  and  C_2
REMARK    2  A    between atoms: C_7  and  C_8
REMARK    3  A    between atoms: C_17  and  N_18
REMARK    4  A    between atoms: N_18  and  C_19
REMARK    5  A    between atoms: C_19  and  C_20
REMARK                            x       y       z     vdW  Elec       q    Type
REMARK                         _______ _______ _______ _____ _____    ______ ____
ROOT
ATOM      1  C   UNL     1       2.942   7.413  18.122  0.00  0.00    +0.000 A 
ATOM      2  N   UNL     1       2.592   8.546  17.415  0.00  0.00    +0.000 NA
ATOM      3  C   UNL     1       1.868   9.268  18.232  0.00  0.00    +0.000 A 
ATOM      4  C   UNL     1       1.297  10.563  18.064  0.00  0.00    +0.000 A 
ATOM      5  C   UNL     1       0.554  11.104  19.051  0.00  0.00    +0.000 A 
ATOM      6  C   UNL     1       0.320  10.387  20.293  0.00  0.00    +0.000 A 
ATOM      7 CL   UNL     1      -0.644  11.115  21.510  0.00  0.00    +0.000 Cl
ATOM      8  C   UNL     1       0.877   9.179  20.470  0.00  0.00    +0.000 A 
ATOM      9  N   UNL     1       1.655   8.623  19.444  0.00  0.00    +0.000 N 
ATOM     10  C   UNL     1       2.372   7.423  19.402  0.00  0.00    +0.000 A 
ENDROOT
BRANCH   1  16
ATOM     11  C   UNL     1       5.195   6.613  17.360  0.00  0.00    +0.000 A 
ATOM     12  C   UNL     1       6.043   5.572  16.965  0.00  0.00    +0.000 A 
ATOM     13  C   UNL     1       5.532   4.291  16.774  0.00  0.00    +0.000 A 
ATOM     14  C   UNL     1       4.165   4.066  16.896  0.00  0.00    +0.000 A 
ATOM     15  C   UNL     1       3.312   5.123  17.229  0.00  0.00    +0.000 A 
ATOM     16  C   UNL     1       3.820   6.393  17.549  0.00  0.00    +0.000 A 
BRANCH  11  17
ATOM     17  O   UNL     1       5.753   7.839  17.602  0.00  0.00    +0.000 OA
ATOM     18  H   UNL     1       5.732   8.360  16.785  0.00  0.00    +0.000 HD
ENDBRANCH  11  17
ENDBRANCH   1  16
BRANCH  10  19
ATOM     19  N   UNL     1       2.402   6.591  20.494  0.00  0.00    +0.000 N 
ATOM     20  H   UNL     1       3.277   6.401  20.976  0.00  0.00    +0.000 HD
BRANCH  19  21
ATOM     21  C   UNL     1       1.413   5.552  20.720  0.00  0.00    +0.000 C 
BRANCH  21  22
ATOM     22  C   UNL     1       1.914   4.226  20.216  0.00  0.00    +0.000 A 
ATOM     23  C   UNL     1       1.109   3.409  19.392  0.00  0.00    +0.000 A 
ATOM     24  C   UNL     1       1.603   2.202  18.890  0.00  0.00    +0.000 A 
ATOM     25  C   UNL     1       2.887   1.843  19.234  0.00  0.00    +0.000 A 
ATOM     26  C   UNL     1       3.671   2.628  20.046  0.00  0.00    +0.000 A 
ATOM     27  C   UNL     1       3.212   3.817  20.560  0.00  0.00    +0.000 A 
ATOM     28  O   UNL     1       4.904   2.099  20.256  0.00  0.00    +0.000 OA
ATOM     29  C   UNL     1       4.809   0.885  19.486  0.00  0.00    +0.000 C 
ATOM     30  O   UNL     1       3.535   0.716  18.830  0.00  0.00    +0.000 OA
ENDBRANCH  21  22
ENDBRANCH  19  21
ENDBRANCH  10  19
TORSDOF 5
ENDMDL
MODEL 8
REMARK VINA RESULT:      -8.1      4.419      6.656
REMARK  Name = 
REMARK  5 active torsions:
REMARK  status: ('A' for Active; 'I' for Inactive)
REMARK    1  A    between atoms: O_1  and  C_2
REMARK    2  A    between atoms: C_7  and  C_8
REMARK    3  A    between atoms: C_17  and  N_18
REMARK    4  A    between atoms: N_18  and  C_19
REMARK    5  A    between atoms: C_19  and  C_20
REMARK                            x       y       z     vdW  Elec       q    Type
REMARK                         _______ _______ _______ _____ _____    ______ ____
ROOT
ATOM      1  C   UNL     1       4.176   4.646  18.749  0.00  0.00    +0.000 A 
ATOM      2  N   UNL     1       5.406   4.316  19.280  0.00  0.00    +0.000 NA
ATOM      3  C   UNL     1       6.212   5.293  18.949  0.00  0.00    +0.000 A 
ATOM      4  C   UNL     1       7.579   5.518  19.282  0.00  0.00    +0.000 A 
ATOM      5  C   UNL     1       8.221   6.599  18.796  0.00  0.00    +0.000 A 
ATOM      6  C   UNL     1       7.543   7.548  17.928  0.00  0.00    +0.000 A 
ATOM      7 CL   UNL     1       8.412   8.897  17.326  0.00  0.00    +0.000 Cl
ATOM      8  C   UNL     1       6.248   7.358  17.632  0.00  0.00    +0.000 A 
ATOM      9  N   UNL     1       5.581   6.236  18.147  0.00  0.00    +0.000 N 
ATOM     10  C   UNL     1       4.244   5.846  18.029  0.00  0.00    +0.000 A 
ENDROOT
BRANCH   1  16
ATOM     11  C   UNL     1       2.932   2.475  18.557  0.00  0.00    +0.000 A 
ATOM     12  C   UNL     1       1.862   1.653  18.927  0.00  0.00    +0.000 A 
ATOM     13  C   UNL     1       0.847   2.153  19.740  0.00  0.00    +0.000 A 
ATOM     14  C   UNL     1       0.858   3.492  20.114  0.00  0.00    +0.000 A 
ATOM     15  C   UNL     1       1.896   4.326  19.689  0.00  0.00    +0.000 A 
ATOM     16  C   UNL     1       2.994   3.814  18.976  0.00  0.00    +0.000 A 
BRANCH  11  17
ATOM     17  O   UNL     1       3.940   1.921  17.816  0.00  0.00    +0.000 OA
ATOM     18  H   UNL     1       4.682   1.709  18.404  0.00  0.00    +0.000 HD
ENDBRANCH  11  17
ENDBRANCH   1  16
BRANCH  10  19
ATOM     19  N   UNL     1       3.350   6.626  17.336  0.00  0.00    +0.000 N 
ATOM     20  H   UNL     1       2.938   6.293  16.469  0.00  0.00    +0.000 HD
BRANCH  19  21
ATOM     21  C   UNL     1       3.324   8.075  17.437  0.00  0.00    +0.000 C 
BRANCH  21  22
ATOM     22  C   UNL     1       2.299   8.515  18.446  0.00  0.00    +0.000 A 
ATOM     23  C   UNL     1       2.125   7.815  19.661  0.00  0.00    +0.000 A 
ATOM     24  C   UNL     1       1.204   8.262  20.611  0.00  0.00    +0.000 A 
ATOM     25  C   UNL     1       0.476   9.393  20.316  0.00  0.00    +0.000 A 
ATOM     26  C   UNL     1       0.631  10.070  19.130  0.00  0.00    +0.000 A 
ATOM     27  C   UNL     1       1.524   9.653  18.173  0.00  0.00    +0.000 A 
ATOM     28  O   UNL     1      -0.173  11.160  19.039  0.00  0.00    +0.000 OA
ATOM     29  C   UNL     1      -0.861  11.092  20.303  0.00  0.00    +0.000 C 
ATOM     30  O   UNL     1      -0.451   9.977  21.122  0.00  0.00    +0.000 OA
ENDBRANCH  21  22
ENDBRANCH  19  21
ENDBRANCH  10  19
TORSDOF 5
ENDMDL
MODEL 9
REMARK VINA RESULT:      -8.0      8.173     10.084
REMARK  Name = 
REMARK  5 active torsions:
REMARK  status: ('A' for Active; 'I' for Inactive)
REMARK    1  A    between atoms: O_1  and  C_2
REMARK    2  A    between atoms: C_7  and  C_8
REMARK    3  A    between atoms: C_17  and  N_18
REMARK    4  A    between atoms: N_18  and  C_19
REMARK    5  A    between atoms: C_19  and  C_20
REMARK                            x       y       z     vdW  Elec       q    Type
REMARK                         _______ _______ _______ _____ _____    ______ ____
ROOT
ATOM      1  C   UNL     1       0.491   9.578  20.253  0.00  0.00    +0.000 A 
ATOM      2  N   UNL     1       0.763   8.346  20.812  0.00  0.00    +0.000 NA
ATOM      3  C   UNL     1       1.639   7.779  20.021  0.00  0.00    +0.000 A 
ATOM      4  C   UNL     1       2.324   6.535  20.139  0.00  0.00    +0.000 A 
ATOM      5  C   UNL     1       3.175   6.142  19.170  0.00  0.00    +0.000 A 
ATOM      6  C   UNL     1       3.408   6.966  17.995  0.00  0.00    +0.000 A 
ATOM      7 CL   UNL     1       4.489   6.410  16.786  0.00  0.00    +0.000 Cl
ATOM      8  C   UNL     1       2.787   8.151  17.890  0.00  0.00    +0.000 A 
ATOM      9  N   UNL     1       1.909   8.561  18.904  0.00  0.00    +0.000 N 
ATOM     10  C   UNL     1       1.192   9.751  19.052  0.00  0.00    +0.000 A 
ENDROOT
BRANCH   1  16
ATOM     11  C   UNL     1      -0.330  10.807  22.281  0.00  0.00    +0.000 A 
ATOM     12  C   UNL     1      -1.081  11.841  22.852  0.00  0.00    +0.000 A 
ATOM     13  C   UNL     1      -1.900  12.632  22.050  0.00  0.00    +0.000 A 
ATOM     14  C   UNL     1      -2.034  12.340  20.697  0.00  0.00    +0.000 A 
ATOM     15  C   UNL     1      -1.330  11.267  20.143  0.00  0.00    +0.000 A 
ATOM     16  C   UNL     1      -0.403  10.535  20.904  0.00  0.00    +0.000 A 
BRANCH  11  17
ATOM     17  O   UNL     1       0.513  10.101  23.095  0.00  0.00    +0.000 OA
ATOM     18  H   UNL     1       1.346  10.589  23.183  0.00  0.00    +0.000 HD
ENDBRANCH  11  17
ENDBRANCH   1  16
BRANCH  10  19
ATOM     19  N   UNL     1       1.308  10.755  18.122  0.00  0.00    +0.000 N 
ATOM     20  H   UNL     1       1.040  10.597  17.155  0.00  0.00    +0.000 HD
BRANCH  19  21
ATOM     21  C   UNL     1       2.253  11.850  18.259  0.00  0.00    +0.000 C 
BRANCH  21  22
ATOM     22  C   UNL     1       1.628  12.996  19.006  0.00  0.00    +0.000 A 
ATOM     23  C   UNL     1       0.681  13.841  18.384  0.00  0.00    +0.000 A 
ATOM     24  C   UNL     1       0.071  14.873  19.103  0.00  0.00    +0.000 A 
ATOM     25  C   UNL     1       0.433  15.036  20.421  0.00  0.00    +0.000 A 
ATOM     26  C   UNL     1       1.363  14.226  21.028  0.00  0.00    +0.000 A 
ATOM     27  C   UNL     1       1.984  13.206  20.347  0.00  0.00    +0.000 A 
ATOM     28  O   UNL     1       1.570  14.547  22.330  0.00  0.00    +0.000 OA
ATOM     29  C   UNL     1       0.666  15.660  22.478  0.00  0.00    +0.000 C 
ATOM     30  O   UNL     1      -0.064  15.973  21.273  0.00  0.00    +0.000 OA
ENDBRANCH  21  22
ENDBRANCH  19  21
ENDBRANCH  10  19
TORSDOF 5
ENDMDL
