MODEL 1
REMARK VINA RESULT:      -7.6      0.000      0.000
REMARK  Name = 
REMARK  8 active torsions:
REMARK  status: ('A' for Active; 'I' for Inactive)
REMARK    1  A    between atoms: C_1  and  O_2
REMARK    2  A    between atoms: O_2  and  C_3
REMARK    3  A    between atoms: C_6  and  C_7
REMARK    4  A    between atoms: C_7  and  N_8
REMARK    5  A    between atoms: N_8  and  C_9
REMARK    6  A    between atoms: C_9  and  C_10
REMARK    7  A    between atoms: C_19  and  O_20
REMARK    8  A    between atoms: O_20  and  C_21
REMARK                            x       y       z     vdW  Elec       q    Type
REMARK                         _______ _______ _______ _____ _____    ______ ____
ROOT
ATOM      1  C   UNL     1       3.626   3.164  17.454  0.00  0.00    +0.000 C 
ENDROOT
BRANCH   1   5
ATOM      2  C   UNL     1       6.746   6.131  16.878  0.00  0.00    +0.000 A 
ATOM      3  C   UNL     1       6.207   5.874  18.148  0.00  0.00    +0.000 A 
ATOM      4  C   UNL     1       5.200   4.923  18.330  0.00  0.00    +0.000 A 
ATOM      5  C   UNL     1       4.712   4.192  17.246  0.00  0.00    +0.000 A 
ATOM      6  C   UNL     1       5.266   4.427  15.981  0.00  0.00    +0.000 A 
ATOM      7  C   UNL     1       6.295   5.368  15.789  0.00  0.00    +0.000 A 
BRANCH   2   9
ATOM      8  C   UNL     1       7.878   8.127  17.595  0.00  0.00    +0.000 C 
ATOM      9  O   UNL     1       7.771   7.020  16.703  0.00  0.00    +0.000 OA
ENDBRANCH   2   9
BRANCH   7  10
ATOM     10  O   UNL     1       6.716   5.392  14.483  0.00  0.00    +0.000 OA
ATOM     11  C   UNL     1       6.533   4.243  13.673  0.00  0.00    +0.000 C 
ENDBRANCH   7  10
ENDBRANCH   1   5
BRANCH   1  12
ATOM     12  N   UNL     1       2.371   3.464  16.769  0.00  0.00    +0.000 NA
ATOM     13  H   UNL     1       1.901   2.590  16.538  0.00  0.00    +0.000 HD
BRANCH  12  14
ATOM     14  C   UNL     1       1.462   4.285  17.572  0.00  0.00    +0.000 C 
BRANCH  14  15
ATOM     15  C   UNL     1       1.594   3.958  19.032  0.00  0.00    +0.000 A 
ATOM     16  C   UNL     1       1.200   2.713  19.530  0.00  0.00    +0.000 A 
ATOM     17  F   UNL     1       0.705   1.786  18.695  0.00  0.00    +0.000 F 
ATOM     18  C   UNL     1       1.294   2.405  20.886  0.00  0.00    +0.000 A 
ATOM     19  C   UNL     1       1.810   3.344  21.773  0.00  0.00    +0.000 A 
ATOM     20  C   UNL     1       2.236   4.582  21.292  0.00  0.00    +0.000 A 
ATOM     21  C   UNL     1       2.130   4.877  19.934  0.00  0.00    +0.000 A 
ATOM     22  F   UNL     1       2.558   6.073  19.504  0.00  0.00    +0.000 F 
ENDBRANCH  14  15
ENDBRANCH  12  14
ENDBRANCH   1  12
TORSDOF 6
ENDMDL
MODEL 2
REMARK VINA RESULT:      -7.6      0.224      1.811
REMARK  Name = 
REMARK  8 active torsions:
REMARK  status: ('A' for Active; 'I' for Inactive)
REMARK    1  A    between atoms: C_1  and  O_2
REMARK    2  A    between atoms: O_2  and  C_3
REMARK    3  A    between atoms: C_6  and  C_7
REMARK    4  A    between atoms: C_7  and  N_8
REMARK    5  A    between atoms: N_8  and  C_9
REMARK    6  A    between atoms: C_9  and  C_10
REMARK    7  A    between atoms: C_19  and  O_20
REMARK    8  A    between atoms: O_20  and  C_21
REMARK                            x       y       z     vdW  Elec       q    Type
REMARK                         _______ _______ _______ _____ _____    ______ ____
ROOT
ATOM      1  C   UNL     1       3.732   3.130  17.445  0.00  0.00    +0.000 C 
ENDROOT
BRANCH   1   5
ATOM      2  C   UNL     1       6.727   6.224  16.878  0.00  0.00    +0.000 A 
ATOM      3  C   UNL     1       6.320   5.828  18.161  0.00  0.00    +0.000 A 
ATOM      4  C   UNL     1       5.352   4.836  18.342  0.00  0.00    +0.000 A 
ATOM      5  C   UNL     1       4.774   4.203  17.240  0.00  0.00    +0.000 A 
ATOM      6  C   UNL     1       5.197   4.578  15.958  0.00  0.00    +0.000 A 
ATOM      7  C   UNL     1       6.186   5.561  15.766  0.00  0.00    +0.000 A 
BRANCH   2   9
ATOM      8  C   UNL     1       7.924   8.136  17.709  0.00  0.00    +0.000 C 
ATOM      9  O   UNL     1       7.714   7.154  16.698  0.00  0.00    +0.000 OA
ENDBRANCH   2   9
BRANCH   7  10
ATOM     10  O   UNL     1       6.476   5.726  14.435  0.00  0.00    +0.000 OA
ATOM     11  C   UNL     1       7.133   4.684  13.732  0.00  0.00    +0.000 C 
ENDBRANCH   7  10
ENDBRANCH   1   5
BRANCH   1  12
ATOM     12  N   UNL     1       2.437   3.420  16.833  0.00  0.00    +0.000 NA
ATOM     13  H   UNL     1       1.929   2.547  16.700  0.00  0.00    +0.000 HD
BRANCH  12  14
ATOM     14  C   UNL     1       1.611   4.323  17.639  0.00  0.00    +0.000 C 
BRANCH  14  15
ATOM     15  C   UNL     1       1.670   3.948  19.092  0.00  0.00    +0.000 A 
ATOM     16  C   UNL     1       2.191   4.831  20.043  0.00  0.00    +0.000 A 
ATOM     17  F   UNL     1       2.635   6.038  19.660  0.00  0.00    +0.000 F 
ATOM     18  C   UNL     1       2.274   4.487  21.391  0.00  0.00    +0.000 A 
ATOM     19  C   UNL     1       1.815   3.245  21.817  0.00  0.00    +0.000 A 
ATOM     20  C   UNL     1       1.266   2.361  20.888  0.00  0.00    +0.000 A 
ATOM     21  C   UNL     1       1.194   2.717  19.543  0.00  0.00    +0.000 A 
ATOM     22  F   UNL     1       0.652   1.847  18.678  0.00  0.00    +0.000 F 
ENDBRANCH  14  15
ENDBRANCH  12  14
ENDBRANCH   1  12
TORSDOF 6
ENDMDL
MODEL 3
REMARK VINA RESULT:      -7.6      1.491      3.062
REMARK  Name = 
REMARK  8 active torsions:
REMARK  status: ('A' for Active; 'I' for Inactive)
REMARK    1  A    between atoms: C_1  and  O_2
REMARK    2  A    between atoms: O_2  and  C_3
REMARK    3  A    between atoms: C_6  and  C_7
REMARK    4  A    between atoms: C_7  and  N_8
REMARK    5  A    between atoms: N_8  and  C_9
REMARK    6  A    between atoms: C_9  and  C_10
REMARK    7  A    between atoms: C_19  and  O_20
REMARK    8  A    between atoms: O_20  and  C_21
REMARK                            x       y       z     vdW  Elec       q    Type
REMARK                         _______ _______ _______ _____ _____    ______ ____
ROOT
ATOM      1  C   UNL     1       4.453   5.442  19.510  0.00  0.00    +0.000 C 
ENDROOT
BRANCH   1   5
ATOM      2  C   UNL     1       6.798   5.159  15.864  0.00  0.00    +0.000 A 
ATOM      3  C   UNL     1       5.796   4.223  16.163  0.00  0.00    +0.000 A 
ATOM      4  C   UNL     1       5.047   4.313  17.339  0.00  0.00    +0.000 A 
ATOM      5  C   UNL     1       5.271   5.352  18.244  0.00  0.00    +0.000 A 
ATOM      6  C   UNL     1       6.253   6.303  17.936  0.00  0.00    +0.000 A 
ATOM      7  C   UNL     1       7.000   6.234  16.745  0.00  0.00    +0.000 A 
BRANCH   2   9
ATOM      8  C   UNL     1       6.889   4.486  13.559  0.00  0.00    +0.000 C 
ATOM      9  O   UNL     1       7.495   5.108  14.688  0.00  0.00    +0.000 OA
ENDBRANCH   2   9
BRANCH   7  10
ATOM     10  O   UNL     1       7.862   7.295  16.632  0.00  0.00    +0.000 OA
ATOM     11  C   UNL     1       7.915   8.262  17.668  0.00  0.00    +0.000 C 
ENDBRANCH   7  10
ENDBRANCH   1   5
BRANCH   1  12
ATOM     12  N   UNL     1       3.424   6.478  19.491  0.00  0.00    +0.000 NA
ATOM     13  H   UNL     1       3.236   6.743  18.526  0.00  0.00    +0.000 HD
BRANCH  12  14
ATOM     14  C   UNL     1       2.167   6.049  20.111  0.00  0.00    +0.000 C 
BRANCH  14  15
ATOM     15  C   UNL     1       1.894   4.602  19.819  0.00  0.00    +0.000 A 
ATOM     16  C   UNL     1       1.952   3.640  20.832  0.00  0.00    +0.000 A 
ATOM     17  F   UNL     1       2.244   4.010  22.088  0.00  0.00    +0.000 F 
ATOM     18  C   UNL     1       1.724   2.289  20.571  0.00  0.00    +0.000 A 
ATOM     19  C   UNL     1       1.413   1.879  19.279  0.00  0.00    +0.000 A 
ATOM     20  C   UNL     1       1.322   2.827  18.260  0.00  0.00    +0.000 A 
ATOM     21  C   UNL     1       1.557   4.172  18.536  0.00  0.00    +0.000 A 
ATOM     22  F   UNL     1       1.452   5.059  17.535  0.00  0.00    +0.000 F 
ENDBRANCH  14  15
ENDBRANCH  12  14
ENDBRANCH   1  12
TORSDOF 6
ENDMDL
MODEL 4
REMARK VINA RESULT:      -7.5      1.713      3.066
REMARK  Name = 
REMARK  8 active torsions:
REMARK  status: ('A' for Active; 'I' for Inactive)
REMARK    1  A    between atoms: C_1  and  O_2
REMARK    2  A    between atoms: O_2  and  C_3
REMARK    3  A    between atoms: C_6  and  C_7
REMARK    4  A    between atoms: C_7  and  N_8
REMARK    5  A    between atoms: N_8  and  C_9
REMARK    6  A    between atoms: C_9  and  C_10
REMARK    7  A    between atoms: C_19  and  O_20
REMARK    8  A    between atoms: O_20  and  C_21
REMARK                            x       y       z     vdW  Elec       q    Type
REMARK                         _______ _______ _______ _____ _____    ______ ____
ROOT
ATOM      1  C   UNL     1       5.065   4.137  19.372  0.00  0.00    +0.000 C 
ENDROOT
BRANCH   1   5
ATOM      2  C   UNL     1       6.329   5.285  15.377  0.00  0.00    +0.000 A 
ATOM      3  C   UNL     1       5.324   4.327  15.579  0.00  0.00    +0.000 A 
ATOM      4  C   UNL     1       4.922   3.954  16.865  0.00  0.00    +0.000 A 
ATOM      5  C   UNL     1       5.509   4.543  17.987  0.00  0.00    +0.000 A 
ATOM      6  C   UNL     1       6.494   5.519  17.789  0.00  0.00    +0.000 A 
ATOM      7  C   UNL     1       6.891   5.916  16.498  0.00  0.00    +0.000 A 
BRANCH   2   9
ATOM      8  C   UNL     1       7.421   4.798  13.292  0.00  0.00    +0.000 C 
ATOM      9  O   UNL     1       6.685   5.693  14.121  0.00  0.00    +0.000 OA
ENDBRANCH   2   9
BRANCH   7  10
ATOM     10  O   UNL     1       7.827   6.917  16.548  0.00  0.00    +0.000 OA
ATOM     11  C   UNL     1       7.697   7.945  17.517  0.00  0.00    +0.000 C 
ENDBRANCH   7  10
ENDBRANCH   1   5
BRANCH   1  12
ATOM     12  N   UNL     1       5.296   2.730  19.691  0.00  0.00    +0.000 NA
ATOM     13  H   UNL     1       6.214   2.632  20.121  0.00  0.00    +0.000 HD
BRANCH  12  14
ATOM     14  C   UNL     1       4.292   2.177  20.604  0.00  0.00    +0.000 C 
BRANCH  14  15
ATOM     15  C   UNL     1       2.904   2.491  20.127  0.00  0.00    +0.000 A 
ATOM     16  C   UNL     1       2.447   2.029  18.888  0.00  0.00    +0.000 A 
ATOM     17  F   UNL     1       3.251   1.284  18.116  0.00  0.00    +0.000 F 
ATOM     18  C   UNL     1       1.169   2.334  18.421  0.00  0.00    +0.000 A 
ATOM     19  C   UNL     1       0.311   3.099  19.205  0.00  0.00    +0.000 A 
ATOM     20  C   UNL     1       0.738   3.545  20.455  0.00  0.00    +0.000 A 
ATOM     21  C   UNL     1       2.020   3.237  20.906  0.00  0.00    +0.000 A 
ATOM     22  F   UNL     1       2.395   3.674  22.117  0.00  0.00    +0.000 F 
ENDBRANCH  14  15
ENDBRANCH  12  14
ENDBRANCH   1  12
TORSDOF 6
ENDMDL
MODEL 5
REMARK VINA RESULT:      -7.4      1.492      2.900
REMARK  Name = 
REMARK  8 active torsions:
REMARK  status: ('A' for Active; 'I' for Inactive)
REMARK    1  A    between atoms: C_1  and  O_2
REMARK    2  A    between atoms: O_2  and  C_3
REMARK    3  A    between atoms: C_6  and  C_7
REMARK    4  A    between atoms: C_7  and  N_8
REMARK    5  A    between atoms: N_8  and  C_9
REMARK    6  A    between atoms: C_9  and  C_10
REMARK    7  A    between atoms: C_19  and  O_20
REMARK    8  A    between atoms: O_20  and  C_21
REMARK                            x       y       z     vdW  Elec       q    Type
REMARK                         _______ _______ _______ _____ _____    ______ ____
ROOT
ATOM      1  C   UNL     1       4.860   4.640  19.282  0.00  0.00    +0.000 C 
ENDROOT
BRANCH   1   5
ATOM      2  C   UNL     1       6.935   5.119  15.496  0.00  0.00    +0.000 A 
ATOM      3  C   UNL     1       6.005   4.087  15.695  0.00  0.00    +0.000 A 
ATOM      4  C   UNL     1       5.342   3.931  16.915  0.00  0.00    +0.000 A 
ATOM      5  C   UNL     1       5.584   4.815  17.969  0.00  0.00    +0.000 A 
ATOM      6  C   UNL     1       6.492   5.862  17.765  0.00  0.00    +0.000 A 
ATOM      7  C   UNL     1       7.149   6.040  16.534  0.00  0.00    +0.000 A 
BRANCH   2   9
ATOM      8  C   UNL     1       7.040   4.614  13.149  0.00  0.00    +0.000 C 
ATOM      9  O   UNL     1       7.543   5.310  14.286  0.00  0.00    +0.000 OA
ENDBRANCH   2   9
BRANCH   7  10
ATOM     10  O   UNL     1       7.948   7.155  16.549  0.00  0.00    +0.000 OA
ATOM     11  C   UNL     1       7.760   8.132  17.560  0.00  0.00    +0.000 C 
ENDBRANCH   7  10
ENDBRANCH   1   5
BRANCH   1  12
ATOM     12  N   UNL     1       4.109   5.815  19.719  0.00  0.00    +0.000 NA
ATOM     13  H   UNL     1       4.594   6.655  19.406  0.00  0.00    +0.000 HD
BRANCH  12  14
ATOM     14  C   UNL     1       2.739   5.846  19.201  0.00  0.00    +0.000 C 
BRANCH  14  15
ATOM     15  C   UNL     1       2.054   4.528  19.424  0.00  0.00    +0.000 A 
ATOM     16  C   UNL     1       1.603   3.760  18.346  0.00  0.00    +0.000 A 
ATOM     17  F   UNL     1       1.792   4.195  17.091  0.00  0.00    +0.000 F 
ATOM     18  C   UNL     1       0.943   2.547  18.538  0.00  0.00    +0.000 A 
ATOM     19  C   UNL     1       0.740   2.069  19.829  0.00  0.00    +0.000 A 
ATOM     20  C   UNL     1       1.208   2.806  20.916  0.00  0.00    +0.000 A 
ATOM     21  C   UNL     1       1.860   4.020  20.708  0.00  0.00    +0.000 A 
ATOM     22  F   UNL     1       2.306   4.699  21.775  0.00  0.00    +0.000 F 
ENDBRANCH  14  15
ENDBRANCH  12  14
ENDBRANCH   1  12
TORSDOF 6
ENDMDL
MODEL 6
REMARK VINA RESULT:      -7.4      1.690      3.027
REMARK  Name = 
REMARK  8 active torsions:
REMARK  status: ('A' for Active; 'I' for Inactive)
REMARK    1  A    between atoms: C_1  and  O_2
REMARK    2  A    between atoms: O_2  and  C_3
REMARK    3  A    between atoms: C_6  and  C_7
REMARK    4  A    between atoms: C_7  and  N_8
REMARK    5  A    between atoms: N_8  and  C_9
REMARK    6  A    between atoms: C_9  and  C_10
REMARK    7  A    between atoms: C_19  and  O_20
REMARK    8  A    between atoms: O_20  and  C_21
REMARK                            x       y       z     vdW  Elec       q    Type
REMARK                         _______ _______ _______ _____ _____    ______ ____
ROOT
ATOM      1  C   UNL     1       3.276   7.006  18.409  0.00  0.00    +0.000 C 
ENDROOT
BRANCH   1   5
ATOM      2  C   UNL     1       6.459   5.193  16.074  0.00  0.00    +0.000 A 
ATOM      3  C   UNL     1       5.190   4.601  16.164  0.00  0.00    +0.000 A 
ATOM      4  C   UNL     1       4.169   5.183  16.920  0.00  0.00    +0.000 A 
ATOM      5  C   UNL     1       4.387   6.384  17.598  0.00  0.00    +0.000 A 
ATOM      6  C   UNL     1       5.645   6.992  17.488  0.00  0.00    +0.000 A 
ATOM      7  C   UNL     1       6.674   6.425  16.713  0.00  0.00    +0.000 A 
BRANCH   2   9
ATOM      8  C   UNL     1       7.375   4.847  13.879  0.00  0.00    +0.000 C 
ATOM      9  O   UNL     1       7.443   4.657  15.289  0.00  0.00    +0.000 OA
ENDBRANCH   2   9
BRANCH   7  10
ATOM     10  O   UNL     1       7.794   7.217  16.711  0.00  0.00    +0.000 OA
ATOM     11  C   UNL     1       7.910   8.261  17.664  0.00  0.00    +0.000 C 
ENDBRANCH   7  10
ENDBRANCH   1   5
BRANCH   1  12
ATOM     12  N   UNL     1       3.158   6.487  19.770  0.00  0.00    +0.000 NA
ATOM     13  H   UNL     1       3.412   7.221  20.430  0.00  0.00    +0.000 HD
BRANCH  12  14
ATOM     14  C   UNL     1       1.807   6.019  20.090  0.00  0.00    +0.000 C 
BRANCH  14  15
ATOM     15  C   UNL     1       1.706   4.529  19.933  0.00  0.00    +0.000 A 
ATOM     16  C   UNL     1       1.331   3.957  18.714  0.00  0.00    +0.000 A 
ATOM     17  F   UNL     1       1.066   4.745  17.661  0.00  0.00    +0.000 F 
ATOM     18  C   UNL     1       1.209   2.576  18.561  0.00  0.00    +0.000 A 
ATOM     19  C   UNL     1       1.485   1.736  19.634  0.00  0.00    +0.000 A 
ATOM     20  C   UNL     1       1.889   2.285  20.851  0.00  0.00    +0.000 A 
ATOM     21  C   UNL     1       2.000   3.668  20.990  0.00  0.00    +0.000 A 
ATOM     22  F   UNL     1       2.401   4.162  22.170  0.00  0.00    +0.000 F 
ENDBRANCH  14  15
ENDBRANCH  12  14
ENDBRANCH   1  12
TORSDOF 6
ENDMDL
MODEL 7
REMARK VINA RESULT:      -7.3      2.684      4.216
REMARK  Name = 
REMARK  8 active torsions:
REMARK  status: ('A' for Active; 'I' for Inactive)
REMARK    1  A    between atoms: C_1  and  O_2
REMARK    2  A    between atoms: O_2  and  C_3
REMARK    3  A    between atoms: C_6  and  C_7
REMARK    4  A    between atoms: C_7  and  N_8
REMARK    5  A    between atoms: N_8  and  C_9
REMARK    6  A    between atoms: C_9  and  C_10
REMARK    7  A    between atoms: C_19  and  O_20
REMARK    8  A    between atoms: O_20  and  C_21
REMARK                            x       y       z     vdW  Elec       q    Type
REMARK                         _______ _______ _______ _____ _____    ______ ____
ROOT
ATOM      1  C   UNL     1       3.071   3.787  19.024  0.00  0.00    +0.000 C 
ENDROOT
BRANCH   1   5
ATOM      2  C   UNL     1       6.431   4.479  16.359  0.00  0.00    +0.000 A 
ATOM      3  C   UNL     1       5.133   4.283  15.863  0.00  0.00    +0.000 A 
ATOM      4  C   UNL     1       4.054   4.055  16.721  0.00  0.00    +0.000 A 
ATOM      5  C   UNL     1       4.244   4.030  18.104  0.00  0.00    +0.000 A 
ATOM      6  C   UNL     1       5.534   4.252  18.604  0.00  0.00    +0.000 A 
ATOM      7  C   UNL     1       6.624   4.502  17.750  0.00  0.00    +0.000 A 
BRANCH   2   9
ATOM      8  C   UNL     1       7.230   4.885  14.129  0.00  0.00    +0.000 C 
ATOM      9  O   UNL     1       7.479   4.759  15.526  0.00  0.00    +0.000 OA
ENDBRANCH   2   9
BRANCH   7  10
ATOM     10  O   UNL     1       7.773   4.741  18.460  0.00  0.00    +0.000 OA
ATOM     11  C   UNL     1       7.954   5.998  19.089  0.00  0.00    +0.000 C 
ENDBRANCH   7  10
ENDBRANCH   1   5
BRANCH   1  12
ATOM     12  N   UNL     1       2.228   4.959  19.250  0.00  0.00    +0.000 NA
ATOM     13  H   UNL     1       1.472   4.707  19.885  0.00  0.00    +0.000 HD
BRANCH  12  14
ATOM     14  C   UNL     1       2.961   6.091  19.822  0.00  0.00    +0.000 C 
BRANCH  14  15
ATOM     15  C   UNL     1       2.357   7.394  19.385  0.00  0.00    +0.000 A 
ATOM     16  C   UNL     1       1.529   8.128  20.241  0.00  0.00    +0.000 A 
ATOM     17  F   UNL     1       1.276   7.671  21.477  0.00  0.00    +0.000 F 
ATOM     18  C   UNL     1       0.942   9.327  19.840  0.00  0.00    +0.000 A 
ATOM     19  C   UNL     1       1.194   9.827  18.567  0.00  0.00    +0.000 A 
ATOM     20  C   UNL     1       2.039   9.125  17.707  0.00  0.00    +0.000 A 
ATOM     21  C   UNL     1       2.614   7.925  18.121  0.00  0.00    +0.000 A 
ATOM     22  F   UNL     1       3.430   7.281  17.274  0.00  0.00    +0.000 F 
ENDBRANCH  14  15
ENDBRANCH  12  14
ENDBRANCH   1  12
TORSDOF 6
ENDMDL
MODEL 8
REMARK VINA RESULT:      -7.3      2.210      3.480
REMARK  Name = 
REMARK  8 active torsions:
REMARK  status: ('A' for Active; 'I' for Inactive)
REMARK    1  A    between atoms: C_1  and  O_2
REMARK    2  A    between atoms: O_2  and  C_3
REMARK    3  A    between atoms: C_6  and  C_7
REMARK    4  A    between atoms: C_7  and  N_8
REMARK    5  A    between atoms: N_8  and  C_9
REMARK    6  A    between atoms: C_9  and  C_10
REMARK    7  A    between atoms: C_19  and  O_20
REMARK    8  A    between atoms: O_20  and  C_21
REMARK                            x       y       z     vdW  Elec       q    Type
REMARK                         _______ _______ _______ _____ _____    ______ ____
ROOT
ATOM      1  C   UNL     1       2.495   6.562  19.628  0.00  0.00    +0.000 C 
ENDROOT
BRANCH   1   5
ATOM      2  C   UNL     1       5.817   5.091  17.245  0.00  0.00    +0.000 A 
ATOM      3  C   UNL     1       4.638   5.558  16.646  0.00  0.00    +0.000 A 
ATOM      4  C   UNL     1       3.568   6.026  17.414  0.00  0.00    +0.000 A 
ATOM      5  C   UNL     1       3.655   6.051  18.807  0.00  0.00    +0.000 A 
ATOM      6  C   UNL     1       4.842   5.610  19.408  0.00  0.00    +0.000 A 
ATOM      7  C   UNL     1       5.932   5.156  18.643  0.00  0.00    +0.000 A 
BRANCH   2   9
ATOM      8  C   UNL     1       6.914   5.009  15.109  0.00  0.00    +0.000 C 
ATOM      9  O   UNL     1       6.887   4.686  16.496  0.00  0.00    +0.000 OA
ENDBRANCH   2   9
BRANCH   7  10
ATOM     10  O   UNL     1       7.000   4.826  19.439  0.00  0.00    +0.000 OA
ATOM     11  C   UNL     1       8.055   5.758  19.610  0.00  0.00    +0.000 C 
ENDBRANCH   7  10
ENDBRANCH   1   5
BRANCH   1  12
ATOM     12  N   UNL     1       2.151   5.723  20.774  0.00  0.00    +0.000 NA
ATOM     13  H   UNL     1       1.705   6.300  21.486  0.00  0.00    +0.000 HD
BRANCH  12  14
ATOM     14  C   UNL     1       1.246   4.624  20.429  0.00  0.00    +0.000 C 
BRANCH  14  15
ATOM     15  C   UNL     1       1.977   3.543  19.687  0.00  0.00    +0.000 A 
ATOM     16  C   UNL     1       2.891   2.711  20.342  0.00  0.00    +0.000 A 
ATOM     17  F   UNL     1       3.114   2.867  21.655  0.00  0.00    +0.000 F 
ATOM     18  C   UNL     1       3.595   1.719  19.660  0.00  0.00    +0.000 A 
ATOM     19  C   UNL     1       3.378   1.530  18.299  0.00  0.00    +0.000 A 
ATOM     20  C   UNL     1       2.450   2.330  17.633  0.00  0.00    +0.000 A 
ATOM     21  C   UNL     1       1.758   3.321  18.328  0.00  0.00    +0.000 A 
ATOM     22  F   UNL     1       0.866   4.066  17.660  0.00  0.00    +0.000 F 
ENDBRANCH  14  15
ENDBRANCH  12  14
ENDBRANCH   1  12
TORSDOF 6
ENDMDL
MODEL 9
REMARK VINA RESULT:      -7.3      2.737      4.254
REMARK  Name = 
REMARK  8 active torsions:
REMARK  status: ('A' for Active; 'I' for Inactive)
REMARK    1  A    between atoms: C_1  and  O_2
REMARK    2  A    between atoms: O_2  and  C_3
REMARK    3  A    between atoms: C_6  and  C_7
REMARK    4  A    between atoms: C_7  and  N_8
REMARK    5  A    between atoms: N_8  and  C_9
REMARK    6  A    between atoms: C_9  and  C_10
REMARK    7  A    between atoms: C_19  and  O_20
REMARK    8  A    between atoms: O_20  and  C_21
REMARK                            x       y       z     vdW  Elec       q    Type
REMARK                         _______ _______ _______ _____ _____    ______ ____
ROOT
ATOM      1  C   UNL     1       3.121   3.918  19.128  0.00  0.00    +0.000 C 
ENDROOT
BRANCH   1   5
ATOM      2  C   UNL     1       6.439   4.508  16.387  0.00  0.00    +0.000 A 
ATOM      3  C   UNL     1       5.127   4.338  15.920  0.00  0.00    +0.000 A 
ATOM      4  C   UNL     1       4.061   4.142  16.803  0.00  0.00    +0.000 A 
ATOM      5  C   UNL     1       4.280   4.126  18.182  0.00  0.00    +0.000 A 
ATOM      6  C   UNL     1       5.585   4.322  18.652  0.00  0.00    +0.000 A 
ATOM      7  C   UNL     1       6.662   4.540  17.773  0.00  0.00    +0.000 A 
BRANCH   2   9
ATOM      8  C   UNL     1       7.209   4.814  14.130  0.00  0.00    +0.000 C 
ATOM      9  O   UNL     1       7.475   4.756  15.529  0.00  0.00    +0.000 OA
ENDBRANCH   2   9
BRANCH   7  10
ATOM     10  O   UNL     1       7.831   4.758  18.456  0.00  0.00    +0.000 OA
ATOM     11  C   UNL     1       7.974   5.936  19.232  0.00  0.00    +0.000 C 
ENDBRANCH   7  10
ENDBRANCH   1   5
BRANCH   1  12
ATOM     12  N   UNL     1       2.238   5.074  19.265  0.00  0.00    +0.000 NA
ATOM     13  H   UNL     1       1.423   4.807  19.815  0.00  0.00    +0.000 HD
BRANCH  12  14
ATOM     14  C   UNL     1       2.886   6.217  19.913  0.00  0.00    +0.000 C 
BRANCH  14  15
ATOM     15  C   UNL     1       2.269   7.509  19.459  0.00  0.00    +0.000 A 
ATOM     16  C   UNL     1       2.538   8.028  18.189  0.00  0.00    +0.000 A 
ATOM     17  F   UNL     1       3.349   7.362  17.354  0.00  0.00    +0.000 F 
ATOM     18  C   UNL     1       1.992   9.239  17.764  0.00  0.00    +0.000 A 
ATOM     19  C   UNL     1       1.142   9.947  18.607  0.00  0.00    +0.000 A 
ATOM     20  C   UNL     1       0.838   9.432  19.867  0.00  0.00    +0.000 A 
ATOM     21  C   UNL     1       1.397   8.223  20.280  0.00  0.00    +0.000 A 
ATOM     22  F   UNL     1       1.076   7.752  21.493  0.00  0.00    +0.000 F 
ENDBRANCH  14  15
ENDBRANCH  12  14
ENDBRANCH   1  12
TORSDOF 6
ENDMDL
