MODEL 1
REMARK VINA RESULT:      -7.4      0.000      0.000
REMARK  Name = 
REMARK  10 active torsions:
REMARK  status: ('A' for Active; 'I' for Inactive)
REMARK    1  A    between atoms: C_1  and  C_2
REMARK    2  A    between atoms: C_2  and  C_3
REMARK    3  A    between atoms: C_3  and  C_4
REMARK    4  A    between atoms: C_4  and  C_5
REMARK    5  A    between atoms: C_5  and  C_6
REMARK    6  A    between atoms: C_6  and  C_7
REMARK    7  A    between atoms: C_7  and  C_8
REMARK    8  A    between atoms: C_11  and  C_12
REMARK    9  A    between atoms: C_13  and  O_14
REMARK   10  A    between atoms: C_16  and  O_17
REMARK                            x       y       z     vdW  Elec       q    Type
REMARK                         _______ _______ _______ _____ _____    ______ ____
ROOT
ATOM      1  C   UNL     1       6.589   4.209  15.226  0.00  0.00    +0.000 C 
ATOM      2  C   UNL     1       5.861   3.390  16.282  0.00  0.00    +0.000 C 
ATOM      3  C   UNL     1       4.802   4.210  16.972  0.00  0.00    +0.000 A 
ATOM      4  C   UNL     1       3.689   3.602  17.605  0.00  0.00    +0.000 A 
ATOM      5  C   UNL     1       3.531   2.104  17.694  0.00  0.00    +0.000 C 
ATOM      6  C   UNL     1       2.712   4.435  18.172  0.00  0.00    +0.000 A 
ATOM      7  C   UNL     1       2.824   5.821  18.131  0.00  0.00    +0.000 A 
ATOM      8  C   UNL     1       3.943   6.412  17.552  0.00  0.00    +0.000 A 
ATOM      9  C   UNL     1       4.958   5.620  17.000  0.00  0.00    +0.000 A 
ATOM     10  C   UNL     1       6.223   6.251  16.491  0.00  0.00    +0.000 C 
ATOM     11  O   UNL     1       6.553   7.404  16.728  0.00  0.00    +0.000 OA
ATOM     12  O   UNL     1       7.061   5.438  15.795  0.00  0.00    +0.000 OA
ENDROOT
BRANCH   6  13
ATOM     13  O   UNL     1       1.590   3.960  18.795  0.00  0.00    +0.000 OA
ATOM     14  H   UNL     1       1.169   3.275  18.253  0.00  0.00    +0.000 HD
ENDBRANCH   6  13
BRANCH   8  15
ATOM     15  O   UNL     1       4.010   7.775  17.514  0.00  0.00    +0.000 OA
ATOM     16  H   UNL     1       4.873   8.081  17.834  0.00  0.00    +0.000 HD
ENDBRANCH   8  15
BRANCH   1  17
ATOM     17  C   UNL     1       5.764   4.467  13.951  0.00  0.00    +0.000 C 
BRANCH  17  18
ATOM     18  C   UNL     1       6.529   3.994  12.714  0.00  0.00    +0.000 C 
BRANCH  18  19
ATOM     19  C   UNL     1       5.878   2.798  12.025  0.00  0.00    +0.000 C 
BRANCH  19  20
ATOM     20  C   UNL     1       4.402   3.112  11.771  0.00  0.00    +0.000 C 
BRANCH  20  21
ATOM     21  C   UNL     1       4.206   3.975  10.535  0.00  0.00    +0.000 C 
BRANCH  21  23
ATOM     22  C   UNL     1       2.366   4.843   9.069  0.00  0.00    +0.000 C 
ATOM     23  C   UNL     1       2.882   3.646   9.846  0.00  0.00    +0.000 C 
ENDBRANCH  21  23
ENDBRANCH  20  21
ENDBRANCH  19  20
ENDBRANCH  18  19
ENDBRANCH  17  18
ENDBRANCH   1  17
TORSDOF 8
ENDMDL
MODEL 2
REMARK VINA RESULT:      -7.0      3.985      5.997
REMARK  Name = 
REMARK  10 active torsions:
REMARK  status: ('A' for Active; 'I' for Inactive)
REMARK    1  A    between atoms: C_1  and  C_2
REMARK    2  A    between atoms: C_2  and  C_3
REMARK    3  A    between atoms: C_3  and  C_4
REMARK    4  A    between atoms: C_4  and  C_5
REMARK    5  A    between atoms: C_5  and  C_6
REMARK    6  A    between atoms: C_6  and  C_7
REMARK    7  A    between atoms: C_7  and  C_8
REMARK    8  A    between atoms: C_11  and  C_12
REMARK    9  A    between atoms: C_13  and  O_14
REMARK   10  A    between atoms: C_16  and  O_17
REMARK                            x       y       z     vdW  Elec       q    Type
REMARK                         _______ _______ _______ _____ _____    ______ ____
ROOT
ATOM      1  C   UNL     1       4.855   4.024  16.987  0.00  0.00    +0.000 C 
ATOM      2  C   UNL     1       3.877   5.181  17.131  0.00  0.00    +0.000 C 
ATOM      3  C   UNL     1       3.193   5.151  18.472  0.00  0.00    +0.000 A 
ATOM      4  C   UNL     1       2.644   6.322  19.051  0.00  0.00    +0.000 A 
ATOM      5  C   UNL     1       2.640   7.650  18.333  0.00  0.00    +0.000 C 
ATOM      6  C   UNL     1       2.078   6.227  20.332  0.00  0.00    +0.000 A 
ATOM      7  C   UNL     1       2.042   5.021  21.024  0.00  0.00    +0.000 A 
ATOM      8  C   UNL     1       2.539   3.864  20.432  0.00  0.00    +0.000 A 
ATOM      9  C   UNL     1       3.085   3.905  19.142  0.00  0.00    +0.000 A 
ATOM     10  C   UNL     1       3.503   2.637  18.453  0.00  0.00    +0.000 C 
ATOM     11  O   UNL     1       3.192   1.518  18.836  0.00  0.00    +0.000 OA
ATOM     12  O   UNL     1       4.203   2.785  17.297  0.00  0.00    +0.000 OA
ENDROOT
BRANCH   6  13
ATOM     13  O   UNL     1       1.533   7.294  20.993  0.00  0.00    +0.000 OA
ATOM     14  H   UNL     1       1.021   6.990  21.758  0.00  0.00    +0.000 HD
ENDBRANCH   6  13
BRANCH   8  15
ATOM     15  O   UNL     1       2.503   2.702  21.148  0.00  0.00    +0.000 OA
ATOM     16  H   UNL     1       3.311   2.187  20.998  0.00  0.00    +0.000 HD
ENDBRANCH   8  15
BRANCH   1  17
ATOM     17  C   UNL     1       6.152   4.190  17.803  0.00  0.00    +0.000 C 
BRANCH  17  18
ATOM     18  C   UNL     1       7.297   4.648  16.900  0.00  0.00    +0.000 C 
BRANCH  18  19
ATOM     19  C   UNL     1       7.258   6.142  16.591  0.00  0.00    +0.000 C 
BRANCH  19  20
ATOM     20  C   UNL     1       6.980   6.911  17.885  0.00  0.00    +0.000 C 
BRANCH  20  21
ATOM     21  C   UNL     1       8.171   7.750  18.318  0.00  0.00    +0.000 C 
BRANCH  21  23
ATOM     22  C   UNL     1       9.039  10.097  18.491  0.00  0.00    +0.000 C 
ATOM     23  C   UNL     1       8.046   9.182  17.797  0.00  0.00    +0.000 C 
ENDBRANCH  21  23
ENDBRANCH  20  21
ENDBRANCH  19  20
ENDBRANCH  18  19
ENDBRANCH  17  18
ENDBRANCH   1  17
TORSDOF 8
ENDMDL
MODEL 3
REMARK VINA RESULT:      -7.0      3.764      6.513
REMARK  Name = 
REMARK  10 active torsions:
REMARK  status: ('A' for Active; 'I' for Inactive)
REMARK    1  A    between atoms: C_1  and  C_2
REMARK    2  A    between atoms: C_2  and  C_3
REMARK    3  A    between atoms: C_3  and  C_4
REMARK    4  A    between atoms: C_4  and  C_5
REMARK    5  A    between atoms: C_5  and  C_6
REMARK    6  A    between atoms: C_6  and  C_7
REMARK    7  A    between atoms: C_7  and  C_8
REMARK    8  A    between atoms: C_11  and  C_12
REMARK    9  A    between atoms: C_13  and  O_14
REMARK   10  A    between atoms: C_16  and  O_17
REMARK                            x       y       z     vdW  Elec       q    Type
REMARK                         _______ _______ _______ _____ _____    ______ ____
ROOT
ATOM      1  C   UNL     1       5.366   6.019  18.057  0.00  0.00    +0.000 C 
ATOM      2  C   UNL     1       3.962   6.139  18.634  0.00  0.00    +0.000 C 
ATOM      3  C   UNL     1       3.361   4.782  18.889  0.00  0.00    +0.000 A 
ATOM      4  C   UNL     1       2.328   4.595  19.841  0.00  0.00    +0.000 A 
ATOM      5  C   UNL     1       1.716   5.746  20.602  0.00  0.00    +0.000 C 
ATOM      6  C   UNL     1       1.862   3.290  20.068  0.00  0.00    +0.000 A 
ATOM      7  C   UNL     1       2.383   2.201  19.377  0.00  0.00    +0.000 A 
ATOM      8  C   UNL     1       3.363   2.396  18.407  0.00  0.00    +0.000 A 
ATOM      9  C   UNL     1       3.837   3.684  18.126  0.00  0.00    +0.000 A 
ATOM     10  C   UNL     1       4.798   3.910  16.994  0.00  0.00    +0.000 C 
ATOM     11  O   UNL     1       5.037   3.082  16.127  0.00  0.00    +0.000 OA
ATOM     12  O   UNL     1       5.358   5.146  16.920  0.00  0.00    +0.000 OA
ENDROOT
BRANCH   6  13
ATOM     13  O   UNL     1       0.881   2.990  20.972  0.00  0.00    +0.000 OA
ATOM     14  H   UNL     1       0.092   2.660  20.516  0.00  0.00    +0.000 HD
ENDBRANCH   6  13
BRANCH   8  15
ATOM     15  O   UNL     1       3.863   1.301  17.763  0.00  0.00    +0.000 OA
ATOM     16  H   UNL     1       4.331   1.569  16.956  0.00  0.00    +0.000 HD
ENDBRANCH   8  15
BRANCH   1  17
ATOM     17  C   UNL     1       6.433   5.588  19.082  0.00  0.00    +0.000 C 
BRANCH  17  18
ATOM     18  C   UNL     1       7.797   6.170  18.710  0.00  0.00    +0.000 C 
BRANCH  18  19
ATOM     19  C   UNL     1       7.701   7.511  17.989  0.00  0.00    +0.000 C 
BRANCH  19  20
ATOM     20  C   UNL     1       8.626   8.516  18.680  0.00  0.00    +0.000 C 
BRANCH  20  21
ATOM     21  C   UNL     1       8.581   9.883  18.017  0.00  0.00    +0.000 C 
BRANCH  21  23
ATOM     22  C   UNL     1      10.446  11.541  17.767  0.00  0.00    +0.000 C 
ATOM     23  C   UNL     1       9.496  10.870  18.742  0.00  0.00    +0.000 C 
ENDBRANCH  21  23
ENDBRANCH  20  21
ENDBRANCH  19  20
ENDBRANCH  18  19
ENDBRANCH  17  18
ENDBRANCH   1  17
TORSDOF 8
ENDMDL
MODEL 4
REMARK VINA RESULT:      -6.9      1.068      1.329
REMARK  Name = 
REMARK  10 active torsions:
REMARK  status: ('A' for Active; 'I' for Inactive)
REMARK    1  A    between atoms: C_1  and  C_2
REMARK    2  A    between atoms: C_2  and  C_3
REMARK    3  A    between atoms: C_3  and  C_4
REMARK    4  A    between atoms: C_4  and  C_5
REMARK    5  A    between atoms: C_5  and  C_6
REMARK    6  A    between atoms: C_6  and  C_7
REMARK    7  A    between atoms: C_7  and  C_8
REMARK    8  A    between atoms: C_11  and  C_12
REMARK    9  A    between atoms: C_13  and  O_14
REMARK   10  A    between atoms: C_16  and  O_17
REMARK                            x       y       z     vdW  Elec       q    Type
REMARK                         _______ _______ _______ _____ _____    ______ ____
ROOT
ATOM      1  C   UNL     1       6.167   4.449  16.213  0.00  0.00    +0.000 C 
ATOM      2  C   UNL     1       5.561   3.410  17.145  0.00  0.00    +0.000 C 
ATOM      3  C   UNL     1       4.177   3.811  17.582  0.00  0.00    +0.000 A 
ATOM      4  C   UNL     1       3.228   2.852  18.015  0.00  0.00    +0.000 A 
ATOM      5  C   UNL     1       3.563   1.386  18.138  0.00  0.00    +0.000 C 
ATOM      6  C   UNL     1       1.938   3.297  18.347  0.00  0.00    +0.000 A 
ATOM      7  C   UNL     1       1.589   4.641  18.267  0.00  0.00    +0.000 A 
ATOM      8  C   UNL     1       2.539   5.585  17.889  0.00  0.00    +0.000 A 
ATOM      9  C   UNL     1       3.847   5.192  17.577  0.00  0.00    +0.000 A 
ATOM     10  C   UNL     1       4.903   6.221  17.294  0.00  0.00    +0.000 C 
ATOM     11  O   UNL     1       4.778   7.412  17.538  0.00  0.00    +0.000 OA
ATOM     12  O   UNL     1       6.083   5.752  16.807  0.00  0.00    +0.000 OA
ENDROOT
BRANCH   6  13
ATOM     13  O   UNL     1       0.940   2.459  18.763  0.00  0.00    +0.000 OA
ATOM     14  H   UNL     1       0.762   2.590  19.707  0.00  0.00    +0.000 HD
ENDBRANCH   6  13
BRANCH   8  15
ATOM     15  O   UNL     1       2.154   6.893  17.804  0.00  0.00    +0.000 OA
ATOM     16  H   UNL     1       1.373   6.980  17.235  0.00  0.00    +0.000 HD
ENDBRANCH   8  15
BRANCH   1  17
ATOM     17  C   UNL     1       5.569   4.446  14.793  0.00  0.00    +0.000 C 
BRANCH  17  18
ATOM     18  C   UNL     1       6.683   4.451  13.745  0.00  0.00    +0.000 C 
BRANCH  18  19
ATOM     19  C   UNL     1       6.362   3.594  12.523  0.00  0.00    +0.000 C 
BRANCH  19  20
ATOM     20  C   UNL     1       4.849   3.604  12.291  0.00  0.00    +0.000 C 
BRANCH  20  21
ATOM     21  C   UNL     1       4.449   2.749  11.099  0.00  0.00    +0.000 C 
BRANCH  21  23
ATOM     22  C   UNL     1       3.076   4.269   9.652  0.00  0.00    +0.000 C 
ATOM     23  C   UNL     1       3.041   3.104  10.624  0.00  0.00    +0.000 C 
ENDBRANCH  21  23
ENDBRANCH  20  21
ENDBRANCH  19  20
ENDBRANCH  18  19
ENDBRANCH  17  18
ENDBRANCH   1  17
TORSDOF 8
ENDMDL
MODEL 5
REMARK VINA RESULT:      -6.9      2.281      4.343
REMARK  Name = 
REMARK  10 active torsions:
REMARK  status: ('A' for Active; 'I' for Inactive)
REMARK    1  A    between atoms: C_1  and  C_2
REMARK    2  A    between atoms: C_2  and  C_3
REMARK    3  A    between atoms: C_3  and  C_4
REMARK    4  A    between atoms: C_4  and  C_5
REMARK    5  A    between atoms: C_5  and  C_6
REMARK    6  A    between atoms: C_6  and  C_7
REMARK    7  A    between atoms: C_7  and  C_8
REMARK    8  A    between atoms: C_11  and  C_12
REMARK    9  A    between atoms: C_13  and  O_14
REMARK   10  A    between atoms: C_16  and  O_17
REMARK                            x       y       z     vdW  Elec       q    Type
REMARK                         _______ _______ _______ _____ _____    ______ ____
ROOT
ATOM      1  C   UNL     1       4.666   4.138  17.253  0.00  0.00    +0.000 C 
ATOM      2  C   UNL     1       3.761   5.355  17.127  0.00  0.00    +0.000 C 
ATOM      3  C   UNL     1       3.055   5.645  18.426  0.00  0.00    +0.000 A 
ATOM      4  C   UNL     1       2.572   6.941  18.734  0.00  0.00    +0.000 A 
ATOM      5  C   UNL     1       2.664   8.089  17.758  0.00  0.00    +0.000 C 
ATOM      6  C   UNL     1       1.981   7.148  19.990  0.00  0.00    +0.000 A 
ATOM      7  C   UNL     1       1.857   6.117  20.915  0.00  0.00    +0.000 A 
ATOM      8  C   UNL     1       2.289   4.834  20.588  0.00  0.00    +0.000 A 
ATOM      9  C   UNL     1       2.857   4.574  19.335  0.00  0.00    +0.000 A 
ATOM     10  C   UNL     1       3.204   3.168  18.935  0.00  0.00    +0.000 C 
ATOM     11  O   UNL     1       2.817   2.174  19.531  0.00  0.00    +0.000 OA
ATOM     12  O   UNL     1       3.930   3.031  17.794  0.00  0.00    +0.000 OA
ENDROOT
BRANCH   6  13
ATOM     13  O   UNL     1       1.494   8.359  20.400  0.00  0.00    +0.000 OA
ATOM     14  H   UNL     1       2.209   8.904  20.762  0.00  0.00    +0.000 HD
ENDBRANCH   6  13
BRANCH   8  15
ATOM     15  O   UNL     1       2.167   3.851  21.528  0.00  0.00    +0.000 OA
ATOM     16  H   UNL     1       1.416   4.034  22.115  0.00  0.00    +0.000 HD
ENDBRANCH   8  15
BRANCH   1  17
ATOM     17  C   UNL     1       5.956   4.393  18.055  0.00  0.00    +0.000 C 
BRANCH  17  18
ATOM     18  C   UNL     1       7.132   4.641  17.110  0.00  0.00    +0.000 C 
BRANCH  18  19
ATOM     19  C   UNL     1       6.755   5.471  15.886  0.00  0.00    +0.000 C 
BRANCH  19  20
ATOM     20  C   UNL     1       7.067   4.667  14.622  0.00  0.00    +0.000 C 
BRANCH  20  21
ATOM     21  C   UNL     1       5.805   4.203  13.914  0.00  0.00    +0.000 C 
BRANCH  21  23
ATOM     22  C   UNL     1       4.893   3.227  11.791  0.00  0.00    +0.000 C 
ATOM     23  C   UNL     1       6.146   3.488  12.607  0.00  0.00    +0.000 C 
ENDBRANCH  21  23
ENDBRANCH  20  21
ENDBRANCH  19  20
ENDBRANCH  18  19
ENDBRANCH  17  18
ENDBRANCH   1  17
TORSDOF 8
ENDMDL
MODEL 6
REMARK VINA RESULT:      -6.8      3.752      6.820
REMARK  Name = 
REMARK  10 active torsions:
REMARK  status: ('A' for Active; 'I' for Inactive)
REMARK    1  A    between atoms: C_1  and  C_2
REMARK    2  A    between atoms: C_2  and  C_3
REMARK    3  A    between atoms: C_3  and  C_4
REMARK    4  A    between atoms: C_4  and  C_5
REMARK    5  A    between atoms: C_5  and  C_6
REMARK    6  A    between atoms: C_6  and  C_7
REMARK    7  A    between atoms: C_7  and  C_8
REMARK    8  A    between atoms: C_11  and  C_12
REMARK    9  A    between atoms: C_13  and  O_14
REMARK   10  A    between atoms: C_16  and  O_17
REMARK                            x       y       z     vdW  Elec       q    Type
REMARK                         _______ _______ _______ _____ _____    ______ ____
ROOT
ATOM      1  C   UNL     1       5.591   5.733  16.431  0.00  0.00    +0.000 C 
ATOM      2  C   UNL     1       4.413   6.687  16.573  0.00  0.00    +0.000 C 
ATOM      3  C   UNL     1       3.624   6.394  17.822  0.00  0.00    +0.000 A 
ATOM      4  C   UNL     1       2.823   7.384  18.443  0.00  0.00    +0.000 A 
ATOM      5  C   UNL     1       2.650   8.764  17.857  0.00  0.00    +0.000 C 
ATOM      6  C   UNL     1       2.167   7.054  19.639  0.00  0.00    +0.000 A 
ATOM      7  C   UNL     1       2.282   5.789  20.207  0.00  0.00    +0.000 A 
ATOM      8  C   UNL     1       3.029   4.805  19.567  0.00  0.00    +0.000 A 
ATOM      9  C   UNL     1       3.677   5.080  18.356  0.00  0.00    +0.000 A 
ATOM     10  C   UNL     1       4.376   3.985  17.602  0.00  0.00    +0.000 C 
ATOM     11  O   UNL     1       4.235   2.794  17.841  0.00  0.00    +0.000 OA
ATOM     12  O   UNL     1       5.143   4.376  16.550  0.00  0.00    +0.000 OA
ENDROOT
BRANCH   6  13
ATOM     13  O   UNL     1       1.381   7.933  20.332  0.00  0.00    +0.000 OA
ATOM     14  H   UNL     1       0.524   8.038  19.891  0.00  0.00    +0.000 HD
ENDBRANCH   6  13
BRANCH   8  15
ATOM     15  O   UNL     1       3.134   3.581  20.163  0.00  0.00    +0.000 OA
ATOM     16  H   UNL     1       3.333   2.898  19.503  0.00  0.00    +0.000 HD
ENDBRANCH   8  15
BRANCH   1  17
ATOM     17  C   UNL     1       6.755   6.022  17.398  0.00  0.00    +0.000 C 
BRANCH  17  18
ATOM     18  C   UNL     1       7.313   7.425  17.158  0.00  0.00    +0.000 C 
BRANCH  18  19
ATOM     19  C   UNL     1       8.143   7.949  18.327  0.00  0.00    +0.000 C 
BRANCH  19  20
ATOM     20  C   UNL     1       8.426   9.437  18.110  0.00  0.00    +0.000 C 
BRANCH  20  21
ATOM     21  C   UNL     1       9.230  10.038  19.251  0.00  0.00    +0.000 C 
BRANCH  21  23
ATOM     22  C   UNL     1      10.991  11.730  19.822  0.00  0.00    +0.000 C 
ATOM     23  C   UNL     1       9.953  11.306  18.799  0.00  0.00    +0.000 C 
ENDBRANCH  21  23
ENDBRANCH  20  21
ENDBRANCH  19  20
ENDBRANCH  18  19
ENDBRANCH  17  18
ENDBRANCH   1  17
TORSDOF 8
ENDMDL
MODEL 7
REMARK VINA RESULT:      -6.8      3.440      6.560
REMARK  Name = 
REMARK  10 active torsions:
REMARK  status: ('A' for Active; 'I' for Inactive)
REMARK    1  A    between atoms: C_1  and  C_2
REMARK    2  A    between atoms: C_2  and  C_3
REMARK    3  A    between atoms: C_3  and  C_4
REMARK    4  A    between atoms: C_4  and  C_5
REMARK    5  A    between atoms: C_5  and  C_6
REMARK    6  A    between atoms: C_6  and  C_7
REMARK    7  A    between atoms: C_7  and  C_8
REMARK    8  A    between atoms: C_11  and  C_12
REMARK    9  A    between atoms: C_13  and  O_14
REMARK   10  A    between atoms: C_16  and  O_17
REMARK                            x       y       z     vdW  Elec       q    Type
REMARK                         _______ _______ _______ _____ _____    ______ ____
ROOT
ATOM      1  C   UNL     1       6.191   6.416  17.084  0.00  0.00    +0.000 C 
ATOM      2  C   UNL     1       4.760   6.771  17.462  0.00  0.00    +0.000 C 
ATOM      3  C   UNL     1       4.002   5.555  17.927  0.00  0.00    +0.000 A 
ATOM      4  C   UNL     1       2.873   5.665  18.777  0.00  0.00    +0.000 A 
ATOM      5  C   UNL     1       2.314   7.000  19.206  0.00  0.00    +0.000 C 
ATOM      6  C   UNL     1       2.257   4.484  19.219  0.00  0.00    +0.000 A 
ATOM      7  C   UNL     1       2.725   3.231  18.835  0.00  0.00    +0.000 A 
ATOM      8  C   UNL     1       3.805   3.130  17.961  0.00  0.00    +0.000 A 
ATOM      9  C   UNL     1       4.432   4.282  17.470  0.00  0.00    +0.000 A 
ATOM     10  C   UNL     1       5.511   4.177  16.430  0.00  0.00    +0.000 C 
ATOM     11  O   UNL     1       5.742   3.162  15.789  0.00  0.00    +0.000 OA
ATOM     12  O   UNL     1       6.198   5.318  16.161  0.00  0.00    +0.000 OA
ENDROOT
BRANCH   6  13
ATOM     13  O   UNL     1       1.172   4.469  20.051  0.00  0.00    +0.000 OA
ATOM     14  H   UNL     1       1.349   4.998  20.844  0.00  0.00    +0.000 HD
ENDBRANCH   6  13
BRANCH   8  15
ATOM     15  O   UNL     1       4.248   1.884  17.621  0.00  0.00    +0.000 OA
ATOM     16  H   UNL     1       4.313   1.800  16.656  0.00  0.00    +0.000 HD
ENDBRANCH   8  15
BRANCH   1  17
ATOM     17  C   UNL     1       7.110   6.136  18.289  0.00  0.00    +0.000 C 
BRANCH  17  18
ATOM     18  C   UNL     1       8.094   7.288  18.489  0.00  0.00    +0.000 C 
BRANCH  18  19
ATOM     19  C   UNL     1       7.961   8.383  17.434  0.00  0.00    +0.000 C 
BRANCH  19  20
ATOM     20  C   UNL     1       8.190   9.744  18.095  0.00  0.00    +0.000 C 
BRANCH  20  21
ATOM     21  C   UNL     1       9.305   9.697  19.126  0.00  0.00    +0.000 C 
BRANCH  21  23
ATOM     22  C   UNL     1      10.288  11.865  18.335  0.00  0.00    +0.000 C 
ATOM     23  C   UNL     1       9.734  11.108  19.528  0.00  0.00    +0.000 C 
ENDBRANCH  21  23
ENDBRANCH  20  21
ENDBRANCH  19  20
ENDBRANCH  18  19
ENDBRANCH  17  18
ENDBRANCH   1  17
TORSDOF 8
ENDMDL
MODEL 8
REMARK VINA RESULT:      -6.8      3.355      6.775
REMARK  Name = 
REMARK  10 active torsions:
REMARK  status: ('A' for Active; 'I' for Inactive)
REMARK    1  A    between atoms: C_1  and  C_2
REMARK    2  A    between atoms: C_2  and  C_3
REMARK    3  A    between atoms: C_3  and  C_4
REMARK    4  A    between atoms: C_4  and  C_5
REMARK    5  A    between atoms: C_5  and  C_6
REMARK    6  A    between atoms: C_6  and  C_7
REMARK    7  A    between atoms: C_7  and  C_8
REMARK    8  A    between atoms: C_11  and  C_12
REMARK    9  A    between atoms: C_13  and  O_14
REMARK   10  A    between atoms: C_16  and  O_17
REMARK                            x       y       z     vdW  Elec       q    Type
REMARK                         _______ _______ _______ _____ _____    ______ ____
ROOT
ATOM      1  C   UNL     1       6.896   7.044  16.927  0.00  0.00    +0.000 C 
ATOM      2  C   UNL     1       5.404   7.304  17.076  0.00  0.00    +0.000 C 
ATOM      3  C   UNL     1       4.635   6.013  17.175  0.00  0.00    +0.000 A 
ATOM      4  C   UNL     1       3.362   5.954  17.796  0.00  0.00    +0.000 A 
ATOM      5  C   UNL     1       2.667   7.183  18.328  0.00  0.00    +0.000 C 
ATOM      6  C   UNL     1       2.734   4.703  17.905  0.00  0.00    +0.000 A 
ATOM      7  C   UNL     1       3.328   3.545  17.413  0.00  0.00    +0.000 A 
ATOM      8  C   UNL     1       4.555   3.616  16.760  0.00  0.00    +0.000 A 
ATOM      9  C   UNL     1       5.205   4.847  16.601  0.00  0.00    +0.000 A 
ATOM     10  C   UNL     1       6.463   4.943  15.786  0.00  0.00    +0.000 C 
ATOM     11  O   UNL     1       6.861   4.060  15.040  0.00  0.00    +0.000 OA
ATOM     12  O   UNL     1       7.131   6.125  15.851  0.00  0.00    +0.000 OA
ENDROOT
BRANCH   6  13
ATOM     13  O   UNL     1       1.514   4.525  18.497  0.00  0.00    +0.000 OA
ATOM     14  H   UNL     1       1.614   4.452  19.459  0.00  0.00    +0.000 HD
ENDBRANCH   6  13
BRANCH   8  15
ATOM     15  O   UNL     1       5.116   2.456  16.306  0.00  0.00    +0.000 OA
ATOM     16  H   UNL     1       4.535   1.702  16.498  0.00  0.00    +0.000 HD
ENDBRANCH   8  15
BRANCH   1  17
ATOM     17  C   UNL     1       7.586   6.573  18.222  0.00  0.00    +0.000 C 
BRANCH  17  18
ATOM     18  C   UNL     1       8.452   7.691  18.803  0.00  0.00    +0.000 C 
BRANCH  18  19
ATOM     19  C   UNL     1       8.308   9.013  18.055  0.00  0.00    +0.000 C 
BRANCH  19  20
ATOM     20  C   UNL     1       9.052  10.105  18.826  0.00  0.00    +0.000 C 
BRANCH  20  21
ATOM     21  C   UNL     1       9.218  11.373  18.003  0.00  0.00    +0.000 C 
BRANCH  21  23
ATOM     22  C   UNL     1      11.432  11.507  19.175  0.00  0.00    +0.000 C 
ATOM     23  C   UNL     1      10.694  11.746  17.870  0.00  0.00    +0.000 C 
ENDBRANCH  21  23
ENDBRANCH  20  21
ENDBRANCH  19  20
ENDBRANCH  18  19
ENDBRANCH  17  18
ENDBRANCH   1  17
TORSDOF 8
ENDMDL
MODEL 9
REMARK VINA RESULT:      -6.8      2.773      4.870
REMARK  Name = 
REMARK  10 active torsions:
REMARK  status: ('A' for Active; 'I' for Inactive)
REMARK    1  A    between atoms: C_1  and  C_2
REMARK    2  A    between atoms: C_2  and  C_3
REMARK    3  A    between atoms: C_3  and  C_4
REMARK    4  A    between atoms: C_4  and  C_5
REMARK    5  A    between atoms: C_5  and  C_6
REMARK    6  A    between atoms: C_6  and  C_7
REMARK    7  A    between atoms: C_7  and  C_8
REMARK    8  A    between atoms: C_11  and  C_12
REMARK    9  A    between atoms: C_13  and  O_14
REMARK   10  A    between atoms: C_16  and  O_17
REMARK                            x       y       z     vdW  Elec       q    Type
REMARK                         _______ _______ _______ _____ _____    ______ ____
ROOT
ATOM      1  C   UNL     1       4.070   3.529  17.221  0.00  0.00    +0.000 C 
ATOM      2  C   UNL     1       3.487   4.934  17.199  0.00  0.00    +0.000 C 
ATOM      3  C   UNL     1       2.772   5.247  18.486  0.00  0.00    +0.000 A 
ATOM      4  C   UNL     1       2.582   6.582  18.925  0.00  0.00    +0.000 A 
ATOM      5  C   UNL     1       3.015   7.769  18.100  0.00  0.00    +0.000 C 
ATOM      6  C   UNL     1       1.962   6.791  20.167  0.00  0.00    +0.000 A 
ATOM      7  C   UNL     1       1.530   5.728  20.953  0.00  0.00    +0.000 A 
ATOM      8  C   UNL     1       1.674   4.421  20.496  0.00  0.00    +0.000 A 
ATOM      9  C   UNL     1       2.260   4.165  19.249  0.00  0.00    +0.000 A 
ATOM     10  C   UNL     1       2.299   2.768  18.700  0.00  0.00    +0.000 C 
ATOM     11  O   UNL     1       1.645   1.839  19.152  0.00  0.00    +0.000 OA
ATOM     12  O   UNL     1       3.058   2.581  17.587  0.00  0.00    +0.000 OA
ENDROOT
BRANCH   6  13
ATOM     13  O   UNL     1       1.741   8.033  20.695  0.00  0.00    +0.000 OA
ATOM     14  H   UNL     1       2.582   8.448  20.943  0.00  0.00    +0.000 HD
ENDBRANCH   6  13
BRANCH   8  15
ATOM     15  O   UNL     1       1.255   3.402  21.303  0.00  0.00    +0.000 OA
ATOM     16  H   UNL     1       1.214   2.571  20.804  0.00  0.00    +0.000 HD
ENDBRANCH   8  15
BRANCH   1  17
ATOM     17  C   UNL     1       5.320   3.380  18.110  0.00  0.00    +0.000 C 
BRANCH  17  18
ATOM     18  C   UNL     1       6.126   4.679  18.120  0.00  0.00    +0.000 C 
BRANCH  18  19
ATOM     19  C   UNL     1       7.273   4.682  17.114  0.00  0.00    +0.000 C 
BRANCH  19  20
ATOM     20  C   UNL     1       6.870   5.524  15.901  0.00  0.00    +0.000 C 
BRANCH  20  21
ATOM     21  C   UNL     1       7.177   4.821  14.590  0.00  0.00    +0.000 C 
BRANCH  21  23
ATOM     22  C   UNL     1       6.077   3.568  12.716  0.00  0.00    +0.000 C 
ATOM     23  C   UNL     1       6.045   3.870  14.203  0.00  0.00    +0.000 C 
ENDBRANCH  21  23
ENDBRANCH  20  21
ENDBRANCH  19  20
ENDBRANCH  18  19
ENDBRANCH  17  18
ENDBRANCH   1  17
TORSDOF 8
ENDMDL
