MODEL 1
REMARK VINA RESULT:      -8.9      0.000      0.000
REMARK  Name = 
REMARK  8 active torsions:
REMARK  status: ('A' for Active; 'I' for Inactive)
REMARK    1  A    between atoms: C_1  and  O_2
REMARK    2  A    between atoms: O_2  and  C_3
REMARK    3  A    between atoms: C_6  and  C_7
REMARK    4  A    between atoms: C_9  and  N_10
REMARK    5  A    between atoms: C_11  and  C_13
REMARK    6  A    between atoms: C_17  and  C_18
REMARK    7  A    between atoms: C_25  and  C_26
REMARK    8  A    between atoms: C_28  and  N_29
REMARK                            x       y       z     vdW  Elec       q    Type
REMARK                         _______ _______ _______ _____ _____    ______ ____
ROOT
ATOM      1  C   UNL     1      -0.522  11.549  18.609  0.00  0.00    +0.000 A 
ATOM      2  C   UNL     1      -0.016  10.253  18.322  0.00  0.00    +0.000 A 
ATOM      3  C   UNL     1       1.342   9.997  18.110  0.00  0.00    +0.000 A 
ATOM      4  C   UNL     1       2.234  11.063  18.179  0.00  0.00    +0.000 A 
ATOM      5  C   UNL     1       1.783  12.337  18.526  0.00  0.00    +0.000 A 
ATOM      6  C   UNL     1       0.418  12.595  18.758  0.00  0.00    +0.000 A 
ATOM      7  C   UNL     1       0.042  14.004  19.142  0.00  0.00    +0.000 C 
ENDROOT
BRANCH   1  11
ATOM      8  C   UNL     1      -4.758  11.975  18.782  0.00  0.00    +0.000 A 
ATOM      9  N   UNL     1      -4.213  11.438  17.659  0.00  0.00    +0.000 NA
ATOM     10  C   UNL     1      -2.860  11.366  17.601  0.00  0.00    +0.000 A 
ATOM     11  C   UNL     1      -1.997  11.749  18.618  0.00  0.00    +0.000 A 
ATOM     12  C   UNL     1      -2.624  12.346  19.726  0.00  0.00    +0.000 A 
ATOM     13  C   UNL     1      -4.015  12.500  19.851  0.00  0.00    +0.000 A 
BRANCH  13  14
ATOM     14  N   UNL     1      -4.509  13.165  20.960  0.00  0.00    +0.000 N 
ATOM     15  C   UNL     1      -4.194  12.752  22.337  0.00  0.00    +0.000 C 
ATOM     16  C   UNL     1      -5.433  13.008  23.219  0.00  0.00    +0.000 C 
ATOM     17  O   UNL     1      -5.892  14.370  23.139  0.00  0.00    +0.000 OA
ATOM     18  C   UNL     1      -6.218  14.706  21.779  0.00  0.00    +0.000 C 
ATOM     19  C   UNL     1      -4.996  14.548  20.863  0.00  0.00    +0.000 C 
ENDBRANCH  13  14
BRANCH   8  21
ATOM     20  C   UNL     1      -6.670  10.686  19.142  0.00  0.00    +0.000 C 
ATOM     21  O   UNL     1      -6.139  11.980  18.873  0.00  0.00    +0.000 OA
ENDBRANCH   8  21
ENDBRANCH   1  11
BRANCH   3  22
ATOM     22  N   UNL     1       1.873   8.718  17.824  0.00  0.00    +0.000 N 
ATOM     23  C   UNL     1       2.209   7.742  18.746  0.00  0.00    +0.000 C 
ATOM     24  O   UNL     1       2.091   7.812  19.965  0.00  0.00    +0.000 OA
ATOM     25  H   UNL     1       2.166   8.569  16.867  0.00  0.00    +0.000 HD
BRANCH  23  26
ATOM     26  C   UNL     1       2.855   6.522  18.186  0.00  0.00    +0.000 A 
ATOM     27  C   UNL     1       4.040   6.580  17.444  0.00  0.00    +0.000 A 
ATOM     28  C   UNL     1       4.607   5.404  16.949  0.00  0.00    +0.000 A 
ATOM     29  C   UNL     1       4.000   4.170  17.195  0.00  0.00    +0.000 A 
ATOM     30  C   UNL     1       2.808   4.095  17.931  0.00  0.00    +0.000 A 
ATOM     31  C   UNL     1       2.234   5.283  18.408  0.00  0.00    +0.000 A 
BRANCH  30  32
ATOM     32  C   UNL     1       2.148   2.769  18.225  0.00  0.00    +0.000 C 
ATOM     33  F   UNL     1       2.336   1.841  17.245  0.00  0.00    +0.000 F 
ATOM     34  F   UNL     1       2.619   2.199  19.369  0.00  0.00    +0.000 F 
ATOM     35  F   UNL     1       0.800   2.874  18.384  0.00  0.00    +0.000 F 
ENDBRANCH  30  32
ENDBRANCH  23  26
ENDBRANCH   3  22
TORSDOF 6
ENDMDL
MODEL 2
REMARK VINA RESULT:      -8.8      0.460      1.150
REMARK  Name = 
REMARK  8 active torsions:
REMARK  status: ('A' for Active; 'I' for Inactive)
REMARK    1  A    between atoms: C_1  and  O_2
REMARK    2  A    between atoms: O_2  and  C_3
REMARK    3  A    between atoms: C_6  and  C_7
REMARK    4  A    between atoms: C_9  and  N_10
REMARK    5  A    between atoms: C_11  and  C_13
REMARK    6  A    between atoms: C_17  and  C_18
REMARK    7  A    between atoms: C_25  and  C_26
REMARK    8  A    between atoms: C_28  and  N_29
REMARK                            x       y       z     vdW  Elec       q    Type
REMARK                         _______ _______ _______ _____ _____    ______ ____
ROOT
ATOM      1  C   UNL     1      -0.451  11.597  18.651  0.00  0.00    +0.000 A 
ATOM      2  C   UNL     1       0.041  10.297  18.360  0.00  0.00    +0.000 A 
ATOM      3  C   UNL     1       1.390  10.034  18.101  0.00  0.00    +0.000 A 
ATOM      4  C   UNL     1       2.286  11.098  18.125  0.00  0.00    +0.000 A 
ATOM      5  C   UNL     1       1.852  12.377  18.474  0.00  0.00    +0.000 A 
ATOM      6  C   UNL     1       0.497  12.642  18.753  0.00  0.00    +0.000 A 
ATOM      7  C   UNL     1       0.139  14.056  19.135  0.00  0.00    +0.000 C 
ENDROOT
BRANCH   1  11
ATOM      8  C   UNL     1      -4.675  12.044  18.982  0.00  0.00    +0.000 A 
ATOM      9  N   UNL     1      -4.179  11.448  17.867  0.00  0.00    +0.000 NA
ATOM     10  C   UNL     1      -2.830  11.369  17.755  0.00  0.00    +0.000 A 
ATOM     11  C   UNL     1      -1.924  11.802  18.712  0.00  0.00    +0.000 A 
ATOM     12  C   UNL     1      -2.502  12.457  19.814  0.00  0.00    +0.000 A 
ATOM     13  C   UNL     1      -3.887  12.621  19.990  0.00  0.00    +0.000 A 
BRANCH  13  14
ATOM     14  N   UNL     1      -4.332  13.344  21.083  0.00  0.00    +0.000 N 
ATOM     15  C   UNL     1      -4.771  14.745  20.982  0.00  0.00    +0.000 C 
ATOM     16  C   UNL     1      -4.359  15.482  22.273  0.00  0.00    +0.000 C 
ATOM     17  O   UNL     1      -4.853  14.830  23.458  0.00  0.00    +0.000 OA
ATOM     18  C   UNL     1      -4.363  13.479  23.522  0.00  0.00    +0.000 C 
ATOM     19  C   UNL     1      -4.812  12.669  22.297  0.00  0.00    +0.000 C 
ENDBRANCH  13  14
BRANCH   8  21
ATOM     20  C   UNL     1      -6.625  10.763  18.986  0.00  0.00    +0.000 C 
ATOM     21  O   UNL     1      -6.051  12.058  19.132  0.00  0.00    +0.000 OA
ENDBRANCH   8  21
ENDBRANCH   1  11
BRANCH   3  22
ATOM     22  N   UNL     1       1.906   8.750  17.810  0.00  0.00    +0.000 N 
ATOM     23  C   UNL     1       2.181   7.748  18.724  0.00  0.00    +0.000 C 
ATOM     24  O   UNL     1       2.011   7.794  19.938  0.00  0.00    +0.000 OA
ATOM     25  H   UNL     1       2.238   8.615  16.864  0.00  0.00    +0.000 HD
BRANCH  23  26
ATOM     26  C   UNL     1       2.826   6.526  18.166  0.00  0.00    +0.000 A 
ATOM     27  C   UNL     1       3.998   6.584  17.406  0.00  0.00    +0.000 A 
ATOM     28  C   UNL     1       4.566   5.407  16.913  0.00  0.00    +0.000 A 
ATOM     29  C   UNL     1       3.970   4.171  17.180  0.00  0.00    +0.000 A 
ATOM     30  C   UNL     1       2.790   4.096  17.936  0.00  0.00    +0.000 A 
ATOM     31  C   UNL     1       2.216   5.286  18.410  0.00  0.00    +0.000 A 
BRANCH  30  32
ATOM     32  C   UNL     1       2.143   2.770  18.253  0.00  0.00    +0.000 C 
ATOM     33  F   UNL     1       2.493   2.274  19.474  0.00  0.00    +0.000 F 
ATOM     34  F   UNL     1       0.783   2.848  18.263  0.00  0.00    +0.000 F 
ATOM     35  F   UNL     1       2.458   1.800  17.353  0.00  0.00    +0.000 F 
ENDBRANCH  30  32
ENDBRANCH  23  26
ENDBRANCH   3  22
TORSDOF 6
ENDMDL
MODEL 3
REMARK VINA RESULT:      -8.7      1.133      1.389
REMARK  Name = 
REMARK  8 active torsions:
REMARK  status: ('A' for Active; 'I' for Inactive)
REMARK    1  A    between atoms: C_1  and  O_2
REMARK    2  A    between atoms: O_2  and  C_3
REMARK    3  A    between atoms: C_6  and  C_7
REMARK    4  A    between atoms: C_9  and  N_10
REMARK    5  A    between atoms: C_11  and  C_13
REMARK    6  A    between atoms: C_17  and  C_18
REMARK    7  A    between atoms: C_25  and  C_26
REMARK    8  A    between atoms: C_28  and  N_29
REMARK                            x       y       z     vdW  Elec       q    Type
REMARK                         _______ _______ _______ _____ _____    ______ ____
ROOT
ATOM      1  C   UNL     1      -0.660  11.636  18.834  0.00  0.00    +0.000 A 
ATOM      2  C   UNL     1      -0.187  10.297  18.849  0.00  0.00    +0.000 A 
ATOM      3  C   UNL     1       1.155   9.962  18.641  0.00  0.00    +0.000 A 
ATOM      4  C   UNL     1       2.063  10.989  18.403  0.00  0.00    +0.000 A 
ATOM      5  C   UNL     1       1.648  12.320  18.448  0.00  0.00    +0.000 A 
ATOM      6  C   UNL     1       0.301  12.662  18.675  0.00  0.00    +0.000 A 
ATOM      7  C   UNL     1      -0.035  14.131  18.720  0.00  0.00    +0.000 C 
ENDROOT
BRANCH   1  11
ATOM      8  C   UNL     1      -4.882  12.160  19.069  0.00  0.00    +0.000 A 
ATOM      9  N   UNL     1      -4.365  11.620  17.935  0.00  0.00    +0.000 NA
ATOM     10  C   UNL     1      -3.015  11.516  17.857  0.00  0.00    +0.000 A 
ATOM     11  C   UNL     1      -2.129  11.871  18.864  0.00  0.00    +0.000 A 
ATOM     12  C   UNL     1      -2.727  12.472  19.986  0.00  0.00    +0.000 A 
ATOM     13  C   UNL     1      -4.112  12.657  20.132  0.00  0.00    +0.000 A 
BRANCH  13  14
ATOM     14  N   UNL     1      -4.575  13.324  21.254  0.00  0.00    +0.000 N 
ATOM     15  C   UNL     1      -4.445  12.774  22.613  0.00  0.00    +0.000 C 
ATOM     16  C   UNL     1      -5.691  13.182  23.426  0.00  0.00    +0.000 C 
ATOM     17  O   UNL     1      -5.907  14.605  23.421  0.00  0.00    +0.000 OA
ATOM     18  C   UNL     1      -6.062  15.080  22.072  0.00  0.00    +0.000 C 
ATOM     19  C   UNL     1      -4.814  14.774  21.232  0.00  0.00    +0.000 C 
ENDBRANCH  13  14
BRANCH   8  21
ATOM     20  C   UNL     1      -6.890  11.132  18.471  0.00  0.00    +0.000 C 
ATOM     21  O   UNL     1      -6.260  12.196  19.179  0.00  0.00    +0.000 OA
ENDBRANCH   8  21
ENDBRANCH   1  11
BRANCH   3  22
ATOM     22  N   UNL     1       1.652   8.638  18.652  0.00  0.00    +0.000 N 
ATOM     23  C   UNL     1       1.847   7.842  19.767  0.00  0.00    +0.000 C 
ATOM     24  O   UNL     1       1.609   8.141  20.933  0.00  0.00    +0.000 OA
ATOM     25  H   UNL     1       2.034   8.305  17.777  0.00  0.00    +0.000 HD
BRANCH  23  26
ATOM     26  C   UNL     1       2.490   6.523  19.513  0.00  0.00    +0.000 A 
ATOM     27  C   UNL     1       3.546   6.370  18.608  0.00  0.00    +0.000 A 
ATOM     28  C   UNL     1       4.117   5.111  18.413  0.00  0.00    +0.000 A 
ATOM     29  C   UNL     1       3.643   4.004  19.122  0.00  0.00    +0.000 A 
ATOM     30  C   UNL     1       2.581   4.138  20.028  0.00  0.00    +0.000 A 
ATOM     31  C   UNL     1       1.999   5.404  20.203  0.00  0.00    +0.000 A 
BRANCH  30  32
ATOM     32  C   UNL     1       2.067   2.958  20.818  0.00  0.00    +0.000 C 
ATOM     33  F   UNL     1       2.942   2.521  21.769  0.00  0.00    +0.000 F 
ATOM     34  F   UNL     1       0.913   3.243  21.482  0.00  0.00    +0.000 F 
ATOM     35  F   UNL     1       1.796   1.878  20.037  0.00  0.00    +0.000 F 
ENDBRANCH  30  32
ENDBRANCH  23  26
ENDBRANCH   3  22
TORSDOF 6
ENDMDL
MODEL 4
REMARK VINA RESULT:      -8.7      1.686      2.184
REMARK  Name = 
REMARK  8 active torsions:
REMARK  status: ('A' for Active; 'I' for Inactive)
REMARK    1  A    between atoms: C_1  and  O_2
REMARK    2  A    between atoms: O_2  and  C_3
REMARK    3  A    between atoms: C_6  and  C_7
REMARK    4  A    between atoms: C_9  and  N_10
REMARK    5  A    between atoms: C_11  and  C_13
REMARK    6  A    between atoms: C_17  and  C_18
REMARK    7  A    between atoms: C_25  and  C_26
REMARK    8  A    between atoms: C_28  and  N_29
REMARK                            x       y       z     vdW  Elec       q    Type
REMARK                         _______ _______ _______ _____ _____    ______ ____
ROOT
ATOM      1  C   UNL     1      -0.525  11.609  18.652  0.00  0.00    +0.000 A 
ATOM      2  C   UNL     1      -0.019  10.299  18.444  0.00  0.00    +0.000 A 
ATOM      3  C   UNL     1       1.336  10.033  18.226  0.00  0.00    +0.000 A 
ATOM      4  C   UNL     1       2.225  11.103  18.207  0.00  0.00    +0.000 A 
ATOM      5  C   UNL     1       1.775  12.397  18.475  0.00  0.00    +0.000 A 
ATOM      6  C   UNL     1       0.413  12.666  18.712  0.00  0.00    +0.000 A 
ATOM      7  C   UNL     1       0.038  14.096  19.007  0.00  0.00    +0.000 C 
ENDROOT
BRANCH   1  11
ATOM      8  C   UNL     1      -4.761  12.022  18.857  0.00  0.00    +0.000 A 
ATOM      9  N   UNL     1      -4.222  11.500  17.725  0.00  0.00    +0.000 NA
ATOM     10  C   UNL     1      -2.870  11.432  17.657  0.00  0.00    +0.000 A 
ATOM     11  C   UNL     1      -2.001  11.805  18.672  0.00  0.00    +0.000 A 
ATOM     12  C   UNL     1      -2.622  12.387  19.792  0.00  0.00    +0.000 A 
ATOM     13  C   UNL     1      -4.012  12.536  19.928  0.00  0.00    +0.000 A 
BRANCH  13  14
ATOM     14  N   UNL     1      -4.500  13.186  21.048  0.00  0.00    +0.000 N 
ATOM     15  C   UNL     1      -4.171  12.760  22.418  0.00  0.00    +0.000 C 
ATOM     16  C   UNL     1      -5.404  12.999  23.314  0.00  0.00    +0.000 C 
ATOM     17  O   UNL     1      -5.872  14.359  23.252  0.00  0.00    +0.000 OA
ATOM     18  C   UNL     1      -6.212  14.707  21.898  0.00  0.00    +0.000 C 
ATOM     19  C   UNL     1      -4.997  14.567  20.970  0.00  0.00    +0.000 C 
ENDBRANCH  13  14
BRANCH   8  21
ATOM     20  C   UNL     1      -6.715  10.783  18.552  0.00  0.00    +0.000 C 
ATOM     21  O   UNL     1      -6.141  12.022  18.958  0.00  0.00    +0.000 OA
ENDBRANCH   8  21
ENDBRANCH   1  11
BRANCH   3  22
ATOM     22  N   UNL     1       1.867   8.738  18.019  0.00  0.00    +0.000 N 
ATOM     23  C   UNL     1       2.146   7.797  18.994  0.00  0.00    +0.000 C 
ATOM     24  O   UNL     1       1.968   7.917  20.202  0.00  0.00    +0.000 OA
ATOM     25  H   UNL     1       2.207   8.548  17.085  0.00  0.00    +0.000 HD
BRANCH  23  26
ATOM     26  C   UNL     1       2.807   6.550  18.517  0.00  0.00    +0.000 A 
ATOM     27  C   UNL     1       2.545   5.302  19.092  0.00  0.00    +0.000 A 
ATOM     28  C   UNL     1       3.186   4.163  18.600  0.00  0.00    +0.000 A 
ATOM     29  C   UNL     1       4.084   4.264  17.535  0.00  0.00    +0.000 A 
ATOM     30  C   UNL     1       4.364   5.509  16.952  0.00  0.00    +0.000 A 
ATOM     31  C   UNL     1       3.730   6.652  17.465  0.00  0.00    +0.000 A 
BRANCH  30  32
ATOM     32  C   UNL     1       5.315   5.636  15.786  0.00  0.00    +0.000 C 
ATOM     33  F   UNL     1       5.212   4.614  14.889  0.00  0.00    +0.000 F 
ATOM     34  F   UNL     1       5.108   6.777  15.072  0.00  0.00    +0.000 F 
ATOM     35  F   UNL     1       6.620   5.664  16.171  0.00  0.00    +0.000 F 
ENDBRANCH  30  32
ENDBRANCH  23  26
ENDBRANCH   3  22
TORSDOF 6
ENDMDL
MODEL 5
REMARK VINA RESULT:      -8.7      1.966      2.473
REMARK  Name = 
REMARK  8 active torsions:
REMARK  status: ('A' for Active; 'I' for Inactive)
REMARK    1  A    between atoms: C_1  and  O_2
REMARK    2  A    between atoms: O_2  and  C_3
REMARK    3  A    between atoms: C_6  and  C_7
REMARK    4  A    between atoms: C_9  and  N_10
REMARK    5  A    between atoms: C_11  and  C_13
REMARK    6  A    between atoms: C_17  and  C_18
REMARK    7  A    between atoms: C_25  and  C_26
REMARK    8  A    between atoms: C_28  and  N_29
REMARK                            x       y       z     vdW  Elec       q    Type
REMARK                         _______ _______ _______ _____ _____    ______ ____
ROOT
ATOM      1  C   UNL     1      -0.815  11.376  18.333  0.00  0.00    +0.000 A 
ATOM      2  C   UNL     1      -0.255  10.087  18.122  0.00  0.00    +0.000 A 
ATOM      3  C   UNL     1       1.122   9.843  18.149  0.00  0.00    +0.000 A 
ATOM      4  C   UNL     1       1.978  10.913  18.388  0.00  0.00    +0.000 A 
ATOM      5  C   UNL     1       1.462  12.179  18.667  0.00  0.00    +0.000 A 
ATOM      6  C   UNL     1       0.076  12.426  18.658  0.00  0.00    +0.000 A 
ATOM      7  C   UNL     1      -0.374  13.826  18.989  0.00  0.00    +0.000 C 
ENDROOT
BRANCH   1  11
ATOM      8  C   UNL     1      -5.017  11.751  17.735  0.00  0.00    +0.000 A 
ATOM      9  N   UNL     1      -4.244  11.428  16.666  0.00  0.00    +0.000 NA
ATOM     10  C   UNL     1      -2.904  11.371  16.865  0.00  0.00    +0.000 A 
ATOM     11  C   UNL     1      -2.270  11.567  18.084  0.00  0.00    +0.000 A 
ATOM     12  C   UNL     1      -3.123  11.951  19.134  0.00  0.00    +0.000 A 
ATOM     13  C   UNL     1      -4.517  12.076  19.006  0.00  0.00    +0.000 A 
BRANCH  13  14
ATOM     14  N   UNL     1      -5.242  12.528  20.095  0.00  0.00    +0.000 N 
ATOM     15  C   UNL     1      -6.376  11.778  20.659  0.00  0.00    +0.000 C 
ATOM     16  C   UNL     1      -7.432  12.788  21.153  0.00  0.00    +0.000 C 
ATOM     17  O   UNL     1      -6.885  13.745  22.079  0.00  0.00    +0.000 OA
ATOM     18  C   UNL     1      -5.807  14.472  21.463  0.00  0.00    +0.000 C 
ATOM     19  C   UNL     1      -4.683  13.523  21.021  0.00  0.00    +0.000 C 
ENDBRANCH  13  14
BRANCH   8  21
ATOM     20  C   UNL     1      -6.885  12.981  17.068  0.00  0.00    +0.000 C 
ATOM     21  O   UNL     1      -6.388  11.736  17.551  0.00  0.00    +0.000 OA
ENDBRANCH   8  21
ENDBRANCH   1  11
BRANCH   3  22
ATOM     22  N   UNL     1       1.705   8.571  17.944  0.00  0.00    +0.000 N 
ATOM     23  C   UNL     1       2.088   7.674  18.926  0.00  0.00    +0.000 C 
ATOM     24  O   UNL     1       1.974   7.820  20.139  0.00  0.00    +0.000 OA
ATOM     25  H   UNL     1       1.999   8.371  16.997  0.00  0.00    +0.000 HD
BRANCH  23  26
ATOM     26  C   UNL     1       2.783   6.448  18.443  0.00  0.00    +0.000 A 
ATOM     27  C   UNL     1       2.421   5.168  18.876  0.00  0.00    +0.000 A 
ATOM     28  C   UNL     1       3.101   4.051  18.385  0.00  0.00    +0.000 A 
ATOM     29  C   UNL     1       4.138   4.206  17.461  0.00  0.00    +0.000 A 
ATOM     30  C   UNL     1       4.517   5.483  17.022  0.00  0.00    +0.000 A 
ATOM     31  C   UNL     1       3.842   6.602  17.535  0.00  0.00    +0.000 A 
BRANCH  30  32
ATOM     32  C   UNL     1       5.620   5.670  16.008  0.00  0.00    +0.000 C 
ATOM     33  F   UNL     1       6.180   4.498  15.593  0.00  0.00    +0.000 F 
ATOM     34  F   UNL     1       5.183   6.291  14.877  0.00  0.00    +0.000 F 
ATOM     35  F   UNL     1       6.648   6.427  16.479  0.00  0.00    +0.000 F 
ENDBRANCH  30  32
ENDBRANCH  23  26
ENDBRANCH   3  22
TORSDOF 6
ENDMDL
MODEL 6
REMARK VINA RESULT:      -8.6      3.384      5.550
REMARK  Name = 
REMARK  8 active torsions:
REMARK  status: ('A' for Active; 'I' for Inactive)
REMARK    1  A    between atoms: C_1  and  O_2
REMARK    2  A    between atoms: O_2  and  C_3
REMARK    3  A    between atoms: C_6  and  C_7
REMARK    4  A    between atoms: C_9  and  N_10
REMARK    5  A    between atoms: C_11  and  C_13
REMARK    6  A    between atoms: C_17  and  C_18
REMARK    7  A    between atoms: C_25  and  C_26
REMARK    8  A    between atoms: C_28  and  N_29
REMARK                            x       y       z     vdW  Elec       q    Type
REMARK                         _______ _______ _______ _____ _____    ______ ____
ROOT
ATOM      1  C   UNL     1       0.322  11.147  20.665  0.00  0.00    +0.000 A 
ATOM      2  C   UNL     1       1.037  10.131  19.977  0.00  0.00    +0.000 A 
ATOM      3  C   UNL     1       1.214   8.843  20.493  0.00  0.00    +0.000 A 
ATOM      4  C   UNL     1       0.669   8.550  21.739  0.00  0.00    +0.000 A 
ATOM      5  C   UNL     1      -0.097   9.501  22.414  0.00  0.00    +0.000 A 
ATOM      6  C   UNL     1      -0.293  10.793  21.889  0.00  0.00    +0.000 A 
ATOM      7  C   UNL     1      -1.152  11.737  22.693  0.00  0.00    +0.000 C 
ENDROOT
BRANCH   1  11
ATOM      8  C   UNL     1       0.508  15.182  19.308  0.00  0.00    +0.000 A 
ATOM      9  N   UNL     1      -0.715  14.609  19.450  0.00  0.00    +0.000 NA
ATOM     10  C   UNL     1      -0.750  13.307  19.826  0.00  0.00    +0.000 A 
ATOM     11  C   UNL     1       0.363  12.534  20.126  0.00  0.00    +0.000 A 
ATOM     12  C   UNL     1       1.597  13.171  19.905  0.00  0.00    +0.000 A 
ATOM     13  C   UNL     1       1.726  14.503  19.476  0.00  0.00    +0.000 A 
BRANCH  13  14
ATOM     14  N   UNL     1       2.995  14.997  19.229  0.00  0.00    +0.000 N 
ATOM     15  C   UNL     1       3.504  15.231  17.869  0.00  0.00    +0.000 C 
ATOM     16  C   UNL     1       5.012  14.909  17.849  0.00  0.00    +0.000 C 
ATOM     17  O   UNL     1       5.743  15.644  18.849  0.00  0.00    +0.000 OA
ATOM     18  C   UNL     1       5.226  15.348  20.159  0.00  0.00    +0.000 C 
ATOM     19  C   UNL     1       3.742  15.726  20.265  0.00  0.00    +0.000 C 
ENDBRANCH  13  14
BRANCH   8  21
ATOM     20  C   UNL     1      -0.719  17.014  18.545  0.00  0.00    +0.000 C 
ATOM     21  O   UNL     1       0.542  16.530  18.998  0.00  0.00    +0.000 OA
ENDBRANCH   8  21
ENDBRANCH   1  11
BRANCH   3  22
ATOM     22  N   UNL     1       1.920   7.813  19.828  0.00  0.00    +0.000 N 
ATOM     23  C   UNL     1       2.309   7.807  18.500  0.00  0.00    +0.000 C 
ATOM     24  O   UNL     1       2.124   8.698  17.677  0.00  0.00    +0.000 OA
ATOM     25  H   UNL     1       2.014   6.946  20.340  0.00  0.00    +0.000 HD
BRANCH  23  26
ATOM     26  C   UNL     1       2.944   6.548  18.020  0.00  0.00    +0.000 A 
ATOM     27  C   UNL     1       4.165   6.543  17.338  0.00  0.00    +0.000 A 
ATOM     28  C   UNL     1       4.719   5.332  16.917  0.00  0.00    +0.000 A 
ATOM     29  C   UNL     1       4.063   4.127  17.177  0.00  0.00    +0.000 A 
ATOM     30  C   UNL     1       2.834   4.115  17.855  0.00  0.00    +0.000 A 
ATOM     31  C   UNL     1       2.274   5.338  18.257  0.00  0.00    +0.000 A 
BRANCH  30  32
ATOM     32  C   UNL     1       2.119   2.822  18.164  0.00  0.00    +0.000 C 
ATOM     33  F   UNL     1       2.322   1.853  17.227  0.00  0.00    +0.000 F 
ATOM     34  F   UNL     1       2.520   2.281  19.348  0.00  0.00    +0.000 F 
ATOM     35  F   UNL     1       0.770   2.973  18.256  0.00  0.00    +0.000 F 
ENDBRANCH  30  32
ENDBRANCH  23  26
ENDBRANCH   3  22
TORSDOF 6
ENDMDL
MODEL 7
REMARK VINA RESULT:      -8.6      3.565      5.801
REMARK  Name = 
REMARK  8 active torsions:
REMARK  status: ('A' for Active; 'I' for Inactive)
REMARK    1  A    between atoms: C_1  and  O_2
REMARK    2  A    between atoms: O_2  and  C_3
REMARK    3  A    between atoms: C_6  and  C_7
REMARK    4  A    between atoms: C_9  and  N_10
REMARK    5  A    between atoms: C_11  and  C_13
REMARK    6  A    between atoms: C_17  and  C_18
REMARK    7  A    between atoms: C_25  and  C_26
REMARK    8  A    between atoms: C_28  and  N_29
REMARK                            x       y       z     vdW  Elec       q    Type
REMARK                         _______ _______ _______ _____ _____    ______ ____
ROOT
ATOM      1  C   UNL     1       0.055  11.501  21.209  0.00  0.00    +0.000 A 
ATOM      2  C   UNL     1       0.742  10.354  20.728  0.00  0.00    +0.000 A 
ATOM      3  C   UNL     1       0.817   9.156  21.446  0.00  0.00    +0.000 A 
ATOM      4  C   UNL     1       0.195   9.091  22.689  0.00  0.00    +0.000 A 
ATOM      5  C   UNL     1      -0.546  10.174  23.163  0.00  0.00    +0.000 A 
ATOM      6  C   UNL     1      -0.639  11.375  22.435  0.00  0.00    +0.000 A 
ATOM      7  C   UNL     1      -1.478  12.476  23.032  0.00  0.00    +0.000 C 
ENDROOT
BRANCH   1  11
ATOM      8  C   UNL     1       0.548  15.257  19.258  0.00  0.00    +0.000 A 
ATOM      9  N   UNL     1      -0.713  14.778  19.418  0.00  0.00    +0.000 NA
ATOM     10  C   UNL     1      -0.844  13.555  19.988  0.00  0.00    +0.000 A 
ATOM     11  C   UNL     1       0.205  12.781  20.465  0.00  0.00    +0.000 A 
ATOM     12  C   UNL     1       1.484  13.311  20.218  0.00  0.00    +0.000 A 
ATOM     13  C   UNL     1       1.713  14.550  19.596  0.00  0.00    +0.000 A 
BRANCH  13  14
ATOM     14  N   UNL     1       3.020  14.933  19.348  0.00  0.00    +0.000 N 
ATOM     15  C   UNL     1       3.571  15.034  17.987  0.00  0.00    +0.000 C 
ATOM     16  C   UNL     1       5.052  14.603  18.025  0.00  0.00    +0.000 C 
ATOM     17  O   UNL     1       5.815  15.350  18.991  0.00  0.00    +0.000 OA
ATOM     18  C   UNL     1       5.253  15.184  20.305  0.00  0.00    +0.000 C 
ATOM     19  C   UNL     1       3.799  15.675  20.349  0.00  0.00    +0.000 C 
ENDBRANCH  13  14
BRANCH   8  21
ATOM     20  C   UNL     1      -0.513  16.988  18.107  0.00  0.00    +0.000 C 
ATOM     21  O   UNL     1       0.678  16.535  18.746  0.00  0.00    +0.000 OA
ENDBRANCH   8  21
ENDBRANCH   1  11
BRANCH   3  22
ATOM     22  N   UNL     1       1.492   8.000  20.990  0.00  0.00    +0.000 N 
ATOM     23  C   UNL     1       1.984   7.783  19.715  0.00  0.00    +0.000 C 
ATOM     24  O   UNL     1       1.933   8.560  18.767  0.00  0.00    +0.000 OA
ATOM     25  H   UNL     1       1.479   7.208  21.620  0.00  0.00    +0.000 HD
BRANCH  23  26
ATOM     26  C   UNL     1       2.556   6.431  19.466  0.00  0.00    +0.000 A 
ATOM     27  C   UNL     1       3.571   6.213  18.528  0.00  0.00    +0.000 A 
ATOM     28  C   UNL     1       4.077   4.925  18.340  0.00  0.00    +0.000 A 
ATOM     29  C   UNL     1       3.579   3.855  19.087  0.00  0.00    +0.000 A 
ATOM     30  C   UNL     1       2.556   4.055  20.027  0.00  0.00    +0.000 A 
ATOM     31  C   UNL     1       2.039   5.349  20.196  0.00  0.00    +0.000 A 
BRANCH  30  32
ATOM     32  C   UNL     1       2.019   2.915  20.858  0.00  0.00    +0.000 C 
ATOM     33  F   UNL     1       0.837   3.205  21.474  0.00  0.00    +0.000 F 
ATOM     34  F   UNL     1       1.784   1.799  20.115  0.00  0.00    +0.000 F 
ATOM     35  F   UNL     1       2.871   2.536  21.849  0.00  0.00    +0.000 F 
ENDBRANCH  30  32
ENDBRANCH  23  26
ENDBRANCH   3  22
TORSDOF 6
ENDMDL
MODEL 8
REMARK VINA RESULT:      -8.6      1.845      2.426
REMARK  Name = 
REMARK  8 active torsions:
REMARK  status: ('A' for Active; 'I' for Inactive)
REMARK    1  A    between atoms: C_1  and  O_2
REMARK    2  A    between atoms: O_2  and  C_3
REMARK    3  A    between atoms: C_6  and  C_7
REMARK    4  A    between atoms: C_9  and  N_10
REMARK    5  A    between atoms: C_11  and  C_13
REMARK    6  A    between atoms: C_17  and  C_18
REMARK    7  A    between atoms: C_25  and  C_26
REMARK    8  A    between atoms: C_28  and  N_29
REMARK                            x       y       z     vdW  Elec       q    Type
REMARK                         _______ _______ _______ _____ _____    ______ ____
ROOT
ATOM      1  C   UNL     1      -0.531  11.405  18.565  0.00  0.00    +0.000 A 
ATOM      2  C   UNL     1      -0.046  10.103  18.275  0.00  0.00    +0.000 A 
ATOM      3  C   UNL     1       1.309   9.825  18.064  0.00  0.00    +0.000 A 
ATOM      4  C   UNL     1       2.217  10.876  18.138  0.00  0.00    +0.000 A 
ATOM      5  C   UNL     1       1.786  12.156  18.488  0.00  0.00    +0.000 A 
ATOM      6  C   UNL     1       0.426  12.436  18.718  0.00  0.00    +0.000 A 
ATOM      7  C   UNL     1       0.072  13.849  19.106  0.00  0.00    +0.000 C 
ENDROOT
BRANCH   1  11
ATOM      8  C   UNL     1      -4.759  11.909  18.742  0.00  0.00    +0.000 A 
ATOM      9  N   UNL     1      -4.230  11.300  17.648  0.00  0.00    +0.000 NA
ATOM     10  C   UNL     1      -2.879  11.203  17.585  0.00  0.00    +0.000 A 
ATOM     11  C   UNL     1      -2.003  11.629  18.572  0.00  0.00    +0.000 A 
ATOM     12  C   UNL     1      -2.611  12.299  19.649  0.00  0.00    +0.000 A 
ATOM     13  C   UNL     1      -3.999  12.482  19.774  0.00  0.00    +0.000 A 
BRANCH  13  14
ATOM     14  N   UNL     1      -4.474  13.217  20.847  0.00  0.00    +0.000 N 
ATOM     15  C   UNL     1      -4.770  14.656  20.753  0.00  0.00    +0.000 C 
ATOM     16  C   UNL     1      -4.411  15.318  22.099  0.00  0.00    +0.000 C 
ATOM     17  O   UNL     1      -5.070  14.686  23.213  0.00  0.00    +0.000 OA
ATOM     18  C   UNL     1      -4.715  13.294  23.276  0.00  0.00    +0.000 C 
ATOM     19  C   UNL     1      -5.124  12.561  21.990  0.00  0.00    +0.000 C 
ENDBRANCH  13  14
BRANCH   8  21
ATOM     20  C   UNL     1      -6.756  12.438  17.658  0.00  0.00    +0.000 C 
ATOM     21  O   UNL     1      -6.138  11.942  18.842  0.00  0.00    +0.000 OA
ENDBRANCH   8  21
ENDBRANCH   1  11
BRANCH   3  22
ATOM     22  N   UNL     1       1.819   8.538  17.775  0.00  0.00    +0.000 N 
ATOM     23  C   UNL     1       2.215   7.584  18.697  0.00  0.00    +0.000 C 
ATOM     24  O   UNL     1       2.178   7.685  19.919  0.00  0.00    +0.000 OA
ATOM     25  H   UNL     1       2.048   8.364  16.806  0.00  0.00    +0.000 HD
BRANCH  23  26
ATOM     26  C   UNL     1       2.822   6.350  18.126  0.00  0.00    +0.000 A 
ATOM     27  C   UNL     1       2.166   5.115  18.155  0.00  0.00    +0.000 A 
ATOM     28  C   UNL     1       2.778   3.990  17.598  0.00  0.00    +0.000 A 
ATOM     29  C   UNL     1       4.040   4.093  17.008  0.00  0.00    +0.000 A 
ATOM     30  C   UNL     1       4.715   5.322  16.977  0.00  0.00    +0.000 A 
ATOM     31  C   UNL     1       4.101   6.444  17.556  0.00  0.00    +0.000 A 
BRANCH  30  32
ATOM     32  C   UNL     1       6.071   5.459  16.326  0.00  0.00    +0.000 C 
ATOM     33  F   UNL     1       6.006   5.674  14.981  0.00  0.00    +0.000 F 
ATOM     34  F   UNL     1       6.785   6.502  16.833  0.00  0.00    +0.000 F 
ATOM     35  F   UNL     1       6.848   4.354  16.489  0.00  0.00    +0.000 F 
ENDBRANCH  30  32
ENDBRANCH  23  26
ENDBRANCH   3  22
TORSDOF 6
ENDMDL
MODEL 9
REMARK VINA RESULT:      -8.5      3.870      5.993
REMARK  Name = 
REMARK  8 active torsions:
REMARK  status: ('A' for Active; 'I' for Inactive)
REMARK    1  A    between atoms: C_1  and  O_2
REMARK    2  A    between atoms: O_2  and  C_3
REMARK    3  A    between atoms: C_6  and  C_7
REMARK    4  A    between atoms: C_9  and  N_10
REMARK    5  A    between atoms: C_11  and  C_13
REMARK    6  A    between atoms: C_17  and  C_18
REMARK    7  A    between atoms: C_25  and  C_26
REMARK    8  A    between atoms: C_28  and  N_29
REMARK                            x       y       z     vdW  Elec       q    Type
REMARK                         _______ _______ _______ _____ _____    ______ ____
ROOT
ATOM      1  C   UNL     1       0.533  10.713  20.406  0.00  0.00    +0.000 A 
ATOM      2  C   UNL     1       1.269   9.706  19.728  0.00  0.00    +0.000 A 
ATOM      3  C   UNL     1       1.506   8.439  20.273  0.00  0.00    +0.000 A 
ATOM      4  C   UNL     1       1.001   8.161  21.539  0.00  0.00    +0.000 A 
ATOM      5  C   UNL     1       0.215   9.101  22.207  0.00  0.00    +0.000 A 
ATOM      6  C   UNL     1      -0.040  10.370  21.653  0.00  0.00    +0.000 A 
ATOM      7  C   UNL     1      -0.914  11.303  22.452  0.00  0.00    +0.000 C 
ENDROOT
BRANCH   1  11
ATOM      8  C   UNL     1       0.510  14.716  18.947  0.00  0.00    +0.000 A 
ATOM      9  N   UNL     1      -0.667  14.038  18.977  0.00  0.00    +0.000 NA
ATOM     10  C   UNL     1      -0.627  12.747  19.389  0.00  0.00    +0.000 A 
ATOM     11  C   UNL     1       0.510  12.085  19.830  0.00  0.00    +0.000 A 
ATOM     12  C   UNL     1       1.700  12.827  19.720  0.00  0.00    +0.000 A 
ATOM     13  C   UNL     1       1.757  14.155  19.264  0.00  0.00    +0.000 A 
BRANCH  13  14
ATOM     14  N   UNL     1       2.997  14.756  19.138  0.00  0.00    +0.000 N 
ATOM     15  C   UNL     1       3.608  15.047  17.830  0.00  0.00    +0.000 C 
ATOM     16  C   UNL     1       5.133  14.853  17.949  0.00  0.00    +0.000 C 
ATOM     17  O   UNL     1       5.704  15.636  19.015  0.00  0.00    +0.000 OA
ATOM     18  C   UNL     1       5.096  15.284  20.270  0.00  0.00    +0.000 C 
ATOM     19  C   UNL     1       3.581  15.534  20.239  0.00  0.00    +0.000 C 
ENDBRANCH  13  14
BRANCH   8  21
ATOM     20  C   UNL     1       0.024  16.879  19.675  0.00  0.00    +0.000 C 
ATOM     21  O   UNL     1       0.459  16.054  18.598  0.00  0.00    +0.000 OA
ENDBRANCH   8  21
ENDBRANCH   1  11
BRANCH   3  22
ATOM     22  N   UNL     1       2.233   7.418  19.619  0.00  0.00    +0.000 N 
ATOM     23  C   UNL     1       2.712   7.451  18.321  0.00  0.00    +0.000 C 
ATOM     24  O   UNL     1       2.601   8.375  17.521  0.00  0.00    +0.000 OA
ATOM     25  H   UNL     1       2.275   6.531  20.103  0.00  0.00    +0.000 HD
BRANCH  23  26
ATOM     26  C   UNL     1       3.352   6.196  17.838  0.00  0.00    +0.000 A 
ATOM     27  C   UNL     1       2.663   4.979  17.792  0.00  0.00    +0.000 A 
ATOM     28  C   UNL     1       3.309   3.833  17.323  0.00  0.00    +0.000 A 
ATOM     29  C   UNL     1       4.638   3.897  16.894  0.00  0.00    +0.000 A 
ATOM     30  C   UNL     1       5.344   5.108  16.940  0.00  0.00    +0.000 A 
ATOM     31  C   UNL     1       4.694   6.251  17.432  0.00  0.00    +0.000 A 
BRANCH  30  32
ATOM     32  C   UNL     1       6.774   5.203  16.462  0.00  0.00    +0.000 C 
ATOM     33  F   UNL     1       6.912   4.993  15.122  0.00  0.00    +0.000 F 
ATOM     34  F   UNL     1       7.318   6.428  16.702  0.00  0.00    +0.000 F 
ATOM     35  F   UNL     1       7.593   4.301  17.067  0.00  0.00    +0.000 F 
ENDBRANCH  30  32
ENDBRANCH  23  26
ENDBRANCH   3  22
TORSDOF 6
ENDMDL
