MODEL 1
REMARK VINA RESULT:      -9.3      0.000      0.000
REMARK  Name = 
REMARK  7 active torsions:
REMARK  status: ('A' for Active; 'I' for Inactive)
REMARK    1  A    between atoms: C_1  and  C_2
REMARK    2  A    between atoms: C_11  and  O_12
REMARK    3  A    between atoms: O_12  and  C_13
REMARK    4  A    between atoms: C_13  and  C_14
REMARK    5  A    between atoms: N_16  and  C_17
REMARK    6  A    between atoms: C_17  and  C_18
REMARK    7  A    between atoms: C_19  and  C_20
REMARK                            x       y       z     vdW  Elec       q    Type
REMARK                         _______ _______ _______ _____ _____    ______ ____
ROOT
ATOM      1  O   UNL     1       3.811   4.529  18.419  0.00  0.00    +0.000 OA
ENDROOT
BRANCH   1  12
ATOM      2  C   UNL     1      -0.103   9.560  23.362  0.00  0.00    +0.000 C 
ATOM      3  C   UNL     1       0.191   9.843  21.924  0.00  0.00    +0.000 A 
ATOM      4  N   UNL     1      -0.230  11.025  21.397  0.00  0.00    +0.000 NA
ATOM      5  C   UNL     1       0.018  11.303  20.097  0.00  0.00    +0.000 A 
ATOM      6  C   UNL     1       0.689  10.467  19.220  0.00  0.00    +0.000 A 
ATOM      7  C   UNL     1       1.131   9.243  19.740  0.00  0.00    +0.000 A 
ATOM      8  C   UNL     1       0.870   8.960  21.079  0.00  0.00    +0.000 A 
ATOM      9  N   UNL     1       1.396   7.716  21.336  0.00  0.00    +0.000 N 
ATOM     10  C   UNL     1       1.986   7.187  20.214  0.00  0.00    +0.000 A 
ATOM     11  C   UNL     1       2.632   5.955  20.038  0.00  0.00    +0.000 A 
ATOM     12  C   UNL     1       3.147   5.672  18.769  0.00  0.00    +0.000 A 
ATOM     13  C   UNL     1       3.011   6.595  17.731  0.00  0.00    +0.000 A 
ATOM     14  C   UNL     1       2.363   7.819  17.924  0.00  0.00    +0.000 A 
ATOM     15  C   UNL     1       1.838   8.123  19.196  0.00  0.00    +0.000 A 
ATOM     16  H   UNL     1       1.350   7.252  22.231  0.00  0.00    +0.000 HD
ENDBRANCH   1  12
BRANCH   1  17
ATOM     17  C   UNL     1       4.973   4.180  19.172  0.00  0.00    +0.000 C 
BRANCH  17  18
ATOM     18  C   UNL     1       6.046   5.179  18.936  0.00  0.00    +0.000 A 
ATOM     19  C   UNL     1       6.153   6.120  17.934  0.00  0.00    +0.000 A 
ATOM     20  N   UNL     1       7.353   6.719  18.174  0.00  0.00    +0.000 N 
ATOM     21  N   UNL     1       7.940   6.216  19.274  0.00  0.00    +0.000 NA
ATOM     22  N   UNL     1       7.148   5.262  19.748  0.00  0.00    +0.000 NA
BRANCH  20  23
ATOM     23  C   UNL     1       7.967   7.803  17.429  0.00  0.00    +0.000 C 
BRANCH  23  24
ATOM     24  C   UNL     1       8.285   8.981  18.303  0.00  0.00    +0.000 C 
ATOM     25  C   UNL     1       9.071  10.014  17.958  0.00  0.00    +0.000 C 
BRANCH  25  26
ATOM     26  C   UNL     1       9.257  11.127  18.888  0.00  0.00    +0.000 A 
ATOM     27  C   UNL     1       9.313  12.444  18.416  0.00  0.00    +0.000 A 
ATOM     28  C   UNL     1       9.601  13.492  19.296  0.00  0.00    +0.000 A 
ATOM     29  C   UNL     1       9.828  13.223  20.644  0.00  0.00    +0.000 A 
ATOM     30 CL   UNL     1      10.227  14.507  21.717  0.00  0.00    +0.000 Cl
ATOM     31  C   UNL     1       9.750  11.918  21.127  0.00  0.00    +0.000 A 
ATOM     32  C   UNL     1       9.465  10.870  20.248  0.00  0.00    +0.000 A 
ENDBRANCH  25  26
ENDBRANCH  23  24
ENDBRANCH  20  23
ENDBRANCH  17  18
ENDBRANCH   1  17
TORSDOF 6
ENDMDL
MODEL 2
REMARK VINA RESULT:      -9.3      0.660      1.118
REMARK  Name = 
REMARK  7 active torsions:
REMARK  status: ('A' for Active; 'I' for Inactive)
REMARK    1  A    between atoms: C_1  and  C_2
REMARK    2  A    between atoms: C_11  and  O_12
REMARK    3  A    between atoms: O_12  and  C_13
REMARK    4  A    between atoms: C_13  and  C_14
REMARK    5  A    between atoms: N_16  and  C_17
REMARK    6  A    between atoms: C_17  and  C_18
REMARK    7  A    between atoms: C_19  and  C_20
REMARK                            x       y       z     vdW  Elec       q    Type
REMARK                         _______ _______ _______ _____ _____    ______ ____
ROOT
ATOM      1  O   UNL     1       3.428   3.835  18.667  0.00  0.00    +0.000 OA
ENDROOT
BRANCH   1  12
ATOM      2  C   UNL     1       0.113   9.545  23.300  0.00  0.00    +0.000 C 
ATOM      3  C   UNL     1       0.475   9.726  21.861  0.00  0.00    +0.000 A 
ATOM      4  N   UNL     1       0.229  10.930  21.278  0.00  0.00    +0.000 NA
ATOM      5  C   UNL     1       0.542  11.118  19.976  0.00  0.00    +0.000 A 
ATOM      6  C   UNL     1       1.114  10.164  19.150  0.00  0.00    +0.000 A 
ATOM      7  C   UNL     1       1.376   8.914  19.730  0.00  0.00    +0.000 A 
ATOM      8  C   UNL     1       1.049   8.726  21.071  0.00  0.00    +0.000 A 
ATOM      9  N   UNL     1       1.397   7.435  21.390  0.00  0.00    +0.000 N 
ATOM     10  C   UNL     1       1.936   6.785  20.306  0.00  0.00    +0.000 A 
ATOM     11  C   UNL     1       2.414   5.471  20.196  0.00  0.00    +0.000 A 
ATOM     12  C   UNL     1       2.916   5.070  18.954  0.00  0.00    +0.000 A 
ATOM     13  C   UNL     1       2.929   5.958  17.878  0.00  0.00    +0.000 A 
ATOM     14  C   UNL     1       2.447   7.265  18.005  0.00  0.00    +0.000 A 
ATOM     15  C   UNL     1       1.938   7.690  19.250  0.00  0.00    +0.000 A 
ATOM     16  H   UNL     1       1.269   7.019  22.300  0.00  0.00    +0.000 HD
ENDBRANCH   1  12
BRANCH   1  17
ATOM     17  C   UNL     1       4.700   3.499  19.224  0.00  0.00    +0.000 C 
BRANCH  17  18
ATOM     18  C   UNL     1       5.677   4.580  18.939  0.00  0.00    +0.000 A 
ATOM     19  C   UNL     1       5.886   5.277  17.768  0.00  0.00    +0.000 A 
ATOM     20  N   UNL     1       6.931   6.101  18.059  0.00  0.00    +0.000 N 
ATOM     21  N   UNL     1       7.324   5.961  19.338  0.00  0.00    +0.000 NA
ATOM     22  N   UNL     1       6.564   5.021  19.887  0.00  0.00    +0.000 NA
BRANCH  20  23
ATOM     23  C   UNL     1       7.561   7.076  17.187  0.00  0.00    +0.000 C 
BRANCH  23  24
ATOM     24  C   UNL     1       8.176   8.208  17.956  0.00  0.00    +0.000 C 
ATOM     25  C   UNL     1       8.287   9.474  17.519  0.00  0.00    +0.000 C 
BRANCH  25  26
ATOM     26  C   UNL     1       8.862  10.496  18.392  0.00  0.00    +0.000 A 
ATOM     27  C   UNL     1       9.238  10.181  19.702  0.00  0.00    +0.000 A 
ATOM     28  C   UNL     1       9.684  11.188  20.565  0.00  0.00    +0.000 A 
ATOM     29  C   UNL     1       9.755  12.505  20.115  0.00  0.00    +0.000 A 
ATOM     30 CL   UNL     1      10.259  13.749  21.191  0.00  0.00    +0.000 Cl
ATOM     31  C   UNL     1       9.405  12.823  18.805  0.00  0.00    +0.000 A 
ATOM     32  C   UNL     1       8.958  11.819  17.943  0.00  0.00    +0.000 A 
ENDBRANCH  25  26
ENDBRANCH  23  24
ENDBRANCH  20  23
ENDBRANCH  17  18
ENDBRANCH   1  17
TORSDOF 6
ENDMDL
MODEL 3
REMARK VINA RESULT:      -9.0      5.282      9.771
REMARK  Name = 
REMARK  7 active torsions:
REMARK  status: ('A' for Active; 'I' for Inactive)
REMARK    1  A    between atoms: C_1  and  C_2
REMARK    2  A    between atoms: C_11  and  O_12
REMARK    3  A    between atoms: O_12  and  C_13
REMARK    4  A    between atoms: C_13  and  C_14
REMARK    5  A    between atoms: N_16  and  C_17
REMARK    6  A    between atoms: C_17  and  C_18
REMARK    7  A    between atoms: C_19  and  C_20
REMARK                            x       y       z     vdW  Elec       q    Type
REMARK                         _______ _______ _______ _____ _____    ______ ____
ROOT
ATOM      1  O   UNL     1       4.422   5.328  19.595  0.00  0.00    +0.000 OA
ENDROOT
BRANCH   1  12
ATOM      2  C   UNL     1       8.829   6.050  12.878  0.00  0.00    +0.000 C 
ATOM      3  C   UNL     1       7.690   5.095  13.046  0.00  0.00    +0.000 A 
ATOM      4  N   UNL     1       7.360   4.291  12.001  0.00  0.00    +0.000 NA
ATOM      5  C   UNL     1       6.331   3.422  12.124  0.00  0.00    +0.000 A 
ATOM      6  C   UNL     1       5.554   3.268  13.261  0.00  0.00    +0.000 A 
ATOM      7  C   UNL     1       5.876   4.088  14.352  0.00  0.00    +0.000 A 
ATOM      8  C   UNL     1       6.935   4.983  14.217  0.00  0.00    +0.000 A 
ATOM      9  N   UNL     1       7.041   5.661  15.408  0.00  0.00    +0.000 N 
ATOM     10  C   UNL     1       6.090   5.237  16.305  0.00  0.00    +0.000 A 
ATOM     11  C   UNL     1       5.846   5.663  17.619  0.00  0.00    +0.000 A 
ATOM     12  C   UNL     1       4.797   5.048  18.310  0.00  0.00    +0.000 A 
ATOM     13  C   UNL     1       4.034   4.053  17.697  0.00  0.00    +0.000 A 
ATOM     14  C   UNL     1       4.292   3.642  16.385  0.00  0.00    +0.000 A 
ATOM     15  C   UNL     1       5.345   4.249  15.671  0.00  0.00    +0.000 A 
ATOM     16  H   UNL     1       7.725   6.379  15.596  0.00  0.00    +0.000 HD
ENDBRANCH   1  12
BRANCH   1  17
ATOM     17  C   UNL     1       3.027   5.300  19.900  0.00  0.00    +0.000 C 
BRANCH  17  18
ATOM     18  C   UNL     1       2.438   6.647  19.691  0.00  0.00    +0.000 A 
ATOM     19  C   UNL     1       2.352   7.389  18.532  0.00  0.00    +0.000 A 
ATOM     20  N   UNL     1       1.772   8.555  18.932  0.00  0.00    +0.000 N 
ATOM     21  N   UNL     1       1.477   8.531  20.244  0.00  0.00    +0.000 NA
ATOM     22  N   UNL     1       1.889   7.364  20.724  0.00  0.00    +0.000 NA
BRANCH  20  23
ATOM     23  C   UNL     1       1.427   9.701  18.110  0.00  0.00    +0.000 C 
BRANCH  23  24
ATOM     24  C   UNL     1      -0.056   9.913  18.029  0.00  0.00    +0.000 C 
ATOM     25  C   UNL     1      -0.733  10.900  18.638  0.00  0.00    +0.000 C 
BRANCH  25  26
ATOM     26  C   UNL     1      -2.176  11.025  18.434  0.00  0.00    +0.000 A 
ATOM     27  C   UNL     1      -2.900  12.032  19.082  0.00  0.00    +0.000 A 
ATOM     28  C   UNL     1      -4.294  12.077  18.968  0.00  0.00    +0.000 A 
ATOM     29  C   UNL     1      -4.958  11.119  18.205  0.00  0.00    +0.000 A 
ATOM     30 CL   UNL     1      -6.676  11.148  18.103  0.00  0.00    +0.000 Cl
ATOM     31  C   UNL     1      -4.243  10.128  17.537  0.00  0.00    +0.000 A 
ATOM     32  C   UNL     1      -2.851  10.081  17.651  0.00  0.00    +0.000 A 
ENDBRANCH  25  26
ENDBRANCH  23  24
ENDBRANCH  20  23
ENDBRANCH  17  18
ENDBRANCH   1  17
TORSDOF 6
ENDMDL
MODEL 4
REMARK VINA RESULT:      -8.8      1.453      2.111
REMARK  Name = 
REMARK  7 active torsions:
REMARK  status: ('A' for Active; 'I' for Inactive)
REMARK    1  A    between atoms: C_1  and  C_2
REMARK    2  A    between atoms: C_11  and  O_12
REMARK    3  A    between atoms: O_12  and  C_13
REMARK    4  A    between atoms: C_13  and  C_14
REMARK    5  A    between atoms: N_16  and  C_17
REMARK    6  A    between atoms: C_17  and  C_18
REMARK    7  A    between atoms: C_19  and  C_20
REMARK                            x       y       z     vdW  Elec       q    Type
REMARK                         _______ _______ _______ _____ _____    ______ ____
ROOT
ATOM      1  O   UNL     1       2.494   6.270  20.106  0.00  0.00    +0.000 OA
ENDROOT
BRANCH   1  12
ATOM      2  C   UNL     1      -2.120  12.179  23.081  0.00  0.00    +0.000 C 
ATOM      3  C   UNL     1      -1.527  12.176  21.709  0.00  0.00    +0.000 A 
ATOM      4  N   UNL     1      -1.779  13.235  20.893  0.00  0.00    +0.000 NA
ATOM      5  C   UNL     1      -1.259  13.255  19.645  0.00  0.00    +0.000 A 
ATOM      6  C   UNL     1      -0.461  12.262  19.101  0.00  0.00    +0.000 A 
ATOM      7  C   UNL     1      -0.188  11.160  19.924  0.00  0.00    +0.000 A 
ATOM      8  C   UNL     1      -0.729  11.144  21.208  0.00  0.00    +0.000 A 
ATOM      9  N   UNL     1      -0.323   9.971  21.799  0.00  0.00    +0.000 N 
ATOM     10  C   UNL     1       0.461   9.232  20.945  0.00  0.00    +0.000 A 
ATOM     11  C   UNL     1       1.073   7.987  21.145  0.00  0.00    +0.000 A 
ATOM     12  C   UNL     1       1.824   7.462  20.088  0.00  0.00    +0.000 A 
ATOM     13  C   UNL     1       1.944   8.166  18.889  0.00  0.00    +0.000 A 
ATOM     14  C   UNL     1       1.325   9.407  18.708  0.00  0.00    +0.000 A 
ATOM     15  C   UNL     1       0.565   9.954  19.761  0.00  0.00    +0.000 A 
ATOM     16  H   UNL     1      -0.571   9.690  22.736  0.00  0.00    +0.000 HD
ENDBRANCH   1  12
BRANCH   1  17
ATOM     17  C   UNL     1       2.893   5.714  18.852  0.00  0.00    +0.000 C 
BRANCH  17  18
ATOM     18  C   UNL     1       4.364   5.841  18.689  0.00  0.00    +0.000 A 
ATOM     19  C   UNL     1       5.077   6.473  17.694  0.00  0.00    +0.000 A 
ATOM     20  N   UNL     1       6.377   6.229  18.017  0.00  0.00    +0.000 N 
ATOM     21  N   UNL     1       6.475   5.526  19.160  0.00  0.00    +0.000 NA
ATOM     22  N   UNL     1       5.241   5.275  19.579  0.00  0.00    +0.000 NA
BRANCH  20  23
ATOM     23  C   UNL     1       7.566   6.678  17.314  0.00  0.00    +0.000 C 
BRANCH  23  24
ATOM     24  C   UNL     1       8.185   7.882  17.961  0.00  0.00    +0.000 C 
ATOM     25  C   UNL     1       7.964   9.157  17.600  0.00  0.00    +0.000 C 
BRANCH  25  26
ATOM     26  C   UNL     1       8.592  10.243  18.351  0.00  0.00    +0.000 A 
ATOM     27  C   UNL     1       8.721  11.516  17.783  0.00  0.00    +0.000 A 
ATOM     28  C   UNL     1       9.420  12.519  18.463  0.00  0.00    +0.000 A 
ATOM     29  C   UNL     1       9.985  12.249  19.708  0.00  0.00    +0.000 A 
ATOM     30 CL   UNL     1      10.885  13.469  20.521  0.00  0.00    +0.000 Cl
ATOM     31  C   UNL     1       9.841  10.991  20.290  0.00  0.00    +0.000 A 
ATOM     32  C   UNL     1       9.144   9.989  19.612  0.00  0.00    +0.000 A 
ENDBRANCH  25  26
ENDBRANCH  23  24
ENDBRANCH  20  23
ENDBRANCH  17  18
ENDBRANCH   1  17
TORSDOF 6
ENDMDL
MODEL 5
REMARK VINA RESULT:      -8.8      3.072      5.937
REMARK  Name = 
REMARK  7 active torsions:
REMARK  status: ('A' for Active; 'I' for Inactive)
REMARK    1  A    between atoms: C_1  and  C_2
REMARK    2  A    between atoms: C_11  and  O_12
REMARK    3  A    between atoms: O_12  and  C_13
REMARK    4  A    between atoms: C_13  and  C_14
REMARK    5  A    between atoms: N_16  and  C_17
REMARK    6  A    between atoms: C_17  and  C_18
REMARK    7  A    between atoms: C_19  and  C_20
REMARK                            x       y       z     vdW  Elec       q    Type
REMARK                         _______ _______ _______ _____ _____    ______ ____
ROOT
ATOM      1  O   UNL     1       0.735  11.330  19.307  0.00  0.00    +0.000 OA
ENDROOT
BRANCH   1  12
ATOM      2  C   UNL     1       2.321   3.799  21.721  0.00  0.00    +0.000 C 
ATOM      3  C   UNL     1       2.675   4.350  20.377  0.00  0.00    +0.000 A 
ATOM      4  N   UNL     1       3.314   3.539  19.492  0.00  0.00    +0.000 NA
ATOM      5  C   UNL     1       3.650   4.014  18.272  0.00  0.00    +0.000 A 
ATOM      6  C   UNL     1       3.392   5.298  17.821  0.00  0.00    +0.000 A 
ATOM      7  C   UNL     1       2.735   6.154  18.717  0.00  0.00    +0.000 A 
ATOM      8  C   UNL     1       2.394   5.658  19.974  0.00  0.00    +0.000 A 
ATOM      9  N   UNL     1       1.773   6.681  20.652  0.00  0.00    +0.000 N 
ATOM     10  C   UNL     1       1.700   7.815  19.880  0.00  0.00    +0.000 A 
ATOM     11  C   UNL     1       1.155   9.071  20.182  0.00  0.00    +0.000 A 
ATOM     12  C   UNL     1       1.220  10.056  19.192  0.00  0.00    +0.000 A 
ATOM     13  C   UNL     1       1.811   9.781  17.958  0.00  0.00    +0.000 A 
ATOM     14  C   UNL     1       2.351   8.521  17.674  0.00  0.00    +0.000 A 
ATOM     15  C   UNL     1       2.294   7.514  18.658  0.00  0.00    +0.000 A 
ATOM     16  H   UNL     1       1.420   6.607  21.595  0.00  0.00    +0.000 HD
ENDBRANCH   1  12
BRANCH   1  17
ATOM     17  C   UNL     1       1.355  12.192  20.262  0.00  0.00    +0.000 C 
BRANCH  17  18
ATOM     18  C   UNL     1       2.195  13.198  19.562  0.00  0.00    +0.000 A 
ATOM     19  C   UNL     1       3.285  13.899  20.031  0.00  0.00    +0.000 A 
ATOM     20  N   UNL     1       3.622  14.712  18.992  0.00  0.00    +0.000 N 
ATOM     21  N   UNL     1       2.824  14.507  17.929  0.00  0.00    +0.000 NA
ATOM     22  N   UNL     1       1.936  13.582  18.271  0.00  0.00    +0.000 NA
BRANCH  20  23
ATOM     23  C   UNL     1       4.719  15.663  18.929  0.00  0.00    +0.000 C 
BRANCH  23  24
ATOM     24  C   UNL     1       6.056  14.993  19.048  0.00  0.00    +0.000 C 
ATOM     25  C   UNL     1       6.733  14.426  18.035  0.00  0.00    +0.000 C 
BRANCH  25  26
ATOM     26  C   UNL     1       8.055  13.851  18.277  0.00  0.00    +0.000 A 
ATOM     27  C   UNL     1       8.482  12.726  17.564  0.00  0.00    +0.000 A 
ATOM     28  C   UNL     1       9.701  12.116  17.878  0.00  0.00    +0.000 A 
ATOM     29  C   UNL     1      10.492  12.636  18.901  0.00  0.00    +0.000 A 
ATOM     30 CL   UNL     1      11.969  11.858  19.318  0.00  0.00    +0.000 Cl
ATOM     31  C   UNL     1      10.086  13.770  19.601  0.00  0.00    +0.000 A 
ATOM     32  C   UNL     1       8.868  14.378  19.289  0.00  0.00    +0.000 A 
ENDBRANCH  25  26
ENDBRANCH  23  24
ENDBRANCH  20  23
ENDBRANCH  17  18
ENDBRANCH   1  17
TORSDOF 6
ENDMDL
MODEL 6
REMARK VINA RESULT:      -8.7      5.096      9.639
REMARK  Name = 
REMARK  7 active torsions:
REMARK  status: ('A' for Active; 'I' for Inactive)
REMARK    1  A    between atoms: C_1  and  C_2
REMARK    2  A    between atoms: C_11  and  O_12
REMARK    3  A    between atoms: O_12  and  C_13
REMARK    4  A    between atoms: C_13  and  C_14
REMARK    5  A    between atoms: N_16  and  C_17
REMARK    6  A    between atoms: C_17  and  C_18
REMARK    7  A    between atoms: C_19  and  C_20
REMARK                            x       y       z     vdW  Elec       q    Type
REMARK                         _______ _______ _______ _____ _____    ______ ____
ROOT
ATOM      1  O   UNL     1       4.608   5.230  19.538  0.00  0.00    +0.000 OA
ENDROOT
BRANCH   1  12
ATOM      2  C   UNL     1       5.271   2.614  11.937  0.00  0.00    +0.000 C 
ATOM      3  C   UNL     1       6.169   3.631  12.565  0.00  0.00    +0.000 A 
ATOM      4  N   UNL     1       7.176   4.156  11.816  0.00  0.00    +0.000 NA
ATOM      5  C   UNL     1       8.006   5.074  12.361  0.00  0.00    +0.000 A 
ATOM      6  C   UNL     1       7.922   5.549  13.659  0.00  0.00    +0.000 A 
ATOM      7  C   UNL     1       6.892   5.021  14.451  0.00  0.00    +0.000 A 
ATOM      8  C   UNL     1       6.042   4.074  13.884  0.00  0.00    +0.000 A 
ATOM      9  N   UNL     1       5.135   3.718  14.855  0.00  0.00    +0.000 N 
ATOM     10  C   UNL     1       5.368   4.400  16.024  0.00  0.00    +0.000 A 
ATOM     11  C   UNL     1       4.689   4.337  17.249  0.00  0.00    +0.000 A 
ATOM     12  C   UNL     1       5.150   5.155  18.285  0.00  0.00    +0.000 A 
ATOM     13  C   UNL     1       6.247   5.994  18.087  0.00  0.00    +0.000 A 
ATOM     14  C   UNL     1       6.914   6.044  16.858  0.00  0.00    +0.000 A 
ATOM     15  C   UNL     1       6.464   5.228  15.801  0.00  0.00    +0.000 A 
ATOM     16  H   UNL     1       4.398   3.041  14.725  0.00  0.00    +0.000 HD
ENDBRANCH   1  12
BRANCH   1  17
ATOM     17  C   UNL     1       3.187   5.138  19.653  0.00  0.00    +0.000 C 
BRANCH  17  18
ATOM     18  C   UNL     1       2.580   6.484  19.489  0.00  0.00    +0.000 A 
ATOM     19  C   UNL     1       2.573   7.306  18.382  0.00  0.00    +0.000 A 
ATOM     20  N   UNL     1       1.930   8.427  18.811  0.00  0.00    +0.000 N 
ATOM     21  N   UNL     1       1.524   8.302  20.087  0.00  0.00    +0.000 NA
ATOM     22  N   UNL     1       1.926   7.112  20.517  0.00  0.00    +0.000 NA
BRANCH  20  23
ATOM     23  C   UNL     1       1.624   9.622  18.045  0.00  0.00    +0.000 C 
BRANCH  23  24
ATOM     24  C   UNL     1       0.261  10.163  18.360  0.00  0.00    +0.000 C 
ATOM     25  C   UNL     1      -0.840   9.975  17.614  0.00  0.00    +0.000 C 
BRANCH  25  26
ATOM     26  C   UNL     1      -2.123  10.515  18.063  0.00  0.00    +0.000 A 
ATOM     27  C   UNL     1      -3.323  10.034  17.527  0.00  0.00    +0.000 A 
ATOM     28  C   UNL     1      -4.538  10.630  17.880  0.00  0.00    +0.000 A 
ATOM     29  C   UNL     1      -4.550  11.703  18.769  0.00  0.00    +0.000 A 
ATOM     30 CL   UNL     1      -6.040  12.466  19.166  0.00  0.00    +0.000 Cl
ATOM     31  C   UNL     1      -3.363  12.173  19.326  0.00  0.00    +0.000 A 
ATOM     32  C   UNL     1      -2.149  11.579  18.973  0.00  0.00    +0.000 A 
ENDBRANCH  25  26
ENDBRANCH  23  24
ENDBRANCH  20  23
ENDBRANCH  17  18
ENDBRANCH   1  17
TORSDOF 6
ENDMDL
MODEL 7
REMARK VINA RESULT:      -8.6      4.385      6.320
REMARK  Name = 
REMARK  7 active torsions:
REMARK  status: ('A' for Active; 'I' for Inactive)
REMARK    1  A    between atoms: C_1  and  C_2
REMARK    2  A    between atoms: C_11  and  O_12
REMARK    3  A    between atoms: O_12  and  C_13
REMARK    4  A    between atoms: C_13  and  C_14
REMARK    5  A    between atoms: N_16  and  C_17
REMARK    6  A    between atoms: C_17  and  C_18
REMARK    7  A    between atoms: C_19  and  C_20
REMARK                            x       y       z     vdW  Elec       q    Type
REMARK                         _______ _______ _______ _____ _____    ______ ____
ROOT
ATOM      1  O   UNL     1       7.693   8.204  17.384  0.00  0.00    +0.000 OA
ENDROOT
BRANCH   1  12
ATOM      2  C   UNL     1       4.709   1.393  20.509  0.00  0.00    +0.000 C 
ATOM      3  C   UNL     1       4.092   2.147  19.375  0.00  0.00    +0.000 A 
ATOM      4  N   UNL     1       2.951   1.659  18.818  0.00  0.00    +0.000 NA
ATOM      5  C   UNL     1       2.375   2.318  17.788  0.00  0.00    +0.000 A 
ATOM      6  C   UNL     1       2.855   3.490  17.227  0.00  0.00    +0.000 A 
ATOM      7  C   UNL     1       4.032   4.012  17.784  0.00  0.00    +0.000 A 
ATOM      8  C   UNL     1       4.622   3.326  18.844  0.00  0.00    +0.000 A 
ATOM      9  N   UNL     1       5.747   4.031  19.200  0.00  0.00    +0.000 N 
ATOM     10  C   UNL     1       5.903   5.145  18.412  0.00  0.00    +0.000 A 
ATOM     11  C   UNL     1       6.906   6.125  18.435  0.00  0.00    +0.000 A 
ATOM     12  C   UNL     1       6.815   7.163  17.502  0.00  0.00    +0.000 A 
ATOM     13  C   UNL     1       5.759   7.202  16.591  0.00  0.00    +0.000 A 
ATOM     14  C   UNL     1       4.767   6.215  16.581  0.00  0.00    +0.000 A 
ATOM     15  C   UNL     1       4.841   5.160  17.514  0.00  0.00    +0.000 A 
ATOM     16  H   UNL     1       6.376   3.763  19.942  0.00  0.00    +0.000 HD
ENDBRANCH   1  12
BRANCH   1  17
ATOM     17  C   UNL     1       8.644   8.392  18.434  0.00  0.00    +0.000 C 
BRANCH  17  18
ATOM     18  C   UNL     1       8.864   9.843  18.660  0.00  0.00    +0.000 A 
ATOM     19  C   UNL     1       9.312  10.489  19.793  0.00  0.00    +0.000 A 
ATOM     20  N   UNL     1       9.270  11.808  19.456  0.00  0.00    +0.000 N 
ATOM     21  N   UNL     1       8.863  11.976  18.185  0.00  0.00    +0.000 NA
ATOM     22  N   UNL     1       8.603  10.774  17.687  0.00  0.00    +0.000 NA
BRANCH  20  23
ATOM     23  C   UNL     1       9.652  12.945  20.274  0.00  0.00    +0.000 C 
BRANCH  23  24
ATOM     24  C   UNL     1       9.222  12.784  21.703  0.00  0.00    +0.000 C 
ATOM     25  C   UNL     1       7.968  12.936  22.158  0.00  0.00    +0.000 C 
BRANCH  25  26
ATOM     26  C   UNL     1       7.674  12.697  23.570  0.00  0.00    +0.000 A 
ATOM     27  C   UNL     1       8.418  13.338  24.568  0.00  0.00    +0.000 A 
ATOM     28  C   UNL     1       8.204  13.021  25.914  0.00  0.00    +0.000 A 
ATOM     29  C   UNL     1       7.247  12.069  26.259  0.00  0.00    +0.000 A 
ATOM     30 CL   UNL     1       7.017  11.647  27.911  0.00  0.00    +0.000 Cl
ATOM     31  C   UNL     1       6.486  11.444  25.273  0.00  0.00    +0.000 A 
ATOM     32  C   UNL     1       6.699  11.758  23.929  0.00  0.00    +0.000 A 
ENDBRANCH  25  26
ENDBRANCH  23  24
ENDBRANCH  20  23
ENDBRANCH  17  18
ENDBRANCH   1  17
TORSDOF 6
ENDMDL
MODEL 8
REMARK VINA RESULT:      -8.6      1.012      1.885
REMARK  Name = 
REMARK  7 active torsions:
REMARK  status: ('A' for Active; 'I' for Inactive)
REMARK    1  A    between atoms: C_1  and  C_2
REMARK    2  A    between atoms: C_11  and  O_12
REMARK    3  A    between atoms: O_12  and  C_13
REMARK    4  A    between atoms: C_13  and  C_14
REMARK    5  A    between atoms: N_16  and  C_17
REMARK    6  A    between atoms: C_17  and  C_18
REMARK    7  A    between atoms: C_19  and  C_20
REMARK                            x       y       z     vdW  Elec       q    Type
REMARK                         _______ _______ _______ _____ _____    ______ ____
ROOT
ATOM      1  O   UNL     1       3.074   4.322  18.578  0.00  0.00    +0.000 OA
ENDROOT
BRANCH   1  12
ATOM      2  C   UNL     1       1.070  12.104  19.265  0.00  0.00    +0.000 C 
ATOM      3  C   UNL     1       0.809  11.066  20.309  0.00  0.00    +0.000 A 
ATOM      4  N   UNL     1       0.197  11.448  21.462  0.00  0.00    +0.000 NA
ATOM      5  C   UNL     1      -0.046  10.530  22.426  0.00  0.00    +0.000 A 
ATOM      6  C   UNL     1       0.281   9.187  22.343  0.00  0.00    +0.000 A 
ATOM      7  C   UNL     1       0.913   8.770  21.162  0.00  0.00    +0.000 A 
ATOM      8  C   UNL     1       1.163   9.721  20.175  0.00  0.00    +0.000 A 
ATOM      9  N   UNL     1       1.786   9.068  19.139  0.00  0.00    +0.000 N 
ATOM     10  C   UNL     1       1.946   7.732  19.419  0.00  0.00    +0.000 A 
ATOM     11  C   UNL     1       2.528   6.718  18.646  0.00  0.00    +0.000 A 
ATOM     12  C   UNL     1       2.556   5.429  19.189  0.00  0.00    +0.000 A 
ATOM     13  C   UNL     1       2.021   5.185  20.455  0.00  0.00    +0.000 A 
ATOM     14  C   UNL     1       1.445   6.210  21.213  0.00  0.00    +0.000 A 
ATOM     15  C   UNL     1       1.406   7.515  20.683  0.00  0.00    +0.000 A 
ATOM     16  H   UNL     1       2.089   9.513  18.285  0.00  0.00    +0.000 HD
ENDBRANCH   1  12
BRANCH   1  17
ATOM     17  C   UNL     1       4.317   3.814  19.066  0.00  0.00    +0.000 C 
BRANCH  17  18
ATOM     18  C   UNL     1       5.405   4.784  18.779  0.00  0.00    +0.000 A 
ATOM     19  C   UNL     1       5.772   5.349  17.576  0.00  0.00    +0.000 A 
ATOM     20  N   UNL     1       6.855   6.112  17.889  0.00  0.00    +0.000 N 
ATOM     21  N   UNL     1       7.126   6.062  19.205  0.00  0.00    +0.000 NA
ATOM     22  N   UNL     1       6.244   5.241  19.762  0.00  0.00    +0.000 NA
BRANCH  20  23
ATOM     23  C   UNL     1       7.639   6.947  16.997  0.00  0.00    +0.000 C 
BRANCH  23  24
ATOM     24  C   UNL     1       7.849   8.326  17.551  0.00  0.00    +0.000 C 
ATOM     25  C   UNL     1       8.832   8.682  18.395  0.00  0.00    +0.000 C 
BRANCH  25  26
ATOM     26  C   UNL     1       8.955  10.075  18.820  0.00  0.00    +0.000 A 
ATOM     27  C   UNL     1       8.593  11.115  17.956  0.00  0.00    +0.000 A 
ATOM     28  C   UNL     1       8.817  12.445  18.327  0.00  0.00    +0.000 A 
ATOM     29  C   UNL     1       9.398  12.732  19.561  0.00  0.00    +0.000 A 
ATOM     30 CL   UNL     1       9.716  14.366  19.998  0.00  0.00    +0.000 Cl
ATOM     31  C   UNL     1       9.739  11.703  20.437  0.00  0.00    +0.000 A 
ATOM     32  C   UNL     1       9.518  10.375  20.066  0.00  0.00    +0.000 A 
ENDBRANCH  25  26
ENDBRANCH  23  24
ENDBRANCH  20  23
ENDBRANCH  17  18
ENDBRANCH   1  17
TORSDOF 6
ENDMDL
MODEL 9
REMARK VINA RESULT:      -8.6      3.194      6.457
REMARK  Name = 
REMARK  7 active torsions:
REMARK  status: ('A' for Active; 'I' for Inactive)
REMARK    1  A    between atoms: C_1  and  C_2
REMARK    2  A    between atoms: C_11  and  O_12
REMARK    3  A    between atoms: O_12  and  C_13
REMARK    4  A    between atoms: C_13  and  C_14
REMARK    5  A    between atoms: N_16  and  C_17
REMARK    6  A    between atoms: C_17  and  C_18
REMARK    7  A    between atoms: C_19  and  C_20
REMARK                            x       y       z     vdW  Elec       q    Type
REMARK                         _______ _______ _______ _____ _____    ______ ____
ROOT
ATOM      1  O   UNL     1       1.213  10.744  18.452  0.00  0.00    +0.000 OA
ENDROOT
BRANCH   1  12
ATOM      2  C   UNL     1       4.061   3.262  17.470  0.00  0.00    +0.000 C 
ATOM      3  C   UNL     1       3.425   3.768  18.725  0.00  0.00    +0.000 A 
ATOM      4  N   UNL     1       3.307   2.918  19.780  0.00  0.00    +0.000 NA
ATOM      5  C   UNL     1       2.731   3.350  20.925  0.00  0.00    +0.000 A 
ATOM      6  C   UNL     1       2.234   4.626  21.131  0.00  0.00    +0.000 A 
ATOM      7  C   UNL     1       2.344   5.520  20.057  0.00  0.00    +0.000 A 
ATOM      8  C   UNL     1       2.936   5.068  18.879  0.00  0.00    +0.000 A 
ATOM      9  N   UNL     1       2.918   6.119  17.993  0.00  0.00    +0.000 N 
ATOM     10  C   UNL     1       2.338   7.231  18.556  0.00  0.00    +0.000 A 
ATOM     11  C   UNL     1       2.119   8.502  18.005  0.00  0.00    +0.000 A 
ATOM     12  C   UNL     1       1.498   9.457  18.817  0.00  0.00    +0.000 A 
ATOM     13  C   UNL     1       1.118   9.136  20.121  0.00  0.00    +0.000 A 
ATOM     14  C   UNL     1       1.344   7.862  20.653  0.00  0.00    +0.000 A 
ATOM     15  C   UNL     1       1.970   6.886  19.852  0.00  0.00    +0.000 A 
ATOM     16  H   UNL     1       3.280   6.078  17.052  0.00  0.00    +0.000 HD
ENDBRANCH   1  12
BRANCH   1  17
ATOM     17  C   UNL     1       0.963  11.689  19.494  0.00  0.00    +0.000 C 
BRANCH  17  18
ATOM     18  C   UNL     1       1.535  13.009  19.125  0.00  0.00    +0.000 A 
ATOM     19  C   UNL     1       2.838  13.336  18.814  0.00  0.00    +0.000 A 
ATOM     20  N   UNL     1       2.798  14.682  18.613  0.00  0.00    +0.000 N 
ATOM     21  N   UNL     1       1.549  15.162  18.749  0.00  0.00    +0.000 NA
ATOM     22  N   UNL     1       0.764  14.141  19.071  0.00  0.00    +0.000 NA
BRANCH  20  23
ATOM     23  C   UNL     1       3.896  15.556  18.241  0.00  0.00    +0.000 C 
BRANCH  23  24
ATOM     24  C   UNL     1       5.184  14.806  18.072  0.00  0.00    +0.000 C 
ATOM     25  C   UNL     1       6.398  15.367  17.940  0.00  0.00    +0.000 C 
BRANCH  25  26
ATOM     26  C   UNL     1       7.583  14.517  17.835  0.00  0.00    +0.000 A 
ATOM     27  C   UNL     1       7.465  13.180  17.439  0.00  0.00    +0.000 A 
ATOM     28  C   UNL     1       8.587  12.345  17.448  0.00  0.00    +0.000 A 
ATOM     29  C   UNL     1       9.824  12.849  17.847  0.00  0.00    +0.000 A 
ATOM     30 CL   UNL     1      11.194  11.809  17.902  0.00  0.00    +0.000 Cl
ATOM     31  C   UNL     1       9.954  14.185  18.220  0.00  0.00    +0.000 A 
ATOM     32  C   UNL     1       8.834  15.019  18.214  0.00  0.00    +0.000 A 
ENDBRANCH  25  26
ENDBRANCH  23  24
ENDBRANCH  20  23
ENDBRANCH  17  18
ENDBRANCH   1  17
TORSDOF 6
ENDMDL
