MODEL 1
REMARK VINA RESULT:      -8.3      0.000      0.000
REMARK  Name = 
REMARK  6 active torsions:
REMARK  status: ('A' for Active; 'I' for Inactive)
REMARK    1  A    between atoms: C_1  and  O_2
REMARK    2  A    between atoms: O_2  and  C_3
REMARK    3  A    between atoms: C_6  and  C_7
REMARK    4  A    between atoms: N_13  and  C_14
REMARK    5  A    between atoms: C_17  and  O_18
REMARK    6  A    between atoms: O_18  and  C_19
REMARK                            x       y       z     vdW  Elec       q    Type
REMARK                         _______ _______ _______ _____ _____    ______ ____
ROOT
ATOM      1  C   UNL     1       2.503   5.649  19.634  0.00  0.00    +0.000 A 
ATOM      2  N   UNL     1       2.203   5.016  20.764  0.00  0.00    +0.000 NA
ATOM      3  C   UNL     1       2.629   3.764  20.824  0.00  0.00    +0.000 A 
ATOM      4  N   UNL     1       2.341   3.061  21.977  0.00  0.00    +0.000 N 
ATOM      5  N   UNL     1       3.284   3.121  19.865  0.00  0.00    +0.000 NA
ATOM      6  C   UNL     1       3.555   3.841  18.785  0.00  0.00    +0.000 A 
ATOM      7  N   UNL     1       4.283   3.239  17.754  0.00  0.00    +0.000 N 
ATOM      8  N   UNL     1       3.169   5.100  18.627  0.00  0.00    +0.000 NA
ATOM      9  H   UNL     1       1.546   3.469  22.449  0.00  0.00    +0.000 HD
ATOM     10  H   UNL     1       2.316   2.068  21.797  0.00  0.00    +0.000 HD
ATOM     11  H   UNL     1       4.596   2.327  18.063  0.00  0.00    +0.000 HD
ENDROOT
BRANCH   1  15
ATOM     12  C   UNL     1       1.299   9.752  19.067  0.00  0.00    +0.000 A 
ATOM     13  C   UNL     1       1.103   9.123  20.296  0.00  0.00    +0.000 A 
ATOM     14  C   UNL     1       1.501   7.795  20.492  0.00  0.00    +0.000 A 
ATOM     15  C   UNL     1       2.088   7.052  19.456  0.00  0.00    +0.000 A 
ATOM     16  C   UNL     1       2.264   7.707  18.218  0.00  0.00    +0.000 A 
ATOM     17  C   UNL     1       1.874   9.037  18.022  0.00  0.00    +0.000 A 
BRANCH  12  19
ATOM     18  C   UNL     1      -0.554  11.216  19.016  0.00  0.00    +0.000 C 
ATOM     19  O   UNL     1       0.859  11.044  18.990  0.00  0.00    +0.000 OA
ENDBRANCH  12  19
ENDBRANCH   1  15
BRANCH   7  20
ATOM     20  C   UNL     1       5.192   3.893  16.903  0.00  0.00    +0.000 A 
ATOM     21  C   UNL     1       6.487   4.239  17.310  0.00  0.00    +0.000 A 
ATOM     22  C   UNL     1       7.373   4.865  16.432  0.00  0.00    +0.000 A 
ATOM     23  C   UNL     1       6.992   5.141  15.120  0.00  0.00    +0.000 A 
ATOM     24  C   UNL     1       5.694   4.836  14.714  0.00  0.00    +0.000 A 
ATOM     25  C   UNL     1       4.814   4.185  15.590  0.00  0.00    +0.000 A 
BRANCH  23  26
ATOM     26  O   UNL     1       7.926   5.781  14.368  0.00  0.00    +0.000 OA
BRANCH  26  27
ATOM     27  C   UNL     1       8.142   5.361  13.028  0.00  0.00    +0.000 C 
ATOM     28  F   UNL     1       7.788   6.263  12.089  0.00  0.00    +0.000 F 
ATOM     29  F   UNL     1       9.453   5.071  12.869  0.00  0.00    +0.000 F 
ATOM     30  F   UNL     1       7.434   4.230  12.807  0.00  0.00    +0.000 F 
ENDBRANCH  26  27
ENDBRANCH  23  26
ENDBRANCH   7  20
TORSDOF 5
ENDMDL
MODEL 2
REMARK VINA RESULT:      -8.2      3.923      7.545
REMARK  Name = 
REMARK  6 active torsions:
REMARK  status: ('A' for Active; 'I' for Inactive)
REMARK    1  A    between atoms: C_1  and  O_2
REMARK    2  A    between atoms: O_2  and  C_3
REMARK    3  A    between atoms: C_6  and  C_7
REMARK    4  A    between atoms: N_13  and  C_14
REMARK    5  A    between atoms: C_17  and  O_18
REMARK    6  A    between atoms: O_18  and  C_19
REMARK                            x       y       z     vdW  Elec       q    Type
REMARK                         _______ _______ _______ _____ _____    ______ ____
ROOT
ATOM      1  C   UNL     1       3.200   4.805  18.714  0.00  0.00    +0.000 A 
ATOM      2  N   UNL     1       2.771   3.598  19.071  0.00  0.00    +0.000 NA
ATOM      3  C   UNL     1       1.960   3.589  20.118  0.00  0.00    +0.000 A 
ATOM      4  N   UNL     1       1.487   2.359  20.530  0.00  0.00    +0.000 N 
ATOM      5  N   UNL     1       1.584   4.653  20.816  0.00  0.00    +0.000 NA
ATOM      6  C   UNL     1       2.046   5.813  20.371  0.00  0.00    +0.000 A 
ATOM      7  N   UNL     1       1.653   6.980  21.035  0.00  0.00    +0.000 N 
ATOM      8  N   UNL     1       2.867   5.928  19.336  0.00  0.00    +0.000 NA
ATOM      9  H   UNL     1       2.102   1.622  20.216  0.00  0.00    +0.000 HD
ATOM     10  H   UNL     1       1.244   2.377  21.510  0.00  0.00    +0.000 HD
ATOM     11  H   UNL     1       0.950   6.744  21.724  0.00  0.00    +0.000 HD
ENDROOT
BRANCH   1  15
ATOM     12  C   UNL     1       5.840   5.250  15.332  0.00  0.00    +0.000 A 
ATOM     13  C   UNL     1       5.528   3.982  15.822  0.00  0.00    +0.000 A 
ATOM     14  C   UNL     1       4.664   3.828  16.912  0.00  0.00    +0.000 A 
ATOM     15  C   UNL     1       4.103   4.941  17.557  0.00  0.00    +0.000 A 
ATOM     16  C   UNL     1       4.443   6.213  17.050  0.00  0.00    +0.000 A 
ATOM     17  C   UNL     1       5.300   6.371  15.955  0.00  0.00    +0.000 A 
BRANCH  12  19
ATOM     18  C   UNL     1       6.642   4.156  13.398  0.00  0.00    +0.000 C 
ATOM     19  O   UNL     1       6.704   5.277  14.274  0.00  0.00    +0.000 OA
ENDBRANCH  12  19
ENDBRANCH   1  15
BRANCH   7  20
ATOM     20  C   UNL     1       1.460   8.237  20.434  0.00  0.00    +0.000 A 
ATOM     21  C   UNL     1       1.747   8.477  19.084  0.00  0.00    +0.000 A 
ATOM     22  C   UNL     1       1.519   9.730  18.513  0.00  0.00    +0.000 A 
ATOM     23  C   UNL     1       0.979  10.766  19.272  0.00  0.00    +0.000 A 
ATOM     24  C   UNL     1       0.723  10.551  20.625  0.00  0.00    +0.000 A 
ATOM     25  C   UNL     1       0.930   9.285  21.191  0.00  0.00    +0.000 A 
BRANCH  23  26
ATOM     26  O   UNL     1       0.832  11.948  18.618  0.00  0.00    +0.000 OA
BRANCH  26  27
ATOM     27  C   UNL     1       1.909  12.876  18.614  0.00  0.00    +0.000 C 
ATOM     28  F   UNL     1       2.561  12.988  19.790  0.00  0.00    +0.000 F 
ATOM     29  F   UNL     1       2.798  12.505  17.665  0.00  0.00    +0.000 F 
ATOM     30  F   UNL     1       1.431  14.097  18.285  0.00  0.00    +0.000 F 
ENDBRANCH  26  27
ENDBRANCH  23  26
ENDBRANCH   7  20
TORSDOF 5
ENDMDL
MODEL 3
REMARK VINA RESULT:      -8.1      4.422      7.927
REMARK  Name = 
REMARK  6 active torsions:
REMARK  status: ('A' for Active; 'I' for Inactive)
REMARK    1  A    between atoms: C_1  and  O_2
REMARK    2  A    between atoms: O_2  and  C_3
REMARK    3  A    between atoms: C_6  and  C_7
REMARK    4  A    between atoms: N_13  and  C_14
REMARK    5  A    between atoms: C_17  and  O_18
REMARK    6  A    between atoms: O_18  and  C_19
REMARK                            x       y       z     vdW  Elec       q    Type
REMARK                         _______ _______ _______ _____ _____    ______ ____
ROOT
ATOM      1  C   UNL     1       3.149   4.936  18.791  0.00  0.00    +0.000 A 
ATOM      2  N   UNL     1       2.742   3.726  19.165  0.00  0.00    +0.000 NA
ATOM      3  C   UNL     1       1.951   3.715  20.226  0.00  0.00    +0.000 A 
ATOM      4  N   UNL     1       1.502   2.482  20.656  0.00  0.00    +0.000 N 
ATOM      5  N   UNL     1       1.574   4.779  20.923  0.00  0.00    +0.000 NA
ATOM      6  C   UNL     1       2.013   5.942  20.461  0.00  0.00    +0.000 A 
ATOM      7  N   UNL     1       1.616   7.109  21.122  0.00  0.00    +0.000 N 
ATOM      8  N   UNL     1       2.813   6.059  19.409  0.00  0.00    +0.000 NA
ATOM      9  H   UNL     1       2.121   1.751  20.337  0.00  0.00    +0.000 HD
ATOM     10  H   UNL     1       1.277   2.504  21.640  0.00  0.00    +0.000 HD
ATOM     11  H   UNL     1       0.929   6.869  21.827  0.00  0.00    +0.000 HD
ENDROOT
BRANCH   1  15
ATOM     12  C   UNL     1       5.721   5.388  15.357  0.00  0.00    +0.000 A 
ATOM     13  C   UNL     1       5.404   4.119  15.839  0.00  0.00    +0.000 A 
ATOM     14  C   UNL     1       4.561   3.962  16.946  0.00  0.00    +0.000 A 
ATOM     15  C   UNL     1       4.028   5.075  17.615  0.00  0.00    +0.000 A 
ATOM     16  C   UNL     1       4.374   6.349  17.117  0.00  0.00    +0.000 A 
ATOM     17  C   UNL     1       5.210   6.508  16.005  0.00  0.00    +0.000 A 
BRANCH  12  19
ATOM     18  C   UNL     1       6.630   4.217  13.519  0.00  0.00    +0.000 C 
ATOM     19  O   UNL     1       6.563   5.417  14.281  0.00  0.00    +0.000 OA
ENDBRANCH  12  19
ENDBRANCH   1  15
BRANCH   7  20
ATOM     20  C   UNL     1       1.396   8.359  20.516  0.00  0.00    +0.000 A 
ATOM     21  C   UNL     1       1.569   8.568  19.141  0.00  0.00    +0.000 A 
ATOM     22  C   UNL     1       1.316   9.815  18.567  0.00  0.00    +0.000 A 
ATOM     23  C   UNL     1       0.863  10.876  19.350  0.00  0.00    +0.000 A 
ATOM     24  C   UNL     1       0.722  10.690  20.724  0.00  0.00    +0.000 A 
ATOM     25  C   UNL     1       0.953   9.431  21.295  0.00  0.00    +0.000 A 
BRANCH  23  26
ATOM     26  O   UNL     1       0.683  12.048  18.687  0.00  0.00    +0.000 OA
BRANCH  26  27
ATOM     27  C   UNL     1      -0.639  12.492  18.414  0.00  0.00    +0.000 C 
ATOM     28  F   UNL     1      -1.417  11.591  17.779  0.00  0.00    +0.000 F 
ATOM     29  F   UNL     1      -1.236  12.825  19.580  0.00  0.00    +0.000 F 
ATOM     30  F   UNL     1      -0.575  13.602  17.644  0.00  0.00    +0.000 F 
ENDBRANCH  26  27
ENDBRANCH  23  26
ENDBRANCH   7  20
TORSDOF 5
ENDMDL
MODEL 4
REMARK VINA RESULT:      -8.1      4.426      7.861
REMARK  Name = 
REMARK  6 active torsions:
REMARK  status: ('A' for Active; 'I' for Inactive)
REMARK    1  A    between atoms: C_1  and  O_2
REMARK    2  A    between atoms: O_2  and  C_3
REMARK    3  A    between atoms: C_6  and  C_7
REMARK    4  A    between atoms: N_13  and  C_14
REMARK    5  A    between atoms: C_17  and  O_18
REMARK    6  A    between atoms: O_18  and  C_19
REMARK                            x       y       z     vdW  Elec       q    Type
REMARK                         _______ _______ _______ _____ _____    ______ ____
ROOT
ATOM      1  C   UNL     1       3.178   4.881  18.795  0.00  0.00    +0.000 A 
ATOM      2  N   UNL     1       2.785   3.669  19.176  0.00  0.00    +0.000 NA
ATOM      3  C   UNL     1       2.000   3.654  20.241  0.00  0.00    +0.000 A 
ATOM      4  N   UNL     1       1.566   2.418  20.679  0.00  0.00    +0.000 N 
ATOM      5  N   UNL     1       1.616   4.717  20.936  0.00  0.00    +0.000 NA
ATOM      6  C   UNL     1       2.040   5.882  20.467  0.00  0.00    +0.000 A 
ATOM      7  N   UNL     1       1.635   7.047  21.127  0.00  0.00    +0.000 N 
ATOM      8  N   UNL     1       2.833   6.003  19.411  0.00  0.00    +0.000 NA
ATOM      9  H   UNL     1       2.191   1.692  20.359  0.00  0.00    +0.000 HD
ATOM     10  H   UNL     1       1.346   2.442  21.664  0.00  0.00    +0.000 HD
ATOM     11  H   UNL     1       0.955   6.803  21.835  0.00  0.00    +0.000 HD
ENDROOT
BRANCH   1  15
ATOM     12  C   UNL     1       5.728   5.346  15.347  0.00  0.00    +0.000 A 
ATOM     13  C   UNL     1       5.411   4.075  15.823  0.00  0.00    +0.000 A 
ATOM     14  C   UNL     1       4.575   3.914  16.935  0.00  0.00    +0.000 A 
ATOM     15  C   UNL     1       4.049   5.024  17.614  0.00  0.00    +0.000 A 
ATOM     16  C   UNL     1       4.395   6.300  17.121  0.00  0.00    +0.000 A 
ATOM     17  C   UNL     1       5.223   6.464  16.005  0.00  0.00    +0.000 A 
BRANCH  12  19
ATOM     18  C   UNL     1       6.644   4.173  13.513  0.00  0.00    +0.000 C 
ATOM     19  O   UNL     1       6.562   5.379  14.265  0.00  0.00    +0.000 OA
ENDBRANCH  12  19
ENDBRANCH   1  15
BRANCH   7  20
ATOM     20  C   UNL     1       1.399   8.292  20.516  0.00  0.00    +0.000 A 
ATOM     21  C   UNL     1       0.935   9.404  21.232  0.00  0.00    +0.000 A 
ATOM     22  C   UNL     1       0.736  10.633  20.600  0.00  0.00    +0.000 A 
ATOM     23  C   UNL     1       1.016  10.784  19.242  0.00  0.00    +0.000 A 
ATOM     24  C   UNL     1       1.442   9.676  18.512  0.00  0.00    +0.000 A 
ATOM     25  C   UNL     1       1.665   8.450  19.154  0.00  0.00    +0.000 A 
BRANCH  23  26
ATOM     26  O   UNL     1       0.752  12.015  18.731  0.00  0.00    +0.000 OA
BRANCH  26  27
ATOM     27  C   UNL     1      -0.600  12.426  18.579  0.00  0.00    +0.000 C 
ATOM     28  F   UNL     1      -1.142  13.001  19.672  0.00  0.00    +0.000 F 
ATOM     29  F   UNL     1      -0.674  13.303  17.553  0.00  0.00    +0.000 F 
ATOM     30  F   UNL     1      -1.350  11.347  18.261  0.00  0.00    +0.000 F 
ENDBRANCH  26  27
ENDBRANCH  23  26
ENDBRANCH   7  20
TORSDOF 5
ENDMDL
MODEL 5
REMARK VINA RESULT:      -8.1      4.465      7.908
REMARK  Name = 
REMARK  6 active torsions:
REMARK  status: ('A' for Active; 'I' for Inactive)
REMARK    1  A    between atoms: C_1  and  O_2
REMARK    2  A    between atoms: O_2  and  C_3
REMARK    3  A    between atoms: C_6  and  C_7
REMARK    4  A    between atoms: N_13  and  C_14
REMARK    5  A    between atoms: C_17  and  O_18
REMARK    6  A    between atoms: O_18  and  C_19
REMARK                            x       y       z     vdW  Elec       q    Type
REMARK                         _______ _______ _______ _____ _____    ______ ____
ROOT
ATOM      1  C   UNL     1       3.223   4.829  18.763  0.00  0.00    +0.000 A 
ATOM      2  N   UNL     1       2.809   3.615  19.115  0.00  0.00    +0.000 NA
ATOM      3  C   UNL     1       2.000   3.591  20.162  0.00  0.00    +0.000 A 
ATOM      4  N   UNL     1       1.543   2.353  20.569  0.00  0.00    +0.000 N 
ATOM      5  N   UNL     1       1.612   4.646  20.866  0.00  0.00    +0.000 NA
ATOM      6  C   UNL     1       2.059   5.814  20.427  0.00  0.00    +0.000 A 
ATOM      7  N   UNL     1       1.652   6.973  21.097  0.00  0.00    +0.000 N 
ATOM      8  N   UNL     1       2.877   5.944  19.391  0.00  0.00    +0.000 NA
ATOM      9  H   UNL     1       2.167   1.625  20.250  0.00  0.00    +0.000 HD
ATOM     10  H   UNL     1       1.301   2.362  21.549  0.00  0.00    +0.000 HD
ATOM     11  H   UNL     1       0.953   6.724  21.786  0.00  0.00    +0.000 HD
ENDROOT
BRANCH   1  15
ATOM     12  C   UNL     1       5.853   5.230  15.368  0.00  0.00    +0.000 A 
ATOM     13  C   UNL     1       5.327   6.362  15.990  0.00  0.00    +0.000 A 
ATOM     14  C   UNL     1       4.481   6.241  17.099  0.00  0.00    +0.000 A 
ATOM     15  C   UNL     1       4.122   4.982  17.605  0.00  0.00    +0.000 A 
ATOM     16  C   UNL     1       4.658   3.853  16.951  0.00  0.00    +0.000 A 
ATOM     17  C   UNL     1       5.510   3.970  15.847  0.00  0.00    +0.000 A 
BRANCH  12  19
ATOM     18  C   UNL     1       6.876   4.361  13.424  0.00  0.00    +0.000 C 
ATOM     19  O   UNL     1       6.655   5.471  14.288  0.00  0.00    +0.000 OA
ENDBRANCH  12  19
ENDBRANCH   1  15
BRANCH   7  20
ATOM     20  C   UNL     1       1.442   8.230  20.503  0.00  0.00    +0.000 A 
ATOM     21  C   UNL     1       1.661   8.463  19.139  0.00  0.00    +0.000 A 
ATOM     22  C   UNL     1       1.418   9.717  18.576  0.00  0.00    +0.000 A 
ATOM     23  C   UNL     1       0.931  10.762  19.360  0.00  0.00    +0.000 A 
ATOM     24  C   UNL     1       0.745  10.554  20.725  0.00  0.00    +0.000 A 
ATOM     25  C   UNL     1       0.966   9.287  21.283  0.00  0.00    +0.000 A 
BRANCH  23  26
ATOM     26  O   UNL     1       0.764  11.944  18.709  0.00  0.00    +0.000 OA
BRANCH  26  27
ATOM     27  C   UNL     1      -0.545  12.482  18.577  0.00  0.00    +0.000 C 
ATOM     28  F   UNL     1      -0.689  13.375  17.576  0.00  0.00    +0.000 F 
ATOM     29  F   UNL     1      -1.414  11.466  18.373  0.00  0.00    +0.000 F 
ATOM     30  F   UNL     1      -0.882  13.095  19.734  0.00  0.00    +0.000 F 
ENDBRANCH  26  27
ENDBRANCH  23  26
ENDBRANCH   7  20
TORSDOF 5
ENDMDL
MODEL 6
REMARK VINA RESULT:      -8.0      3.838      7.482
REMARK  Name = 
REMARK  6 active torsions:
REMARK  status: ('A' for Active; 'I' for Inactive)
REMARK    1  A    between atoms: C_1  and  O_2
REMARK    2  A    between atoms: O_2  and  C_3
REMARK    3  A    between atoms: C_6  and  C_7
REMARK    4  A    between atoms: N_13  and  C_14
REMARK    5  A    between atoms: C_17  and  O_18
REMARK    6  A    between atoms: O_18  and  C_19
REMARK                            x       y       z     vdW  Elec       q    Type
REMARK                         _______ _______ _______ _____ _____    ______ ____
ROOT
ATOM      1  C   UNL     1       3.536   4.777  18.841  0.00  0.00    +0.000 A 
ATOM      2  N   UNL     1       3.103   3.553  19.131  0.00  0.00    +0.000 NA
ATOM      3  C   UNL     1       2.170   3.507  20.068  0.00  0.00    +0.000 A 
ATOM      4  N   UNL     1       1.687   2.259  20.408  0.00  0.00    +0.000 N 
ATOM      5  N   UNL     1       1.678   4.550  20.724  0.00  0.00    +0.000 NA
ATOM      6  C   UNL     1       2.156   5.729  20.350  0.00  0.00    +0.000 A 
ATOM      7  N   UNL     1       1.647   6.876  20.970  0.00  0.00    +0.000 N 
ATOM      8  N   UNL     1       3.094   5.881  19.426  0.00  0.00    +0.000 NA
ATOM      9  H   UNL     1       2.359   1.544  20.166  0.00  0.00    +0.000 HD
ATOM     10  H   UNL     1       1.324   2.256  21.350  0.00  0.00    +0.000 HD
ATOM     11  H   UNL     1       0.872   6.611  21.565  0.00  0.00    +0.000 HD
ENDROOT
BRANCH   1  15
ATOM     12  C   UNL     1       6.544   5.259  15.787  0.00  0.00    +0.000 A 
ATOM     13  C   UNL     1       6.463   6.163  16.846  0.00  0.00    +0.000 A 
ATOM     14  C   UNL     1       5.497   6.007  17.847  0.00  0.00    +0.000 A 
ATOM     15  C   UNL     1       4.571   4.954  17.805  0.00  0.00    +0.000 A 
ATOM     16  C   UNL     1       4.666   4.060  16.718  0.00  0.00    +0.000 A 
ATOM     17  C   UNL     1       5.635   4.208  15.719  0.00  0.00    +0.000 A 
BRANCH  12  19
ATOM     18  C   UNL     1       7.340   4.907  13.591  0.00  0.00    +0.000 C 
ATOM     19  O   UNL     1       7.517   5.520  14.863  0.00  0.00    +0.000 OA
ENDBRANCH  12  19
ENDBRANCH   1  15
BRANCH   7  20
ATOM     20  C   UNL     1       1.492   8.134  20.361  0.00  0.00    +0.000 A 
ATOM     21  C   UNL     1       1.842   8.371  19.025  0.00  0.00    +0.000 A 
ATOM     22  C   UNL     1       1.650   9.626  18.444  0.00  0.00    +0.000 A 
ATOM     23  C   UNL     1       1.084  10.666  19.179  0.00  0.00    +0.000 A 
ATOM     24  C   UNL     1       0.765  10.454  20.518  0.00  0.00    +0.000 A 
ATOM     25  C   UNL     1       0.936   9.186  21.093  0.00  0.00    +0.000 A 
BRANCH  23  26
ATOM     26  O   UNL     1       0.976  11.849  18.518  0.00  0.00    +0.000 OA
BRANCH  26  27
ATOM     27  C   UNL     1       2.069  12.757  18.543  0.00  0.00    +0.000 C 
ATOM     28  F   UNL     1       3.133  12.382  17.803  0.00  0.00    +0.000 F 
ATOM     29  F   UNL     1       1.643  13.962  18.100  0.00  0.00    +0.000 F 
ATOM     30  F   UNL     1       2.483  12.905  19.822  0.00  0.00    +0.000 F 
ENDBRANCH  26  27
ENDBRANCH  23  26
ENDBRANCH   7  20
TORSDOF 5
ENDMDL
MODEL 7
REMARK VINA RESULT:      -8.0      4.382      7.883
REMARK  Name = 
REMARK  6 active torsions:
REMARK  status: ('A' for Active; 'I' for Inactive)
REMARK    1  A    between atoms: C_1  and  O_2
REMARK    2  A    between atoms: O_2  and  C_3
REMARK    3  A    between atoms: C_6  and  C_7
REMARK    4  A    between atoms: N_13  and  C_14
REMARK    5  A    between atoms: C_17  and  O_18
REMARK    6  A    between atoms: O_18  and  C_19
REMARK                            x       y       z     vdW  Elec       q    Type
REMARK                         _______ _______ _______ _____ _____    ______ ____
ROOT
ATOM      1  C   UNL     1       3.466   4.842  19.035  0.00  0.00    +0.000 A 
ATOM      2  N   UNL     1       3.326   3.632  19.569  0.00  0.00    +0.000 NA
ATOM      3  C   UNL     1       2.641   3.605  20.701  0.00  0.00    +0.000 A 
ATOM      4  N   UNL     1       2.469   2.372  21.298  0.00  0.00    +0.000 N 
ATOM      5  N   UNL     1       2.129   4.660  21.322  0.00  0.00    +0.000 NA
ATOM      6  C   UNL     1       2.301   5.820  20.702  0.00  0.00    +0.000 A 
ATOM      7  N   UNL     1       1.747   6.967  21.279  0.00  0.00    +0.000 N 
ATOM      8  N   UNL     1       2.976   5.952  19.568  0.00  0.00    +0.000 NA
ATOM      9  H   UNL     1       3.187   1.730  20.992  0.00  0.00    +0.000 HD
ATOM     10  H   UNL     1       2.325   2.470  22.293  0.00  0.00    +0.000 HD
ATOM     11  H   UNL     1       1.178   6.694  22.071  0.00  0.00    +0.000 HD
ENDROOT
BRANCH   1  15
ATOM     12  C   UNL     1       5.624   5.336  15.333  0.00  0.00    +0.000 A 
ATOM     13  C   UNL     1       5.395   4.062  15.851  0.00  0.00    +0.000 A 
ATOM     14  C   UNL     1       4.686   3.892  17.047  0.00  0.00    +0.000 A 
ATOM     15  C   UNL     1       4.204   4.995  17.768  0.00  0.00    +0.000 A 
ATOM     16  C   UNL     1       4.459   6.273  17.229  0.00  0.00    +0.000 A 
ATOM     17  C   UNL     1       5.160   6.446  16.030  0.00  0.00    +0.000 A 
BRANCH  12  19
ATOM     18  C   UNL     1       6.531   4.128  13.517  0.00  0.00    +0.000 C 
ATOM     19  O   UNL     1       6.339   5.378  14.169  0.00  0.00    +0.000 OA
ENDBRANCH  12  19
ENDBRANCH   1  15
BRANCH   7  20
ATOM     20  C   UNL     1       1.246   8.077  20.575  0.00  0.00    +0.000 A 
ATOM     21  C   UNL     1       1.683   8.408  19.286  0.00  0.00    +0.000 A 
ATOM     22  C   UNL     1       1.145   9.502  18.604  0.00  0.00    +0.000 A 
ATOM     23  C   UNL     1       0.144  10.276  19.188  0.00  0.00    +0.000 A 
ATOM     24  C   UNL     1      -0.273   9.979  20.483  0.00  0.00    +0.000 A 
ATOM     25  C   UNL     1       0.250   8.866  21.156  0.00  0.00    +0.000 A 
BRANCH  23  26
ATOM     26  O   UNL     1      -0.278  11.332  18.443  0.00  0.00    +0.000 OA
BRANCH  26  27
ATOM     27  C   UNL     1      -1.627  11.369  17.997  0.00  0.00    +0.000 C 
ATOM     28  F   UNL     1      -1.815  11.998  16.819  0.00  0.00    +0.000 F 
ATOM     29  F   UNL     1      -2.083  10.101  17.883  0.00  0.00    +0.000 F 
ATOM     30  F   UNL     1      -2.376  12.000  18.929  0.00  0.00    +0.000 F 
ENDBRANCH  26  27
ENDBRANCH  23  26
ENDBRANCH   7  20
TORSDOF 5
ENDMDL
MODEL 8
REMARK VINA RESULT:      -8.0      4.330      6.629
REMARK  Name = 
REMARK  6 active torsions:
REMARK  status: ('A' for Active; 'I' for Inactive)
REMARK    1  A    between atoms: C_1  and  O_2
REMARK    2  A    between atoms: O_2  and  C_3
REMARK    3  A    between atoms: C_6  and  C_7
REMARK    4  A    between atoms: N_13  and  C_14
REMARK    5  A    between atoms: C_17  and  O_18
REMARK    6  A    between atoms: O_18  and  C_19
REMARK                            x       y       z     vdW  Elec       q    Type
REMARK                         _______ _______ _______ _____ _____    ______ ____
ROOT
ATOM      1  C   UNL     1      -0.883  10.822  19.472  0.00  0.00    +0.000 A 
ATOM      2  N   UNL     1      -0.741  11.977  20.115  0.00  0.00    +0.000 NA
ATOM      3  C   UNL     1       0.105  11.941  21.132  0.00  0.00    +0.000 A 
ATOM      4  N   UNL     1       0.287  13.116  21.835  0.00  0.00    +0.000 N 
ATOM      5  N   UNL     1       0.772  10.872  21.548  0.00  0.00    +0.000 NA
ATOM      6  C   UNL     1       0.581   9.773  20.832  0.00  0.00    +0.000 A 
ATOM      7  N   UNL     1       1.288   8.620  21.188  0.00  0.00    +0.000 N 
ATOM      8  N   UNL     1      -0.248   9.705  19.799  0.00  0.00    +0.000 NA
ATOM      9  H   UNL     1      -0.508  13.727  21.711  0.00  0.00    +0.000 HD
ATOM     10  H   UNL     1       0.586  12.927  22.781  0.00  0.00    +0.000 HD
ATOM     11  H   UNL     1       1.953   8.854  21.915  0.00  0.00    +0.000 HD
ENDROOT
BRANCH   1  15
ATOM     12  C   UNL     1      -3.573  10.625  16.106  0.00  0.00    +0.000 A 
ATOM     13  C   UNL     1      -2.427   9.832  16.140  0.00  0.00    +0.000 A 
ATOM     14  C   UNL     1      -1.554   9.881  17.234  0.00  0.00    +0.000 A 
ATOM     15  C   UNL     1      -1.794  10.743  18.316  0.00  0.00    +0.000 A 
ATOM     16  C   UNL     1      -2.953  11.544  18.252  0.00  0.00    +0.000 A 
ATOM     17  C   UNL     1      -3.832  11.491  17.164  0.00  0.00    +0.000 A 
BRANCH  12  19
ATOM     18  C   UNL     1      -3.666  10.029  13.822  0.00  0.00    +0.000 C 
ATOM     19  O   UNL     1      -4.342  10.502  14.983  0.00  0.00    +0.000 OA
ENDBRANCH  12  19
ENDBRANCH   1  15
BRANCH   7  20
ATOM     20  C   UNL     1       1.746   7.632  20.297  0.00  0.00    +0.000 A 
ATOM     21  C   UNL     1       2.272   7.943  19.036  0.00  0.00    +0.000 A 
ATOM     22  C   UNL     1       2.742   6.940  18.187  0.00  0.00    +0.000 A 
ATOM     23  C   UNL     1       2.715   5.605  18.586  0.00  0.00    +0.000 A 
ATOM     24  C   UNL     1       2.160   5.280  19.822  0.00  0.00    +0.000 A 
ATOM     25  C   UNL     1       1.711   6.290  20.683  0.00  0.00    +0.000 A 
BRANCH  23  26
ATOM     26  O   UNL     1       3.168   4.716  17.663  0.00  0.00    +0.000 OA
BRANCH  26  27
ATOM     27  C   UNL     1       4.347   3.971  17.940  0.00  0.00    +0.000 C 
ATOM     28  F   UNL     1       4.152   2.864  18.686  0.00  0.00    +0.000 F 
ATOM     29  F   UNL     1       4.913   3.603  16.769  0.00  0.00    +0.000 F 
ATOM     30  F   UNL     1       5.221   4.767  18.595  0.00  0.00    +0.000 F 
ENDBRANCH  26  27
ENDBRANCH  23  26
ENDBRANCH   7  20
TORSDOF 5
ENDMDL
MODEL 9
REMARK VINA RESULT:      -8.0      3.809      7.406
REMARK  Name = 
REMARK  6 active torsions:
REMARK  status: ('A' for Active; 'I' for Inactive)
REMARK    1  A    between atoms: C_1  and  O_2
REMARK    2  A    between atoms: O_2  and  C_3
REMARK    3  A    between atoms: C_6  and  C_7
REMARK    4  A    between atoms: N_13  and  C_14
REMARK    5  A    between atoms: C_17  and  O_18
REMARK    6  A    between atoms: O_18  and  C_19
REMARK                            x       y       z     vdW  Elec       q    Type
REMARK                         _______ _______ _______ _____ _____    ______ ____
ROOT
ATOM      1  C   UNL     1       3.514   4.800  18.838  0.00  0.00    +0.000 A 
ATOM      2  N   UNL     1       3.082   3.578  19.139  0.00  0.00    +0.000 NA
ATOM      3  C   UNL     1       2.147   3.540  20.075  0.00  0.00    +0.000 A 
ATOM      4  N   UNL     1       1.665   2.294  20.425  0.00  0.00    +0.000 N 
ATOM      5  N   UNL     1       1.653   4.588  20.720  0.00  0.00    +0.000 NA
ATOM      6  C   UNL     1       2.130   5.764  20.337  0.00  0.00    +0.000 A 
ATOM      7  N   UNL     1       1.619   6.916  20.945  0.00  0.00    +0.000 N 
ATOM      8  N   UNL     1       3.070   5.908  19.413  0.00  0.00    +0.000 NA
ATOM      9  H   UNL     1       2.338   1.578  20.191  0.00  0.00    +0.000 HD
ATOM     10  H   UNL     1       1.301   2.300  21.367  0.00  0.00    +0.000 HD
ATOM     11  H   UNL     1       0.844   6.655  21.541  0.00  0.00    +0.000 HD
ENDROOT
BRANCH   1  15
ATOM     12  C   UNL     1       6.523   5.261  15.782  0.00  0.00    +0.000 A 
ATOM     13  C   UNL     1       6.509   6.106  16.891  0.00  0.00    +0.000 A 
ATOM     14  C   UNL     1       5.542   5.957  17.893  0.00  0.00    +0.000 A 
ATOM     15  C   UNL     1       4.550   4.968  17.803  0.00  0.00    +0.000 A 
ATOM     16  C   UNL     1       4.579   4.134  16.666  0.00  0.00    +0.000 A 
ATOM     17  C   UNL     1       5.548   4.275  15.666  0.00  0.00    +0.000 A 
BRANCH  12  19
ATOM     18  C   UNL     1       7.334   4.889  13.595  0.00  0.00    +0.000 C 
ATOM     19  O   UNL     1       7.504   5.510  14.864  0.00  0.00    +0.000 OA
ENDBRANCH  12  19
ENDBRANCH   1  15
BRANCH   7  20
ATOM     20  C   UNL     1       1.464   8.168  20.325  0.00  0.00    +0.000 A 
ATOM     21  C   UNL     1       0.948   9.282  20.999  0.00  0.00    +0.000 A 
ATOM     22  C   UNL     1       0.831  10.518  20.361  0.00  0.00    +0.000 A 
ATOM     23  C   UNL     1       1.247  10.674  19.040  0.00  0.00    +0.000 A 
ATOM     24  C   UNL     1       1.727   9.565  18.347  0.00  0.00    +0.000 A 
ATOM     25  C   UNL     1       1.866   8.331  18.997  0.00  0.00    +0.000 A 
BRANCH  23  26
ATOM     26  O   UNL     1       1.054  11.913  18.515  0.00  0.00    +0.000 OA
BRANCH  26  27
ATOM     27  C   UNL     1       2.143  12.825  18.475  0.00  0.00    +0.000 C 
ATOM     28  F   UNL     1       1.857  14.022  17.923  0.00  0.00    +0.000 F 
ATOM     29  F   UNL     1       2.585  13.029  19.736  0.00  0.00    +0.000 F 
ATOM     30  F   UNL     1       3.150  12.269  17.764  0.00  0.00    +0.000 F 
ENDBRANCH  26  27
ENDBRANCH  23  26
ENDBRANCH   7  20
TORSDOF 5
ENDMDL
