MODEL 1
REMARK VINA RESULT:      -7.0      0.000      0.000
REMARK  Name = 
REMARK  2 active torsions:
REMARK  status: ('A' for Active; 'I' for Inactive)
REMARK    1  A    between atoms: C_1  and  N_2
REMARK    2  A    between atoms: C_8  and  C_9
REMARK                            x       y       z     vdW  Elec       q    Type
REMARK                         _______ _______ _______ _____ _____    ______ ____
ROOT
ATOM      1  C   UNL     1      -0.048   9.545  23.322  0.00  0.00    +0.000 C 
ATOM      2  N   UNL     1      -0.218  10.457  22.202  0.00  0.00    +0.000 N 
ATOM      3  C   UNL     1       0.380  10.031  20.998  0.00  0.00    +0.000 A 
ATOM      4  C   UNL     1       0.236  10.886  19.893  0.00  0.00    +0.000 A 
ATOM      5  C   UNL     1       0.790  10.559  18.651  0.00  0.00    +0.000 A 
ATOM      6  C   UNL     1       1.485   9.352  18.586  0.00  0.00    +0.000 A 
ATOM      7  N   UNL     1       2.167   8.750  17.563  0.00  0.00    +0.000 NA
ATOM      8  C   UNL     1       2.652   7.655  18.125  0.00  0.00    +0.000 A 
ATOM      9  O   UNL     1       2.303   7.477  19.439  0.00  0.00    +0.000 OA
ATOM     10  C   UNL     1       1.554   8.580  19.737  0.00  0.00    +0.000 A 
ATOM     11  N   UNL     1       1.026   8.846  20.942  0.00  0.00    +0.000 NA
ATOM     12  H   UNL     1       0.108  11.393  22.423  0.00  0.00    +0.000 HD
ENDROOT
BRANCH   8  13
ATOM     13  C   UNL     1       3.559   6.669  17.540  0.00  0.00    +0.000 A 
ATOM     14  C   UNL     1       3.283   5.302  17.700  0.00  0.00    +0.000 A 
ATOM     15  C   UNL     1       4.081   4.329  17.090  0.00  0.00    +0.000 A 
ATOM     16  C   UNL     1       5.169   4.719  16.315  0.00  0.00    +0.000 A 
ATOM     17 CL   UNL     1       6.128   3.529  15.529  0.00  0.00    +0.000 Cl
ATOM     18  C   UNL     1       5.475   6.070  16.162  0.00  0.00    +0.000 A 
ATOM     19  C   UNL     1       4.675   7.042  16.774  0.00  0.00    +0.000 A 
ENDBRANCH   8  13
TORSDOF 1
ENDMDL
MODEL 2
REMARK VINA RESULT:      -6.9      3.930      7.027
REMARK  Name = 
REMARK  2 active torsions:
REMARK  status: ('A' for Active; 'I' for Inactive)
REMARK    1  A    between atoms: C_1  and  N_2
REMARK    2  A    between atoms: C_8  and  C_9
REMARK                            x       y       z     vdW  Elec       q    Type
REMARK                         _______ _______ _______ _____ _____    ______ ____
ROOT
ATOM      1  C   UNL     1       4.355   2.238  19.891  0.00  0.00    +0.000 C 
ATOM      2  N   UNL     1       4.576   2.983  18.662  0.00  0.00    +0.000 N 
ATOM      3  C   UNL     1       4.030   4.283  18.654  0.00  0.00    +0.000 A 
ATOM      4  C   UNL     1       4.222   5.034  17.484  0.00  0.00    +0.000 A 
ATOM      5  C   UNL     1       3.722   6.335  17.371  0.00  0.00    +0.000 A 
ATOM      6  C   UNL     1       3.028   6.826  18.475  0.00  0.00    +0.000 A 
ATOM      7  N   UNL     1       2.390   8.017  18.693  0.00  0.00    +0.000 NA
ATOM      8  C   UNL     1       1.878   7.871  19.904  0.00  0.00    +0.000 A 
ATOM      9  O   UNL     1       2.170   6.678  20.514  0.00  0.00    +0.000 OA
ATOM     10  C   UNL     1       2.908   6.000  19.585  0.00  0.00    +0.000 A 
ATOM     11  N   UNL     1       3.383   4.755  19.743  0.00  0.00    +0.000 NA
ATOM     12  H   UNL     1       4.242   2.477  17.847  0.00  0.00    +0.000 HD
ENDROOT
BRANCH   8  13
ATOM     13  C   UNL     1       0.995   8.786  20.624  0.00  0.00    +0.000 A 
ATOM     14  C   UNL     1       0.856   8.653  22.015  0.00  0.00    +0.000 A 
ATOM     15  C   UNL     1       0.083   9.557  22.751  0.00  0.00    +0.000 A 
ATOM     16  C   UNL     1      -0.563  10.602  22.098  0.00  0.00    +0.000 A 
ATOM     17 CL   UNL     1      -1.480  11.739  23.004  0.00  0.00    +0.000 Cl
ATOM     18  C   UNL     1      -0.458  10.738  20.715  0.00  0.00    +0.000 A 
ATOM     19  C   UNL     1       0.316   9.833  19.980  0.00  0.00    +0.000 A 
ENDBRANCH   8  13
TORSDOF 1
ENDMDL
MODEL 3
REMARK VINA RESULT:      -6.8      1.338      2.079
REMARK  Name = 
REMARK  2 active torsions:
REMARK  status: ('A' for Active; 'I' for Inactive)
REMARK    1  A    between atoms: C_1  and  N_2
REMARK    2  A    between atoms: C_8  and  C_9
REMARK                            x       y       z     vdW  Elec       q    Type
REMARK                         _______ _______ _______ _____ _____    ______ ____
ROOT
ATOM      1  C   UNL     1      -1.053  12.281  18.491  0.00  0.00    +0.000 C 
ATOM      2  N   UNL     1      -1.085  11.563  19.756  0.00  0.00    +0.000 N 
ATOM      3  C   UNL     1      -0.226  10.446  19.822  0.00  0.00    +0.000 A 
ATOM      4  C   UNL     1      -0.230   9.727  21.028  0.00  0.00    +0.000 A 
ATOM      5  C   UNL     1       0.585   8.603  21.200  0.00  0.00    +0.000 A 
ATOM      6  C   UNL     1       1.382   8.249  20.113  0.00  0.00    +0.000 A 
ATOM      7  N   UNL     1       2.254   7.210  19.925  0.00  0.00    +0.000 NA
ATOM      8  C   UNL     1       2.663   7.379  18.678  0.00  0.00    +0.000 A 
ATOM      9  O   UNL     1       2.148   8.482  18.046  0.00  0.00    +0.000 OA
ATOM     10  C   UNL     1       1.314   9.039  18.974  0.00  0.00    +0.000 A 
ATOM     11  N   UNL     1       0.561  10.131  18.770  0.00  0.00    +0.000 NA
ATOM     12  H   UNL     1      -2.027  11.273  20.003  0.00  0.00    +0.000 HD
ENDROOT
BRANCH   8  13
ATOM     13  C   UNL     1       3.527   6.504  17.888  0.00  0.00    +0.000 A 
ATOM     14  C   UNL     1       3.321   5.116  17.932  0.00  0.00    +0.000 A 
ATOM     15  C   UNL     1       4.073   4.250  17.132  0.00  0.00    +0.000 A 
ATOM     16  C   UNL     1       5.044   4.769  16.280  0.00  0.00    +0.000 A 
ATOM     17 CL   UNL     1       5.942   3.713  15.264  0.00  0.00    +0.000 Cl
ATOM     18  C   UNL     1       5.281   6.142  16.238  0.00  0.00    +0.000 A 
ATOM     19  C   UNL     1       4.527   7.006  17.040  0.00  0.00    +0.000 A 
ENDBRANCH   8  13
TORSDOF 1
ENDMDL
MODEL 4
REMARK VINA RESULT:      -6.8      3.784      6.748
REMARK  Name = 
REMARK  2 active torsions:
REMARK  status: ('A' for Active; 'I' for Inactive)
REMARK    1  A    between atoms: C_1  and  N_2
REMARK    2  A    between atoms: C_8  and  C_9
REMARK                            x       y       z     vdW  Elec       q    Type
REMARK                         _______ _______ _______ _____ _____    ______ ____
ROOT
ATOM      1  C   UNL     1       4.381   2.152  20.453  0.00  0.00    +0.000 C 
ATOM      2  N   UNL     1       4.941   2.657  19.209  0.00  0.00    +0.000 N 
ATOM      3  C   UNL     1       4.500   3.946  18.844  0.00  0.00    +0.000 A 
ATOM      4  C   UNL     1       5.019   4.467  17.648  0.00  0.00    +0.000 A 
ATOM      5  C   UNL     1       4.648   5.737  17.194  0.00  0.00    +0.000 A 
ATOM      6  C   UNL     1       3.743   6.436  17.991  0.00  0.00    +0.000 A 
ATOM      7  N   UNL     1       3.152   7.660  17.836  0.00  0.00    +0.000 NA
ATOM      8  C   UNL     1       2.355   7.748  18.889  0.00  0.00    +0.000 A 
ATOM      9  O   UNL     1       2.411   6.680  19.746  0.00  0.00    +0.000 OA
ATOM     10  C   UNL     1       3.304   5.828  19.159  0.00  0.00    +0.000 A 
ATOM     11  N   UNL     1       3.643   4.622  19.640  0.00  0.00    +0.000 NA
ATOM     12  H   UNL     1       4.780   2.018  18.435  0.00  0.00    +0.000 HD
ENDROOT
BRANCH   8  13
ATOM     13  C   UNL     1       1.387   8.799  19.199  0.00  0.00    +0.000 A 
ATOM     14  C   UNL     1       0.953   8.961  20.525  0.00  0.00    +0.000 A 
ATOM     15  C   UNL     1       0.089  10.003  20.877  0.00  0.00    +0.000 A 
ATOM     16  C   UNL     1      -0.352  10.891  19.900  0.00  0.00    +0.000 A 
ATOM     17 CL   UNL     1      -1.381  12.198  20.336  0.00  0.00    +0.000 Cl
ATOM     18  C   UNL     1       0.048  10.734  18.574  0.00  0.00    +0.000 A 
ATOM     19  C   UNL     1       0.912   9.690  18.224  0.00  0.00    +0.000 A 
ENDBRANCH   8  13
TORSDOF 1
ENDMDL
MODEL 5
REMARK VINA RESULT:      -6.8      1.305      2.302
REMARK  Name = 
REMARK  2 active torsions:
REMARK  status: ('A' for Active; 'I' for Inactive)
REMARK    1  A    between atoms: C_1  and  N_2
REMARK    2  A    between atoms: C_8  and  C_9
REMARK                            x       y       z     vdW  Elec       q    Type
REMARK                         _______ _______ _______ _____ _____    ______ ____
ROOT
ATOM      1  C   UNL     1      -0.133  12.358  19.027  0.00  0.00    +0.000 C 
ATOM      2  N   UNL     1      -0.246  11.484  20.185  0.00  0.00    +0.000 N 
ATOM      3  C   UNL     1       0.466  10.271  20.080  0.00  0.00    +0.000 A 
ATOM      4  C   UNL     1       0.381   9.401  21.178  0.00  0.00    +0.000 A 
ATOM      5  C   UNL     1       1.049   8.172  21.178  0.00  0.00    +0.000 A 
ATOM      6  C   UNL     1       1.787   7.873  20.035  0.00  0.00    +0.000 A 
ATOM      7  N   UNL     1       2.519   6.770  19.687  0.00  0.00    +0.000 NA
ATOM      8  C   UNL     1       2.937   7.054  18.464  0.00  0.00    +0.000 A 
ATOM      9  O   UNL     1       2.560   8.288  17.998  0.00  0.00    +0.000 OA
ATOM     10  C   UNL     1       1.810   8.812  19.013  0.00  0.00    +0.000 A 
ATOM     11  N   UNL     1       1.199  10.007  18.976  0.00  0.00    +0.000 NA
ATOM     12  H   UNL     1      -1.215  11.283  20.414  0.00  0.00    +0.000 HD
ENDROOT
BRANCH   8  13
ATOM     13  C   UNL     1       3.677   6.194  17.543  0.00  0.00    +0.000 A 
ATOM     14  C   UNL     1       4.583   6.774  16.641  0.00  0.00    +0.000 A 
ATOM     15  C   UNL     1       5.368   5.981  15.798  0.00  0.00    +0.000 A 
ATOM     16  C   UNL     1       5.248   4.596  15.849  0.00  0.00    +0.000 A 
ATOM     17 CL   UNL     1       6.241   3.615  14.844  0.00  0.00    +0.000 Cl
ATOM     18  C   UNL     1       4.338   4.000  16.720  0.00  0.00    +0.000 A 
ATOM     19  C   UNL     1       3.553   4.796  17.563  0.00  0.00    +0.000 A 
ENDBRANCH   8  13
TORSDOF 1
ENDMDL
MODEL 6
REMARK VINA RESULT:      -6.8      3.954      7.087
REMARK  Name = 
REMARK  2 active torsions:
REMARK  status: ('A' for Active; 'I' for Inactive)
REMARK    1  A    between atoms: C_1  and  N_2
REMARK    2  A    between atoms: C_8  and  C_9
REMARK                            x       y       z     vdW  Elec       q    Type
REMARK                         _______ _______ _______ _____ _____    ______ ____
ROOT
ATOM      1  C   UNL     1       4.316   2.197  19.977  0.00  0.00    +0.000 C 
ATOM      2  N   UNL     1       4.484   2.915  18.724  0.00  0.00    +0.000 N 
ATOM      3  C   UNL     1       3.951   4.221  18.716  0.00  0.00    +0.000 A 
ATOM      4  C   UNL     1       4.094   4.946  17.522  0.00  0.00    +0.000 A 
ATOM      5  C   UNL     1       3.602   6.250  17.408  0.00  0.00    +0.000 A 
ATOM      6  C   UNL     1       2.968   6.770  18.534  0.00  0.00    +0.000 A 
ATOM      7  N   UNL     1       2.353   7.973  18.758  0.00  0.00    +0.000 NA
ATOM      8  C   UNL     1       1.900   7.857  19.996  0.00  0.00    +0.000 A 
ATOM      9  O   UNL     1       2.209   6.673  20.615  0.00  0.00    +0.000 OA
ATOM     10  C   UNL     1       2.894   5.969  19.665  0.00  0.00    +0.000 A 
ATOM     11  N   UNL     1       3.364   4.722  19.825  0.00  0.00    +0.000 NA
ATOM     12  H   UNL     1       4.105   2.396  17.937  0.00  0.00    +0.000 HD
ENDROOT
BRANCH   8  13
ATOM     13  C   UNL     1       1.063   8.796  20.740  0.00  0.00    +0.000 A 
ATOM     14  C   UNL     1       0.302   9.743  20.036  0.00  0.00    +0.000 A 
ATOM     15  C   UNL     1      -0.572  10.606  20.704  0.00  0.00    +0.000 A 
ATOM     16  C   UNL     1      -0.687  10.531  22.089  0.00  0.00    +0.000 A 
ATOM     17 CL   UNL     1      -1.790  11.563  22.911  0.00  0.00    +0.000 Cl
ATOM     18  C   UNL     1       0.076   9.615  22.810  0.00  0.00    +0.000 A 
ATOM     19  C   UNL     1       0.950   8.752  22.139  0.00  0.00    +0.000 A 
ENDBRANCH   8  13
TORSDOF 1
ENDMDL
MODEL 7
REMARK VINA RESULT:      -6.7      6.730      8.550
REMARK  Name = 
REMARK  2 active torsions:
REMARK  status: ('A' for Active; 'I' for Inactive)
REMARK    1  A    between atoms: C_1  and  N_2
REMARK    2  A    between atoms: C_8  and  C_9
REMARK                            x       y       z     vdW  Elec       q    Type
REMARK                         _______ _______ _______ _____ _____    ______ ____
ROOT
ATOM      1  C   UNL     1       5.469   4.947  14.590  0.00  0.00    +0.000 C 
ATOM      2  N   UNL     1       6.025   4.301  15.768  0.00  0.00    +0.000 N 
ATOM      3  C   UNL     1       6.691   5.169  16.658  0.00  0.00    +0.000 A 
ATOM      4  C   UNL     1       7.242   4.582  17.808  0.00  0.00    +0.000 A 
ATOM      5  C   UNL     1       7.922   5.353  18.756  0.00  0.00    +0.000 A 
ATOM      6  C   UNL     1       8.019   6.716  18.487  0.00  0.00    +0.000 A 
ATOM      7  N   UNL     1       8.630   7.737  19.164  0.00  0.00    +0.000 NA
ATOM      8  C   UNL     1       8.419   8.787  18.387  0.00  0.00    +0.000 A 
ATOM      9  O   UNL     1       7.678   8.533  17.262  0.00  0.00    +0.000 OA
ATOM     10  C   UNL     1       7.426   7.191  17.325  0.00  0.00    +0.000 A 
ATOM     11  N   UNL     1       6.752   6.493  16.397  0.00  0.00    +0.000 NA
ATOM     12  H   UNL     1       6.647   3.536  15.522  0.00  0.00    +0.000 HD
ENDROOT
BRANCH   8  13
ATOM     13  C   UNL     1       8.938  10.144  18.548  0.00  0.00    +0.000 A 
ATOM     14  C   UNL     1       8.514  11.149  17.665  0.00  0.00    +0.000 A 
ATOM     15  C   UNL     1       8.925  12.475  17.832  0.00  0.00    +0.000 A 
ATOM     16  C   UNL     1       9.769  12.806  18.888  0.00  0.00    +0.000 A 
ATOM     17 CL   UNL     1      10.243  14.442  19.123  0.00  0.00    +0.000 Cl
ATOM     18  C   UNL     1      10.220  11.819  19.763  0.00  0.00    +0.000 A 
ATOM     19  C   UNL     1       9.809  10.493  19.593  0.00  0.00    +0.000 A 
ENDBRANCH   8  13
TORSDOF 1
ENDMDL
MODEL 8
REMARK VINA RESULT:      -6.7      3.703      6.808
REMARK  Name = 
REMARK  2 active torsions:
REMARK  status: ('A' for Active; 'I' for Inactive)
REMARK    1  A    between atoms: C_1  and  N_2
REMARK    2  A    between atoms: C_8  and  C_9
REMARK                            x       y       z     vdW  Elec       q    Type
REMARK                         _______ _______ _______ _____ _____    ______ ____
ROOT
ATOM      1  C   UNL     1       4.144   2.242  19.797  0.00  0.00    +0.000 C 
ATOM      2  N   UNL     1       4.767   2.868  18.641  0.00  0.00    +0.000 N 
ATOM      3  C   UNL     1       4.357   4.194  18.396  0.00  0.00    +0.000 A 
ATOM      4  C   UNL     1       4.937   4.833  17.288  0.00  0.00    +0.000 A 
ATOM      5  C   UNL     1       4.600   6.149  16.956  0.00  0.00    +0.000 A 
ATOM      6  C   UNL     1       3.665   6.772  17.780  0.00  0.00    +0.000 A 
ATOM      7  N   UNL     1       3.093   8.015  17.730  0.00  0.00    +0.000 NA
ATOM      8  C   UNL     1       2.248   8.002  18.748  0.00  0.00    +0.000 A 
ATOM      9  O   UNL     1       2.253   6.847  19.487  0.00  0.00    +0.000 OA
ATOM     10  C   UNL     1       3.165   6.050  18.855  0.00  0.00    +0.000 A 
ATOM     11  N   UNL     1       3.470   4.795  19.219  0.00  0.00    +0.000 NA
ATOM     12  H   UNL     1       4.637   2.318  17.797  0.00  0.00    +0.000 HD
ENDROOT
BRANCH   8  13
ATOM     13  C   UNL     1       1.277   9.027  19.124  0.00  0.00    +0.000 A 
ATOM     14  C   UNL     1       0.560   9.695  18.118  0.00  0.00    +0.000 A 
ATOM     15  C   UNL     1      -0.433  10.625  18.438  0.00  0.00    +0.000 A 
ATOM     16  C   UNL     1      -0.716  10.899  19.773  0.00  0.00    +0.000 A 
ATOM     17 CL   UNL     1      -1.965  12.011  20.172  0.00  0.00    +0.000 Cl
ATOM     18  C   UNL     1      -0.000  10.264  20.787  0.00  0.00    +0.000 A 
ATOM     19  C   UNL     1       0.994   9.334  20.464  0.00  0.00    +0.000 A 
ENDBRANCH   8  13
TORSDOF 1
ENDMDL
MODEL 9
REMARK VINA RESULT:      -6.7      0.146      1.146
REMARK  Name = 
REMARK  2 active torsions:
REMARK  status: ('A' for Active; 'I' for Inactive)
REMARK    1  A    between atoms: C_1  and  N_2
REMARK    2  A    between atoms: C_8  and  C_9
REMARK                            x       y       z     vdW  Elec       q    Type
REMARK                         _______ _______ _______ _____ _____    ______ ____
ROOT
ATOM      1  C   UNL     1      -0.043   9.524  23.387  0.00  0.00    +0.000 C 
ATOM      2  N   UNL     1      -0.144  10.496  22.311  0.00  0.00    +0.000 N 
ATOM      3  C   UNL     1       0.433  10.088  21.091  0.00  0.00    +0.000 A 
ATOM      4  C   UNL     1       0.355  11.001  20.027  0.00  0.00    +0.000 A 
ATOM      5  C   UNL     1       0.895  10.696  18.773  0.00  0.00    +0.000 A 
ATOM      6  C   UNL     1       1.509   9.451  18.654  0.00  0.00    +0.000 A 
ATOM      7  N   UNL     1       2.157   8.853  17.607  0.00  0.00    +0.000 NA
ATOM      8  C   UNL     1       2.565   7.703  18.119  0.00  0.00    +0.000 A 
ATOM      9  O   UNL     1       2.195   7.488  19.422  0.00  0.00    +0.000 OA
ATOM     10  C   UNL     1       1.518   8.623  19.768  0.00  0.00    +0.000 A 
ATOM     11  N   UNL     1       1.001   8.867  20.982  0.00  0.00    +0.000 NA
ATOM     12  H   UNL     1       0.242  11.397  22.577  0.00  0.00    +0.000 HD
ENDROOT
BRANCH   8  13
ATOM     13  C   UNL     1       3.410   6.688  17.492  0.00  0.00    +0.000 A 
ATOM     14  C   UNL     1       4.479   7.093  16.678  0.00  0.00    +0.000 A 
ATOM     15  C   UNL     1       5.358   6.157  16.124  0.00  0.00    +0.000 A 
ATOM     16  C   UNL     1       5.169   4.802  16.378  0.00  0.00    +0.000 A 
ATOM     17 CL   UNL     1       6.271   3.650  15.734  0.00  0.00    +0.000 Cl
ATOM     18  C   UNL     1       4.099   4.376  17.164  0.00  0.00    +0.000 A 
ATOM     19  C   UNL     1       3.221   5.315  17.717  0.00  0.00    +0.000 A 
ENDBRANCH   8  13
TORSDOF 1
ENDMDL
