MODEL 1
REMARK VINA RESULT:      -8.5      0.000      0.000
REMARK  Name = 
REMARK  8 active torsions:
REMARK  status: ('A' for Active; 'I' for Inactive)
REMARK    1  A    between atoms: C_1  and  C_2
REMARK    2  A    between atoms: C_2  and  O_3
REMARK    3  A    between atoms: O_3  and  C_4
REMARK    4  A    between atoms: C_7  and  N_8
REMARK    5  A    between atoms: C_12  and  N_13
REMARK    6  A    between atoms: N_13  and  C_14
REMARK    7  A    between atoms: C_14  and  C_15
REMARK    8  A    between atoms: C_15  and  C_16
REMARK                            x       y       z     vdW  Elec       q    Type
REMARK                         _______ _______ _______ _____ _____    ______ ____
ROOT
ATOM      1  N   UNL     1       2.673   5.449  19.771  0.00  0.00    +0.000 N 
ATOM      2  C   UNL     1       1.902   4.334  19.999  0.00  0.00    +0.000 C 
ATOM      3  O   UNL     1       0.698   4.262  20.233  0.00  0.00    +0.000 OA
ATOM      4  C   UNL     1       2.731   3.089  19.882  0.00  0.00    +0.000 C 
ATOM      5  C   UNL     1       4.159   3.577  19.861  0.00  0.00    +0.000 C 
ATOM      6  C   UNL     1       4.002   5.087  19.624  0.00  0.00    +0.000 C 
ATOM      7  O   UNL     1       4.975   5.809  19.427  0.00  0.00    +0.000 OA
ENDROOT
BRANCH   1  11
ATOM      8  C   UNL     1       1.146   9.492  19.616  0.00  0.00    +0.000 A 
ATOM      9  C   UNL     1       1.700   8.894  18.487  0.00  0.00    +0.000 A 
ATOM     10  C   UNL     1       2.197   7.575  18.532  0.00  0.00    +0.000 A 
ATOM     11  C   UNL     1       2.163   6.802  19.710  0.00  0.00    +0.000 A 
ATOM     12  C   UNL     1       1.618   7.438  20.838  0.00  0.00    +0.000 A 
ATOM     13  C   UNL     1       1.124   8.759  20.798  0.00  0.00    +0.000 A 
BRANCH   8  14
ATOM     14  O   UNL     1       0.708  10.780  19.462  0.00  0.00    +0.000 OA
BRANCH  14  16
ATOM     15  C   UNL     1      -0.656  12.278  20.763  0.00  0.00    +0.000 C 
ATOM     16  C   UNL     1      -0.638  11.047  19.867  0.00  0.00    +0.000 C 
ENDBRANCH  14  16
ENDBRANCH   8  14
ENDBRANCH   1  11
BRANCH   5  17
ATOM     17  N   UNL     1       5.022   2.957  18.827  0.00  0.00    +0.000 NA
ATOM     18  H   UNL     1       5.347   2.057  19.202  0.00  0.00    +0.000 HD
BRANCH  17  19
ATOM     19  C   UNL     1       4.365   2.724  17.513  0.00  0.00    +0.000 C 
BRANCH  19  20
ATOM     20  C   UNL     1       4.369   4.006  16.657  0.00  0.00    +0.000 C 
BRANCH  20  21
ATOM     21  C   UNL     1       5.604   4.330  15.854  0.00  0.00    +0.000 A 
ATOM     22  C   UNL     1       6.716   4.937  16.416  0.00  0.00    +0.000 A 
ATOM     23  N   UNL     1       7.339   5.601  15.399  0.00  0.00    +0.000 N 
ATOM     24  C   UNL     1       7.101   4.925  14.228  0.00  0.00    +0.000 A 
ATOM     25  C   UNL     1       7.780   4.994  13.002  0.00  0.00    +0.000 A 
ATOM     26  C   UNL     1       7.281   4.222  11.954  0.00  0.00    +0.000 A 
ATOM     27  C   UNL     1       6.104   3.508  12.104  0.00  0.00    +0.000 A 
ATOM     28  C   UNL     1       5.387   3.514  13.329  0.00  0.00    +0.000 A 
ATOM     29  C   UNL     1       5.931   4.182  14.453  0.00  0.00    +0.000 A 
ATOM     30  H   UNL     1       7.940   6.406  15.493  0.00  0.00    +0.000 HD
ENDBRANCH  20  21
ENDBRANCH  19  20
ENDBRANCH  17  19
ENDBRANCH   5  17
TORSDOF 7
ENDMDL
MODEL 2
REMARK VINA RESULT:      -8.1      5.706      7.928
REMARK  Name = 
REMARK  8 active torsions:
REMARK  status: ('A' for Active; 'I' for Inactive)
REMARK    1  A    between atoms: C_1  and  C_2
REMARK    2  A    between atoms: C_2  and  O_3
REMARK    3  A    between atoms: O_3  and  C_4
REMARK    4  A    between atoms: C_7  and  N_8
REMARK    5  A    between atoms: C_12  and  N_13
REMARK    6  A    between atoms: N_13  and  C_14
REMARK    7  A    between atoms: C_14  and  C_15
REMARK    8  A    between atoms: C_15  and  C_16
REMARK                            x       y       z     vdW  Elec       q    Type
REMARK                         _______ _______ _______ _____ _____    ______ ____
ROOT
ATOM      1  N   UNL     1       5.869   5.855  17.941  0.00  0.00    +0.000 N 
ATOM      2  C   UNL     1       6.074   6.512  16.750  0.00  0.00    +0.000 C 
ATOM      3  O   UNL     1       5.366   6.529  15.746  0.00  0.00    +0.000 OA
ATOM      4  C   UNL     1       7.336   7.322  16.808  0.00  0.00    +0.000 C 
ATOM      5  C   UNL     1       8.044   6.845  18.052  0.00  0.00    +0.000 C 
ATOM      6  C   UNL     1       6.954   6.045  18.781  0.00  0.00    +0.000 C 
ATOM      7  O   UNL     1       7.135   5.599  19.911  0.00  0.00    +0.000 OA
ENDROOT
BRANCH   1  11
ATOM      8  C   UNL     1       2.376   3.483  18.871  0.00  0.00    +0.000 A 
ATOM      9  C   UNL     1       2.413   4.844  19.161  0.00  0.00    +0.000 A 
ATOM     10  C   UNL     1       3.549   5.623  18.857  0.00  0.00    +0.000 A 
ATOM     11  C   UNL     1       4.696   5.069  18.255  0.00  0.00    +0.000 A 
ATOM     12  C   UNL     1       4.639   3.689  17.993  0.00  0.00    +0.000 A 
ATOM     13  C   UNL     1       3.506   2.906  18.300  0.00  0.00    +0.000 A 
BRANCH   8  14
ATOM     14  O   UNL     1       1.229   2.822  19.222  0.00  0.00    +0.000 OA
BRANCH  14  16
ATOM     15  C   UNL     1       1.543   2.532  21.592  0.00  0.00    +0.000 C 
ATOM     16  C   UNL     1       0.675   3.145  20.502  0.00  0.00    +0.000 C 
ENDBRANCH  14  16
ENDBRANCH   8  14
ENDBRANCH   1  11
BRANCH   5  17
ATOM     17  N   UNL     1       8.591   7.920  18.915  0.00  0.00    +0.000 NA
ATOM     18  H   UNL     1       9.592   7.727  19.043  0.00  0.00    +0.000 HD
BRANCH  17  19
ATOM     19  C   UNL     1       8.428   9.300  18.386  0.00  0.00    +0.000 C 
BRANCH  19  20
ATOM     20  C   UNL     1       9.299  10.301  19.171  0.00  0.00    +0.000 C 
BRANCH  20  21
ATOM     21  C   UNL     1      10.039  11.367  18.400  0.00  0.00    +0.000 A 
ATOM     22  C   UNL     1      11.146  11.081  17.616  0.00  0.00    +0.000 A 
ATOM     23  N   UNL     1      11.885  12.227  17.574  0.00  0.00    +0.000 N 
ATOM     24  C   UNL     1      11.034  13.299  17.683  0.00  0.00    +0.000 A 
ATOM     25  C   UNL     1      11.247  14.647  17.355  0.00  0.00    +0.000 A 
ATOM     26  C   UNL     1      10.208  15.538  17.621  0.00  0.00    +0.000 A 
ATOM     27  C   UNL     1       9.067  15.112  18.281  0.00  0.00    +0.000 A 
ATOM     28  C   UNL     1       8.904  13.759  18.676  0.00  0.00    +0.000 A 
ATOM     29  C   UNL     1       9.880  12.801  18.308  0.00  0.00    +0.000 A 
ATOM     30  H   UNL     1      12.879  12.289  17.411  0.00  0.00    +0.000 HD
ENDBRANCH  20  21
ENDBRANCH  19  20
ENDBRANCH  17  19
ENDBRANCH   5  17
TORSDOF 7
ENDMDL
MODEL 3
REMARK VINA RESULT:      -8.1      1.722      2.816
REMARK  Name = 
REMARK  8 active torsions:
REMARK  status: ('A' for Active; 'I' for Inactive)
REMARK    1  A    between atoms: C_1  and  C_2
REMARK    2  A    between atoms: C_2  and  O_3
REMARK    3  A    between atoms: O_3  and  C_4
REMARK    4  A    between atoms: C_7  and  N_8
REMARK    5  A    between atoms: C_12  and  N_13
REMARK    6  A    between atoms: N_13  and  C_14
REMARK    7  A    between atoms: C_14  and  C_15
REMARK    8  A    between atoms: C_15  and  C_16
REMARK                            x       y       z     vdW  Elec       q    Type
REMARK                         _______ _______ _______ _____ _____    ______ ____
ROOT
ATOM      1  N   UNL     1       1.904   8.150  19.513  0.00  0.00    +0.000 N 
ATOM      2  C   UNL     1       2.313   8.577  18.272  0.00  0.00    +0.000 C 
ATOM      3  O   UNL     1       2.097   9.650  17.715  0.00  0.00    +0.000 OA
ATOM      4  C   UNL     1       3.166   7.534  17.613  0.00  0.00    +0.000 C 
ATOM      5  C   UNL     1       2.982   6.295  18.454  0.00  0.00    +0.000 C 
ATOM      6  C   UNL     1       2.304   6.839  19.721  0.00  0.00    +0.000 C 
ATOM      7  O   UNL     1       2.105   6.124  20.699  0.00  0.00    +0.000 OA
ENDROOT
BRANCH   1  11
ATOM      8  C   UNL     1      -0.331  10.536  22.343  0.00  0.00    +0.000 A 
ATOM      9  C   UNL     1      -0.311  10.865  20.990  0.00  0.00    +0.000 A 
ATOM     10  C   UNL     1       0.415  10.088  20.063  0.00  0.00    +0.000 A 
ATOM     11  C   UNL     1       1.153   8.954  20.453  0.00  0.00    +0.000 A 
ATOM     12  C   UNL     1       1.132   8.658  21.827  0.00  0.00    +0.000 A 
ATOM     13  C   UNL     1       0.411   9.435  22.758  0.00  0.00    +0.000 A 
BRANCH   8  14
ATOM     14  O   UNL     1      -1.055  11.367  23.154  0.00  0.00    +0.000 OA
BRANCH  14  16
ATOM     15  C   UNL     1      -3.248  12.216  23.676  0.00  0.00    +0.000 C 
ATOM     16  C   UNL     1      -2.225  11.959  22.578  0.00  0.00    +0.000 C 
ENDBRANCH  14  16
ENDBRANCH   8  14
ENDBRANCH   1  11
BRANCH   5  17
ATOM     17  N   UNL     1       4.230   5.565  18.783  0.00  0.00    +0.000 NA
ATOM     18  H   UNL     1       4.302   5.532  19.807  0.00  0.00    +0.000 HD
BRANCH  17  19
ATOM     19  C   UNL     1       4.311   4.180  18.247  0.00  0.00    +0.000 C 
BRANCH  19  20
ATOM     20  C   UNL     1       4.213   4.175  16.708  0.00  0.00    +0.000 C 
BRANCH  20  21
ATOM     21  C   UNL     1       5.469   4.415  15.907  0.00  0.00    +0.000 A 
ATOM     22  C   UNL     1       6.614   4.957  16.470  0.00  0.00    +0.000 A 
ATOM     23  N   UNL     1       7.281   5.572  15.449  0.00  0.00    +0.000 N 
ATOM     24  C   UNL     1       7.006   4.902  14.283  0.00  0.00    +0.000 A 
ATOM     25  C   UNL     1       7.693   4.918  13.059  0.00  0.00    +0.000 A 
ATOM     26  C   UNL     1       7.151   4.169  12.016  0.00  0.00    +0.000 A 
ATOM     27  C   UNL     1       5.931   3.531  12.167  0.00  0.00    +0.000 A 
ATOM     28  C   UNL     1       5.212   3.591  13.389  0.00  0.00    +0.000 A 
ATOM     29  C   UNL     1       5.791   4.235  14.509  0.00  0.00    +0.000 A 
ATOM     30  H   UNL     1       7.930   6.339  15.540  0.00  0.00    +0.000 HD
ENDBRANCH  20  21
ENDBRANCH  19  20
ENDBRANCH  17  19
ENDBRANCH   5  17
TORSDOF 7
ENDMDL
MODEL 4
REMARK VINA RESULT:      -8.1      5.672      7.922
REMARK  Name = 
REMARK  8 active torsions:
REMARK  status: ('A' for Active; 'I' for Inactive)
REMARK    1  A    between atoms: C_1  and  C_2
REMARK    2  A    between atoms: C_2  and  O_3
REMARK    3  A    between atoms: O_3  and  C_4
REMARK    4  A    between atoms: C_7  and  N_8
REMARK    5  A    between atoms: C_12  and  N_13
REMARK    6  A    between atoms: N_13  and  C_14
REMARK    7  A    between atoms: C_14  and  C_15
REMARK    8  A    between atoms: C_15  and  C_16
REMARK                            x       y       z     vdW  Elec       q    Type
REMARK                         _______ _______ _______ _____ _____    ______ ____
ROOT
ATOM      1  N   UNL     1       5.809   5.897  17.605  0.00  0.00    +0.000 N 
ATOM      2  C   UNL     1       6.215   6.546  16.463  0.00  0.00    +0.000 C 
ATOM      3  O   UNL     1       5.657   6.608  15.370  0.00  0.00    +0.000 OA
ATOM      4  C   UNL     1       7.501   7.279  16.705  0.00  0.00    +0.000 C 
ATOM      5  C   UNL     1       8.000   6.757  18.030  0.00  0.00    +0.000 C 
ATOM      6  C   UNL     1       6.775   6.019  18.591  0.00  0.00    +0.000 C 
ATOM      7  O   UNL     1       6.770   5.559  19.729  0.00  0.00    +0.000 OA
ENDROOT
BRANCH   1  11
ATOM      8  C   UNL     1       2.063   3.778  18.021  0.00  0.00    +0.000 A 
ATOM      9  C   UNL     1       3.230   3.103  17.675  0.00  0.00    +0.000 A 
ATOM     10  C   UNL     1       4.455   3.789  17.541  0.00  0.00    +0.000 A 
ATOM     11  C   UNL     1       4.560   5.180  17.743  0.00  0.00    +0.000 A 
ATOM     12  C   UNL     1       3.362   5.838  18.070  0.00  0.00    +0.000 A 
ATOM     13  C   UNL     1       2.134   5.156  18.201  0.00  0.00    +0.000 A 
BRANCH   8  14
ATOM     14  O   UNL     1       0.930   3.015  18.110  0.00  0.00    +0.000 OA
BRANCH  14  16
ATOM     15  C   UNL     1       0.997   2.933  20.515  0.00  0.00    +0.000 C 
ATOM     16  C   UNL     1       0.844   2.130  19.231  0.00  0.00    +0.000 C 
ENDBRANCH  14  16
ENDBRANCH   8  14
ENDBRANCH   1  11
BRANCH   5  17
ATOM     17  N   UNL     1       8.482   7.794  18.974  0.00  0.00    +0.000 NA
ATOM     18  H   UNL     1       9.427   7.520  19.270  0.00  0.00    +0.000 HD
BRANCH  17  19
ATOM     19  C   UNL     1       8.529   9.175  18.425  0.00  0.00    +0.000 C 
BRANCH  19  20
ATOM     20  C   UNL     1       9.256  10.132  19.391  0.00  0.00    +0.000 C 
BRANCH  20  21
ATOM     21  C   UNL     1       9.998  11.312  18.811  0.00  0.00    +0.000 A 
ATOM     22  C   UNL     1      11.329  11.236  18.430  0.00  0.00    +0.000 A 
ATOM     23  N   UNL     1      11.823  12.504  18.535  0.00  0.00    +0.000 N 
ATOM     24  C   UNL     1      10.803  13.391  18.297  0.00  0.00    +0.000 A 
ATOM     25  C   UNL     1      10.863  14.750  17.953  0.00  0.00    +0.000 A 
ATOM     26  C   UNL     1       9.650  15.426  17.821  0.00  0.00    +0.000 A 
ATOM     27  C   UNL     1       8.455  14.795  18.125  0.00  0.00    +0.000 A 
ATOM     28  C   UNL     1       8.422  13.441  18.548  0.00  0.00    +0.000 A 
ATOM     29  C   UNL     1       9.620  12.686  18.570  0.00  0.00    +0.000 A 
ATOM     30  H   UNL     1      12.790  12.755  18.683  0.00  0.00    +0.000 HD
ENDBRANCH  20  21
ENDBRANCH  19  20
ENDBRANCH  17  19
ENDBRANCH   5  17
TORSDOF 7
ENDMDL
MODEL 5
REMARK VINA RESULT:      -8.0      5.747      7.942
REMARK  Name = 
REMARK  8 active torsions:
REMARK  status: ('A' for Active; 'I' for Inactive)
REMARK    1  A    between atoms: C_1  and  C_2
REMARK    2  A    between atoms: C_2  and  O_3
REMARK    3  A    between atoms: O_3  and  C_4
REMARK    4  A    between atoms: C_7  and  N_8
REMARK    5  A    between atoms: C_12  and  N_13
REMARK    6  A    between atoms: N_13  and  C_14
REMARK    7  A    between atoms: C_14  and  C_15
REMARK    8  A    between atoms: C_15  and  C_16
REMARK                            x       y       z     vdW  Elec       q    Type
REMARK                         _______ _______ _______ _____ _____    ______ ____
ROOT
ATOM      1  N   UNL     1       5.861   5.810  18.559  0.00  0.00    +0.000 N 
ATOM      2  C   UNL     1       5.753   6.474  17.360  0.00  0.00    +0.000 C 
ATOM      3  O   UNL     1       4.828   6.464  16.552  0.00  0.00    +0.000 OA
ATOM      4  C   UNL     1       6.962   7.331  17.123  0.00  0.00    +0.000 C 
ATOM      5  C   UNL     1       7.962   6.883  18.160  0.00  0.00    +0.000 C 
ATOM      6  C   UNL     1       7.107   6.041  19.120  0.00  0.00    +0.000 C 
ATOM      7  O   UNL     1       7.567   5.604  20.171  0.00  0.00    +0.000 OA
ENDROOT
BRANCH   1  11
ATOM      8  C   UNL     1       2.752   3.353  20.286  0.00  0.00    +0.000 A 
ATOM      9  C   UNL     1       3.862   2.775  19.676  0.00  0.00    +0.000 A 
ATOM     10  C   UNL     1       4.880   3.572  19.114  0.00  0.00    +0.000 A 
ATOM     11  C   UNL     1       4.826   4.980  19.135  0.00  0.00    +0.000 A 
ATOM     12  C   UNL     1       3.684   5.535  19.738  0.00  0.00    +0.000 A 
ATOM     13  C   UNL     1       2.661   4.741  20.298  0.00  0.00    +0.000 A 
BRANCH   8  14
ATOM     14  O   UNL     1       1.819   2.484  20.785  0.00  0.00    +0.000 OA
BRANCH  14  16
ATOM     15  C   UNL     1       0.674   2.340  18.672  0.00  0.00    +0.000 C 
ATOM     16  C   UNL     1       0.524   2.520  20.176  0.00  0.00    +0.000 C 
ENDBRANCH  14  16
ENDBRANCH   8  14
ENDBRANCH   1  11
BRANCH   5  17
ATOM     17  N   UNL     1       8.659   7.977  18.878  0.00  0.00    +0.000 NA
ATOM     18  H   UNL     1       9.649   7.714  18.947  0.00  0.00    +0.000 HD
BRANCH  17  19
ATOM     19  C   UNL     1       8.557   9.316  18.240  0.00  0.00    +0.000 C 
BRANCH  19  20
ATOM     20  C   UNL     1       9.302  10.383  19.067  0.00  0.00    +0.000 C 
BRANCH  20  21
ATOM     21  C   UNL     1      10.067  11.456  18.332  0.00  0.00    +0.000 A 
ATOM     22  C   UNL     1      11.232  11.187  17.630  0.00  0.00    +0.000 A 
ATOM     23  N   UNL     1      11.945  12.351  17.621  0.00  0.00    +0.000 N 
ATOM     24  C   UNL     1      11.063  13.403  17.654  0.00  0.00    +0.000 A 
ATOM     25  C   UNL     1      11.265  14.750  17.320  0.00  0.00    +0.000 A 
ATOM     26  C   UNL     1      10.189  15.619  17.501  0.00  0.00    +0.000 A 
ATOM     27  C   UNL     1       9.016  15.173  18.088  0.00  0.00    +0.000 A 
ATOM     28  C   UNL     1       8.859  13.823  18.492  0.00  0.00    +0.000 A 
ATOM     29  C   UNL     1       9.880  12.884  18.207  0.00  0.00    +0.000 A 
ATOM     30  H   UNL     1      12.946  12.435  17.525  0.00  0.00    +0.000 HD
ENDBRANCH  20  21
ENDBRANCH  19  20
ENDBRANCH  17  19
ENDBRANCH   5  17
TORSDOF 7
ENDMDL
MODEL 6
REMARK VINA RESULT:      -7.9      2.541      8.616
REMARK  Name = 
REMARK  8 active torsions:
REMARK  status: ('A' for Active; 'I' for Inactive)
REMARK    1  A    between atoms: C_1  and  C_2
REMARK    2  A    between atoms: C_2  and  O_3
REMARK    3  A    between atoms: O_3  and  C_4
REMARK    4  A    between atoms: C_7  and  N_8
REMARK    5  A    between atoms: C_12  and  N_13
REMARK    6  A    between atoms: N_13  and  C_14
REMARK    7  A    between atoms: C_14  and  C_15
REMARK    8  A    between atoms: C_15  and  C_16
REMARK                            x       y       z     vdW  Elec       q    Type
REMARK                         _______ _______ _______ _____ _____    ______ ____
ROOT
ATOM      1  N   UNL     1       3.689   5.425  18.921  0.00  0.00    +0.000 N 
ATOM      2  C   UNL     1       3.375   4.469  19.858  0.00  0.00    +0.000 C 
ATOM      3  O   UNL     1       3.824   3.332  19.982  0.00  0.00    +0.000 OA
ATOM      4  C   UNL     1       2.372   5.004  20.838  0.00  0.00    +0.000 C 
ATOM      5  C   UNL     1       1.874   6.286  20.219  0.00  0.00    +0.000 C 
ATOM      6  C   UNL     1       2.892   6.544  19.097  0.00  0.00    +0.000 C 
ATOM      7  O   UNL     1       2.875   7.583  18.444  0.00  0.00    +0.000 OA
ENDROOT
BRANCH   1  11
ATOM      8  C   UNL     1       6.717   4.974  15.868  0.00  0.00    +0.000 A 
ATOM      9  C   UNL     1       5.489   4.328  15.756  0.00  0.00    +0.000 A 
ATOM     10  C   UNL     1       4.497   4.474  16.748  0.00  0.00    +0.000 A 
ATOM     11  C   UNL     1       4.697   5.269  17.894  0.00  0.00    +0.000 A 
ATOM     12  C   UNL     1       5.953   5.893  17.991  0.00  0.00    +0.000 A 
ATOM     13  C   UNL     1       6.949   5.745  17.003  0.00  0.00    +0.000 A 
BRANCH   8  14
ATOM     14  O   UNL     1       7.610   4.751  14.854  0.00  0.00    +0.000 OA
BRANCH  14  16
ATOM     15  C   UNL     1       7.959   5.410  12.565  0.00  0.00    +0.000 C 
ATOM     16  C   UNL     1       7.064   4.651  13.535  0.00  0.00    +0.000 C 
ENDBRANCH  14  16
ENDBRANCH   8  14
ENDBRANCH   1  11
BRANCH   5  17
ATOM     17  N   UNL     1       1.790   7.442  21.145  0.00  0.00    +0.000 NA
ATOM     18  H   UNL     1       2.616   8.028  20.976  0.00  0.00    +0.000 HD
BRANCH  17  19
ATOM     19  C   UNL     1       0.567   8.276  21.003  0.00  0.00    +0.000 C 
BRANCH  19  20
ATOM     20  C   UNL     1       0.919   9.697  20.518  0.00  0.00    +0.000 C 
BRANCH  20  21
ATOM     21  C   UNL     1      -0.197  10.585  20.026  0.00  0.00    +0.000 A 
ATOM     22  C   UNL     1      -0.616  11.707  20.726  0.00  0.00    +0.000 A 
ATOM     23  N   UNL     1      -1.921  11.902  20.379  0.00  0.00    +0.000 N 
ATOM     24  C   UNL     1      -2.106  11.443  19.099  0.00  0.00    +0.000 A 
ATOM     25  C   UNL     1      -3.137  11.722  18.189  0.00  0.00    +0.000 A 
ATOM     26  C   UNL     1      -3.095  11.065  16.960  0.00  0.00    +0.000 A 
ATOM     27  C   UNL     1      -2.131  10.103  16.708  0.00  0.00    +0.000 A 
ATOM     28  C   UNL     1      -1.143   9.777  17.672  0.00  0.00    +0.000 A 
ATOM     29  C   UNL     1      -1.076  10.514  18.880  0.00  0.00    +0.000 A 
ATOM     30  H   UNL     1      -2.620  12.376  20.933  0.00  0.00    +0.000 HD
ENDBRANCH  20  21
ENDBRANCH  19  20
ENDBRANCH  17  19
ENDBRANCH   5  17
TORSDOF 7
ENDMDL
MODEL 7
REMARK VINA RESULT:      -7.8      5.527      8.229
REMARK  Name = 
REMARK  8 active torsions:
REMARK  status: ('A' for Active; 'I' for Inactive)
REMARK    1  A    between atoms: C_1  and  C_2
REMARK    2  A    between atoms: C_2  and  O_3
REMARK    3  A    between atoms: O_3  and  C_4
REMARK    4  A    between atoms: C_7  and  N_8
REMARK    5  A    between atoms: C_12  and  N_13
REMARK    6  A    between atoms: N_13  and  C_14
REMARK    7  A    between atoms: C_14  and  C_15
REMARK    8  A    between atoms: C_15  and  C_16
REMARK                            x       y       z     vdW  Elec       q    Type
REMARK                         _______ _______ _______ _____ _____    ______ ____
ROOT
ATOM      1  N   UNL     1       5.711   5.852  17.623  0.00  0.00    +0.000 N 
ATOM      2  C   UNL     1       6.109   6.503  16.479  0.00  0.00    +0.000 C 
ATOM      3  O   UNL     1       5.536   6.580  15.395  0.00  0.00    +0.000 OA
ATOM      4  C   UNL     1       7.409   7.217  16.707  0.00  0.00    +0.000 C 
ATOM      5  C   UNL     1       7.920   6.679  18.020  0.00  0.00    +0.000 C 
ATOM      6  C   UNL     1       6.693   5.954  18.595  0.00  0.00    +0.000 C 
ATOM      7  O   UNL     1       6.698   5.487  19.730  0.00  0.00    +0.000 OA
ENDROOT
BRANCH   1  11
ATOM      8  C   UNL     1       1.942   3.783  18.080  0.00  0.00    +0.000 A 
ATOM      9  C   UNL     1       3.100   3.090  17.739  0.00  0.00    +0.000 A 
ATOM     10  C   UNL     1       4.332   3.760  17.591  0.00  0.00    +0.000 A 
ATOM     11  C   UNL     1       4.454   5.152  17.774  0.00  0.00    +0.000 A 
ATOM     12  C   UNL     1       3.265   5.829  18.097  0.00  0.00    +0.000 A 
ATOM     13  C   UNL     1       2.030   5.163  18.242  0.00  0.00    +0.000 A 
BRANCH   8  14
ATOM     14  O   UNL     1       0.800   3.035  18.183  0.00  0.00    +0.000 OA
BRANCH  14  16
ATOM     15  C   UNL     1       1.082   3.028  20.574  0.00  0.00    +0.000 C 
ATOM     16  C   UNL     1       0.677   2.217  19.351  0.00  0.00    +0.000 C 
ENDBRANCH  14  16
ENDBRANCH   8  14
ENDBRANCH   1  11
BRANCH   5  17
ATOM     17  N   UNL     1       8.431   7.703  18.964  0.00  0.00    +0.000 NA
ATOM     18  H   UNL     1       9.408   7.464  19.172  0.00  0.00    +0.000 HD
BRANCH  17  19
ATOM     19  C   UNL     1       8.370   9.104  18.469  0.00  0.00    +0.000 C 
BRANCH  19  20
ATOM     20  C   UNL     1       9.565   9.927  18.988  0.00  0.00    +0.000 C 
BRANCH  20  21
ATOM     21  C   UNL     1       9.366  11.402  19.239  0.00  0.00    +0.000 A 
ATOM     22  C   UNL     1       9.330  12.331  18.210  0.00  0.00    +0.000 A 
ATOM     23  N   UNL     1       9.736  13.514  18.755  0.00  0.00    +0.000 N 
ATOM     24  C   UNL     1       9.374  13.531  20.079  0.00  0.00    +0.000 A 
ATOM     25  C   UNL     1       9.252  14.618  20.959  0.00  0.00    +0.000 A 
ATOM     26  C   UNL     1       8.912  14.331  22.280  0.00  0.00    +0.000 A 
ATOM     27  C   UNL     1       8.810  13.018  22.712  0.00  0.00    +0.000 A 
ATOM     28  C   UNL     1       9.015  11.931  21.824  0.00  0.00    +0.000 A 
ATOM     29  C   UNL     1       9.234  12.184  20.448  0.00  0.00    +0.000 A 
ATOM     30  H   UNL     1      10.159  14.284  18.258  0.00  0.00    +0.000 HD
ENDBRANCH  20  21
ENDBRANCH  19  20
ENDBRANCH  17  19
ENDBRANCH   5  17
TORSDOF 7
ENDMDL
MODEL 8
REMARK VINA RESULT:      -7.7      6.124      8.479
REMARK  Name = 
REMARK  8 active torsions:
REMARK  status: ('A' for Active; 'I' for Inactive)
REMARK    1  A    between atoms: C_1  and  C_2
REMARK    2  A    between atoms: C_2  and  O_3
REMARK    3  A    between atoms: O_3  and  C_4
REMARK    4  A    between atoms: C_7  and  N_8
REMARK    5  A    between atoms: C_12  and  N_13
REMARK    6  A    between atoms: N_13  and  C_14
REMARK    7  A    between atoms: C_14  and  C_15
REMARK    8  A    between atoms: C_15  and  C_16
REMARK                            x       y       z     vdW  Elec       q    Type
REMARK                         _______ _______ _______ _____ _____    ______ ____
ROOT
ATOM      1  N   UNL     1       6.099   5.744  17.884  0.00  0.00    +0.000 N 
ATOM      2  C   UNL     1       6.091   6.601  16.809  0.00  0.00    +0.000 C 
ATOM      3  O   UNL     1       5.297   6.657  15.872  0.00  0.00    +0.000 OA
ATOM      4  C   UNL     1       7.218   7.585  16.913  0.00  0.00    +0.000 C 
ATOM      5  C   UNL     1       8.102   7.045  18.009  0.00  0.00    +0.000 C 
ATOM      6  C   UNL     1       7.217   5.976  18.668  0.00  0.00    +0.000 C 
ATOM      7  O   UNL     1       7.567   5.398  19.693  0.00  0.00    +0.000 OA
ENDROOT
BRANCH   1  11
ATOM      8  C   UNL     1       3.079   2.740  18.630  0.00  0.00    +0.000 A 
ATOM      9  C   UNL     1       3.885   3.215  19.662  0.00  0.00    +0.000 A 
ATOM     10  C   UNL     1       4.869   4.197  19.424  0.00  0.00    +0.000 A 
ATOM     11  C   UNL     1       5.090   4.739  18.143  0.00  0.00    +0.000 A 
ATOM     12  C   UNL     1       4.277   4.227  17.117  0.00  0.00    +0.000 A 
ATOM     13  C   UNL     1       3.295   3.242  17.350  0.00  0.00    +0.000 A 
BRANCH   8  14
ATOM     14  O   UNL     1       2.167   1.778  18.971  0.00  0.00    +0.000 OA
BRANCH  14  16
ATOM     15  C   UNL     1       0.682   3.346  20.037  0.00  0.00    +0.000 C 
ATOM     16  C   UNL     1       0.800   2.196  19.047  0.00  0.00    +0.000 C 
ENDBRANCH  14  16
ENDBRANCH   8  14
ENDBRANCH   1  11
BRANCH   5  17
ATOM     17  N   UNL     1       8.562   8.048  19.000  0.00  0.00    +0.000 NA
ATOM     18  H   UNL     1       9.501   7.765  19.307  0.00  0.00    +0.000 HD
BRANCH  17  19
ATOM     19  C   UNL     1       8.619   9.448  18.500  0.00  0.00    +0.000 C 
BRANCH  19  20
ATOM     20  C   UNL     1       9.371  10.360  19.490  0.00  0.00    +0.000 C 
BRANCH  20  21
ATOM     21  C   UNL     1      10.221  11.476  18.935  0.00  0.00    +0.000 A 
ATOM     22  C   UNL     1      10.801  11.411  17.677  0.00  0.00    +0.000 A 
ATOM     23  N   UNL     1      11.907  12.209  17.730  0.00  0.00    +0.000 N 
ATOM     24  C   UNL     1      11.673  13.219  18.630  0.00  0.00    +0.000 A 
ATOM     25  C   UNL     1      12.330  14.450  18.784  0.00  0.00    +0.000 A 
ATOM     26  C   UNL     1      11.908  15.269  19.830  0.00  0.00    +0.000 A 
ATOM     27  C   UNL     1      10.957  14.824  20.734  0.00  0.00    +0.000 A 
ATOM     28  C   UNL     1      10.361  13.542  20.608  0.00  0.00    +0.000 A 
ATOM     29  C   UNL     1      10.670  12.736  19.486  0.00  0.00    +0.000 A 
ATOM     30  H   UNL     1      12.729  12.126  17.150  0.00  0.00    +0.000 HD
ENDBRANCH  20  21
ENDBRANCH  19  20
ENDBRANCH  17  19
ENDBRANCH   5  17
TORSDOF 7
ENDMDL
MODEL 9
REMARK VINA RESULT:      -7.7      5.887      8.107
REMARK  Name = 
REMARK  8 active torsions:
REMARK  status: ('A' for Active; 'I' for Inactive)
REMARK    1  A    between atoms: C_1  and  C_2
REMARK    2  A    between atoms: C_2  and  O_3
REMARK    3  A    between atoms: O_3  and  C_4
REMARK    4  A    between atoms: C_7  and  N_8
REMARK    5  A    between atoms: C_12  and  N_13
REMARK    6  A    between atoms: N_13  and  C_14
REMARK    7  A    between atoms: C_14  and  C_15
REMARK    8  A    between atoms: C_15  and  C_16
REMARK                            x       y       z     vdW  Elec       q    Type
REMARK                         _______ _______ _______ _____ _____    ______ ____
ROOT
ATOM      1  N   UNL     1       6.008   5.879  17.944  0.00  0.00    +0.000 N 
ATOM      2  C   UNL     1       5.850   6.861  16.994  0.00  0.00    +0.000 C 
ATOM      3  O   UNL     1       4.930   7.023  16.196  0.00  0.00    +0.000 OA
ATOM      4  C   UNL     1       6.987   7.838  17.056  0.00  0.00    +0.000 C 
ATOM      5  C   UNL     1       8.017   7.176  17.938  0.00  0.00    +0.000 C 
ATOM      6  C   UNL     1       7.229   6.024  18.581  0.00  0.00    +0.000 C 
ATOM      7  O   UNL     1       7.720   5.328  19.465  0.00  0.00    +0.000 OA
ENDROOT
BRANCH   1  11
ATOM      8  C   UNL     1       3.116   2.764  18.739  0.00  0.00    +0.000 A 
ATOM      9  C   UNL     1       3.685   3.493  19.780  0.00  0.00    +0.000 A 
ATOM     10  C   UNL     1       4.626   4.512  19.526  0.00  0.00    +0.000 A 
ATOM     11  C   UNL     1       5.040   4.838  18.219  0.00  0.00    +0.000 A 
ATOM     12  C   UNL     1       4.466   4.072  17.190  0.00  0.00    +0.000 A 
ATOM     13  C   UNL     1       3.527   3.049  17.441  0.00  0.00    +0.000 A 
BRANCH   8  14
ATOM     14  O   UNL     1       2.225   1.790  19.102  0.00  0.00    +0.000 OA
BRANCH  14  16
ATOM     15  C   UNL     1       0.475   3.238  19.901  0.00  0.00    +0.000 C 
ATOM     16  C   UNL     1       0.838   2.107  18.949  0.00  0.00    +0.000 C 
ENDBRANCH  14  16
ENDBRANCH   8  14
ENDBRANCH   1  11
BRANCH   5  17
ATOM     17  N   UNL     1       8.622   8.055  18.968  0.00  0.00    +0.000 NA
ATOM     18  H   UNL     1       9.559   7.686  19.170  0.00  0.00    +0.000 HD
BRANCH  17  19
ATOM     19  C   UNL     1       8.737   9.488  18.587  0.00  0.00    +0.000 C 
BRANCH  19  20
ATOM     20  C   UNL     1       9.386  10.312  19.717  0.00  0.00    +0.000 C 
BRANCH  20  21
ATOM     21  C   UNL     1       9.585  11.793  19.503  0.00  0.00    +0.000 A 
ATOM     22  C   UNL     1       9.021  12.744  20.339  0.00  0.00    +0.000 A 
ATOM     23  N   UNL     1       8.876  13.872  19.583  0.00  0.00    +0.000 N 
ATOM     24  C   UNL     1       9.867  13.891  18.634  0.00  0.00    +0.000 A 
ATOM     25  C   UNL     1      10.351  14.963  17.869  0.00  0.00    +0.000 A 
ATOM     26  C   UNL     1      11.343  14.678  16.931  0.00  0.00    +0.000 A 
ATOM     27  C   UNL     1      11.743  13.371  16.704  0.00  0.00    +0.000 A 
ATOM     28  C   UNL     1      11.184  12.290  17.434  0.00  0.00    +0.000 A 
ATOM     29  C   UNL     1      10.269  12.554  18.482  0.00  0.00    +0.000 A 
ATOM     30  H   UNL     1       8.206  14.610  19.739  0.00  0.00    +0.000 HD
ENDBRANCH  20  21
ENDBRANCH  19  20
ENDBRANCH  17  19
ENDBRANCH   5  17
TORSDOF 7
ENDMDL
