MODEL 1
REMARK VINA RESULT:      -8.7      0.000      0.000
REMARK  Name = 
REMARK  9 active torsions:
REMARK  status: ('A' for Active; 'I' for Inactive)
REMARK    1  A    between atoms: C_1  and  N_2
REMARK    2  A    between atoms: C_6  and  O_7
REMARK    3  A    between atoms: O_7  and  C_8
REMARK    4  A    between atoms: C_8  and  C_9
REMARK    5  A    between atoms: N_11  and  C_12
REMARK    6  A    between atoms: C_12  and  C_13
REMARK    7  A    between atoms: C_13  and  C_14
REMARK    8  A    between atoms: C_14  and  N_15
REMARK    9  A    between atoms: N_18  and  C_19
REMARK                            x       y       z     vdW  Elec       q    Type
REMARK                         _______ _______ _______ _____ _____    ______ ____
ROOT
ATOM      1  C   UNL     1       6.867   6.025  16.808  0.00  0.00    +0.000 C 
ATOM      2  O   UNL     1       7.645   5.137  17.148  0.00  0.00    +0.000 OA
ATOM      3  N   UNL     1       7.003   7.343  17.201  0.00  0.00    +0.000 N 
ATOM      4  H   UNL     1       6.320   8.027  16.902  0.00  0.00    +0.000 HD
ENDROOT
BRANCH   1   5
ATOM      5  C   UNL     1       5.680   5.753  15.884  0.00  0.00    +0.000 C 
BRANCH   5   6
ATOM      6  O   UNL     1       4.457   6.049  16.548  0.00  0.00    +0.000 OA
BRANCH   6  12
ATOM      7  C   UNL     1       2.013   2.336  20.084  0.00  0.00    +0.000 C 
ATOM      8  N   UNL     1       2.657   3.283  19.187  0.00  0.00    +0.000 N 
ATOM      9  C   UNL     1       3.429   2.782  18.153  0.00  0.00    +0.000 A 
ATOM     10  O   UNL     1       3.617   1.586  17.936  0.00  0.00    +0.000 OA
ATOM     11  C   UNL     1       4.067   3.756  17.240  0.00  0.00    +0.000 A 
ATOM     12  C   UNL     1       3.916   5.081  17.375  0.00  0.00    +0.000 A 
ATOM     13  C   UNL     1       3.102   5.591  18.496  0.00  0.00    +0.000 A 
ATOM     14  C   UNL     1       2.936   6.972  18.703  0.00  0.00    +0.000 A 
ATOM     15  C   UNL     1       2.170   7.456  19.760  0.00  0.00    +0.000 A 
ATOM     16  C   UNL     1       1.557   6.565  20.631  0.00  0.00    +0.000 A 
ATOM     17  C   UNL     1       1.713   5.190  20.444  0.00  0.00    +0.000 A 
ATOM     18  C   UNL     1       2.483   4.687  19.382  0.00  0.00    +0.000 A 
ENDBRANCH   6  12
ENDBRANCH   5   6
ENDBRANCH   1   5
BRANCH   3  19
ATOM     19  C   UNL     1       8.081   7.770  18.082  0.00  0.00    +0.000 C 
BRANCH  19  20
ATOM     20  C   UNL     1       8.288   9.287  18.033  0.00  0.00    +0.000 C 
BRANCH  20  21
ATOM     21  C   UNL     1       9.335   9.794  19.046  0.00  0.00    +0.000 C 
BRANCH  21  22
ATOM     22  N   UNL     1       9.117  11.175  19.477  0.00  0.00    +0.000 NA
ATOM     23  C   UNL     1      10.108  11.697  20.447  0.00  0.00    +0.000 C 
ATOM     24  C   UNL     1      11.401  12.330  19.876  0.00  0.00    +0.000 C 
ATOM     25  N   UNL     1      11.157  13.235  18.738  0.00  0.00    +0.000 N 
ATOM     26  C   UNL     1      10.256  12.661  17.721  0.00  0.00    +0.000 C 
ATOM     27  C   UNL     1       8.953  12.126  18.359  0.00  0.00    +0.000 C 
BRANCH  25  28
ATOM     28  C   UNL     1      11.121  14.622  18.905  0.00  0.00    +0.000 A 
ATOM     29  C   UNL     1      10.507  15.147  20.060  0.00  0.00    +0.000 A 
ATOM     30  C   UNL     1      10.411  16.524  20.296  0.00  0.00    +0.000 A 
ATOM     31  C   UNL     1      10.933  17.427  19.376  0.00  0.00    +0.000 A 
ATOM     32  C   UNL     1      11.534  16.945  18.221  0.00  0.00    +0.000 A 
ATOM     33  C   UNL     1      11.615  15.567  17.990  0.00  0.00    +0.000 A 
ATOM     34  F   UNL     1      12.221  15.176  16.857  0.00  0.00    +0.000 F 
ENDBRANCH  25  28
ENDBRANCH  21  22
ENDBRANCH  20  21
ENDBRANCH  19  20
ENDBRANCH   3  19
TORSDOF 8
ENDMDL
MODEL 2
REMARK VINA RESULT:      -8.2      1.241      1.565
REMARK  Name = 
REMARK  9 active torsions:
REMARK  status: ('A' for Active; 'I' for Inactive)
REMARK    1  A    between atoms: C_1  and  N_2
REMARK    2  A    between atoms: C_6  and  O_7
REMARK    3  A    between atoms: O_7  and  C_8
REMARK    4  A    between atoms: C_8  and  C_9
REMARK    5  A    between atoms: N_11  and  C_12
REMARK    6  A    between atoms: C_12  and  C_13
REMARK    7  A    between atoms: C_13  and  C_14
REMARK    8  A    between atoms: C_14  and  N_15
REMARK    9  A    between atoms: N_18  and  C_19
REMARK                            x       y       z     vdW  Elec       q    Type
REMARK                         _______ _______ _______ _____ _____    ______ ____
ROOT
ATOM      1  C   UNL     1       7.009   5.099  17.318  0.00  0.00    +0.000 C 
ATOM      2  O   UNL     1       7.202   4.446  18.341  0.00  0.00    +0.000 OA
ATOM      3  N   UNL     1       7.342   6.436  17.199  0.00  0.00    +0.000 N 
ATOM      4  H   UNL     1       7.143   6.925  16.336  0.00  0.00    +0.000 HD
ENDROOT
BRANCH   1   5
ATOM      5  C   UNL     1       6.401   4.477  16.061  0.00  0.00    +0.000 C 
BRANCH   5   6
ATOM      6  O   UNL     1       5.011   4.772  15.985  0.00  0.00    +0.000 OA
BRANCH   6  12
ATOM      7  C   UNL     1       1.591   3.684  20.388  0.00  0.00    +0.000 C 
ATOM      8  N   UNL     1       2.483   3.959  19.271  0.00  0.00    +0.000 N 
ATOM      9  C   UNL     1       3.108   2.888  18.656  0.00  0.00    +0.000 A 
ATOM     10  O   UNL     1       2.968   1.711  18.987  0.00  0.00    +0.000 OA
ATOM     11  C   UNL     1       4.001   3.181  17.513  0.00  0.00    +0.000 A 
ATOM     12  C   UNL     1       4.214   4.423  17.060  0.00  0.00    +0.000 A 
ATOM     13  C   UNL     1       3.549   5.550  17.745  0.00  0.00    +0.000 A 
ATOM     14  C   UNL     1       3.761   6.878  17.331  0.00  0.00    +0.000 A 
ATOM     15  C   UNL     1       3.135   7.942  17.975  0.00  0.00    +0.000 A 
ATOM     16  C   UNL     1       2.289   7.698  19.048  0.00  0.00    +0.000 A 
ATOM     17  C   UNL     1       2.070   6.387  19.477  0.00  0.00    +0.000 A 
ATOM     18  C   UNL     1       2.693   5.302  18.836  0.00  0.00    +0.000 A 
ENDBRANCH   6  12
ENDBRANCH   5   6
ENDBRANCH   1   5
BRANCH   3  19
ATOM     19  C   UNL     1       7.930   7.178  18.304  0.00  0.00    +0.000 C 
BRANCH  19  20
ATOM     20  C   UNL     1       8.139   8.654  17.950  0.00  0.00    +0.000 C 
BRANCH  20  21
ATOM     21  C   UNL     1       9.151   9.366  18.871  0.00  0.00    +0.000 C 
BRANCH  21  22
ATOM     22  N   UNL     1       8.844  10.777  19.105  0.00  0.00    +0.000 NA
ATOM     23  C   UNL     1       9.440  11.358  20.331  0.00  0.00    +0.000 C 
ATOM     24  C   UNL     1      10.874  11.933  20.224  0.00  0.00    +0.000 C 
ATOM     25  N   UNL     1      11.087  12.754  19.018  0.00  0.00    +0.000 N 
ATOM     26  C   UNL     1      10.591  12.117  17.785  0.00  0.00    +0.000 C 
ATOM     27  C   UNL     1       9.127  11.644  17.944  0.00  0.00    +0.000 C 
BRANCH  25  28
ATOM     28  C   UNL     1      11.045  14.150  19.071  0.00  0.00    +0.000 A 
ATOM     29  C   UNL     1      11.262  14.878  17.884  0.00  0.00    +0.000 A 
ATOM     30  C   UNL     1      11.256  16.278  17.853  0.00  0.00    +0.000 A 
ATOM     31  C   UNL     1      11.028  17.000  19.019  0.00  0.00    +0.000 A 
ATOM     32  C   UNL     1      10.822  16.316  20.210  0.00  0.00    +0.000 A 
ATOM     33  C   UNL     1      10.841  14.917  20.232  0.00  0.00    +0.000 A 
ATOM     34  F   UNL     1      10.622  14.325  21.417  0.00  0.00    +0.000 F 
ENDBRANCH  25  28
ENDBRANCH  21  22
ENDBRANCH  20  21
ENDBRANCH  19  20
ENDBRANCH   3  19
TORSDOF 8
ENDMDL
MODEL 3
REMARK VINA RESULT:      -8.0      1.378      1.751
REMARK  Name = 
REMARK  9 active torsions:
REMARK  status: ('A' for Active; 'I' for Inactive)
REMARK    1  A    between atoms: C_1  and  N_2
REMARK    2  A    between atoms: C_6  and  O_7
REMARK    3  A    between atoms: O_7  and  C_8
REMARK    4  A    between atoms: C_8  and  C_9
REMARK    5  A    between atoms: N_11  and  C_12
REMARK    6  A    between atoms: C_12  and  C_13
REMARK    7  A    between atoms: C_13  and  C_14
REMARK    8  A    between atoms: C_14  and  N_15
REMARK    9  A    between atoms: N_18  and  C_19
REMARK                            x       y       z     vdW  Elec       q    Type
REMARK                         _______ _______ _______ _____ _____    ______ ____
ROOT
ATOM      1  C   UNL     1       7.523   6.353  17.781  0.00  0.00    +0.000 C 
ATOM      2  O   UNL     1       7.753   5.903  18.901  0.00  0.00    +0.000 OA
ATOM      3  N   UNL     1       7.752   7.672  17.433  0.00  0.00    +0.000 N 
ATOM      4  H   UNL     1       7.526   7.987  16.498  0.00  0.00    +0.000 HD
ENDROOT
BRANCH   1   5
ATOM      5  C   UNL     1       6.985   5.478  16.649  0.00  0.00    +0.000 C 
BRANCH   5   6
ATOM      6  O   UNL     1       5.567   5.579  16.577  0.00  0.00    +0.000 OA
BRANCH   6  12
ATOM      7  C   UNL     1       2.313   4.302  21.054  0.00  0.00    +0.000 C 
ATOM      8  N   UNL     1       3.162   4.632  19.920  0.00  0.00    +0.000 N 
ATOM      9  C   UNL     1       4.098   3.697  19.510  0.00  0.00    +0.000 A 
ATOM     10  O   UNL     1       4.270   2.600  20.041  0.00  0.00    +0.000 OA
ATOM     11  C   UNL     1       4.945   4.039  18.347  0.00  0.00    +0.000 A 
ATOM     12  C   UNL     1       4.832   5.199  17.686  0.00  0.00    +0.000 A 
ATOM     13  C   UNL     1       3.839   6.187  18.152  0.00  0.00    +0.000 A 
ATOM     14  C   UNL     1       3.699   7.433  17.514  0.00  0.00    +0.000 A 
ATOM     15  C   UNL     1       2.763   8.366  17.953  0.00  0.00    +0.000 A 
ATOM     16  C   UNL     1       1.952   8.071  19.040  0.00  0.00    +0.000 A 
ATOM     17  C   UNL     1       2.079   6.841  19.689  0.00  0.00    +0.000 A 
ATOM     18  C   UNL     1       3.018   5.889  19.258  0.00  0.00    +0.000 A 
ENDBRANCH   6  12
ENDBRANCH   5   6
ENDBRANCH   1   5
BRANCH   3  19
ATOM     19  C   UNL     1       8.263   8.638  18.394  0.00  0.00    +0.000 C 
BRANCH  19  20
ATOM     20  C   UNL     1       8.534   9.998  17.744  0.00  0.00    +0.000 C 
BRANCH  20  21
ATOM     21  C   UNL     1       9.765  10.721  18.327  0.00  0.00    +0.000 C 
BRANCH  21  22
ATOM     22  N   UNL     1      10.079  11.984  17.660  0.00  0.00    +0.000 NA
ATOM     23  C   UNL     1       9.011  13.010  17.718  0.00  0.00    +0.000 C 
ATOM     24  C   UNL     1       8.985  13.944  18.954  0.00  0.00    +0.000 C 
ATOM     25  N   UNL     1      10.315  14.454  19.331  0.00  0.00    +0.000 N 
ATOM     26  C   UNL     1      11.349  13.405  19.380  0.00  0.00    +0.000 C 
ATOM     27  C   UNL     1      11.368  12.570  18.079  0.00  0.00    +0.000 C 
BRANCH  25  28
ATOM     28  C   UNL     1      10.732  15.738  18.966  0.00  0.00    +0.000 A 
ATOM     29  C   UNL     1      10.861  16.717  19.972  0.00  0.00    +0.000 A 
ATOM     30  C   UNL     1      11.253  18.032  19.690  0.00  0.00    +0.000 A 
ATOM     31  C   UNL     1      11.536  18.409  18.382  0.00  0.00    +0.000 A 
ATOM     32  C   UNL     1      11.408  17.473  17.365  0.00  0.00    +0.000 A 
ATOM     33  C   UNL     1      11.004  16.165  17.655  0.00  0.00    +0.000 A 
ATOM     34  F   UNL     1      10.915  15.313  16.621  0.00  0.00    +0.000 F 
ENDBRANCH  25  28
ENDBRANCH  21  22
ENDBRANCH  20  21
ENDBRANCH  19  20
ENDBRANCH   3  19
TORSDOF 8
ENDMDL
MODEL 4
REMARK VINA RESULT:      -8.0      6.986     10.093
REMARK  Name = 
REMARK  9 active torsions:
REMARK  status: ('A' for Active; 'I' for Inactive)
REMARK    1  A    between atoms: C_1  and  N_2
REMARK    2  A    between atoms: C_6  and  O_7
REMARK    3  A    between atoms: O_7  and  C_8
REMARK    4  A    between atoms: C_8  and  C_9
REMARK    5  A    between atoms: N_11  and  C_12
REMARK    6  A    between atoms: C_12  and  C_13
REMARK    7  A    between atoms: C_13  and  C_14
REMARK    8  A    between atoms: C_14  and  N_15
REMARK    9  A    between atoms: N_18  and  C_19
REMARK                            x       y       z     vdW  Elec       q    Type
REMARK                         _______ _______ _______ _____ _____    ______ ____
ROOT
ATOM      1  C   UNL     1       1.608   8.303  20.100  0.00  0.00    +0.000 C 
ATOM      2  O   UNL     1       2.299   8.218  19.087  0.00  0.00    +0.000 OA
ATOM      3  N   UNL     1       1.517   7.294  21.041  0.00  0.00    +0.000 N 
ATOM      4  H   UNL     1       0.917   7.416  21.847  0.00  0.00    +0.000 HD
ENDROOT
BRANCH   1   5
ATOM      5  C   UNL     1       0.801   9.558  20.428  0.00  0.00    +0.000 C 
BRANCH   5   6
ATOM      6  O   UNL     1       0.104  10.015  19.274  0.00  0.00    +0.000 OA
BRANCH   6  12
ATOM      7  C   UNL     1      -4.705  12.999  19.763  0.00  0.00    +0.000 C 
ATOM      8  N   UNL     1      -3.463  12.252  19.635  0.00  0.00    +0.000 N 
ATOM      9  C   UNL     1      -2.553  12.312  20.677  0.00  0.00    +0.000 A 
ATOM     10  O   UNL     1      -2.716  12.960  21.711  0.00  0.00    +0.000 OA
ATOM     11  C   UNL     1      -1.301  11.537  20.539  0.00  0.00    +0.000 A 
ATOM     12  C   UNL     1      -1.029  10.787  19.463  0.00  0.00    +0.000 A 
ATOM     13  C   UNL     1      -2.007  10.753  18.357  0.00  0.00    +0.000 A 
ATOM     14  C   UNL     1      -1.758  10.007  17.191  0.00  0.00    +0.000 A 
ATOM     15  C   UNL     1      -2.678   9.974  16.147  0.00  0.00    +0.000 A 
ATOM     16  C   UNL     1      -3.863  10.689  16.249  0.00  0.00    +0.000 A 
ATOM     17  C   UNL     1      -4.126  11.439  17.397  0.00  0.00    +0.000 A 
ATOM     18  C   UNL     1      -3.208  11.481  18.460  0.00  0.00    +0.000 A 
ENDBRANCH   6  12
ENDBRANCH   5   6
ENDBRANCH   1   5
BRANCH   3  19
ATOM     19  C   UNL     1       2.223   6.032  20.879  0.00  0.00    +0.000 C 
BRANCH  19  20
ATOM     20  C   UNL     1       1.316   4.943  20.299  0.00  0.00    +0.000 C 
BRANCH  20  21
ATOM     21  C   UNL     1       2.019   3.579  20.144  0.00  0.00    +0.000 C 
BRANCH  21  22
ATOM     22  N   UNL     1       2.521   3.324  18.794  0.00  0.00    +0.000 NA
ATOM     23  C   UNL     1       2.345   4.438  17.833  0.00  0.00    +0.000 C 
ATOM     24  C   UNL     1       3.452   5.520  17.784  0.00  0.00    +0.000 C 
ATOM     25  N   UNL     1       4.816   4.963  17.797  0.00  0.00    +0.000 N 
ATOM     26  C   UNL     1       5.015   3.933  18.832  0.00  0.00    +0.000 C 
ATOM     27  C   UNL     1       3.918   2.845  18.763  0.00  0.00    +0.000 C 
BRANCH  25  28
ATOM     28  C   UNL     1       5.559   4.830  16.620  0.00  0.00    +0.000 A 
ATOM     29  C   UNL     1       4.906   4.376  15.456  0.00  0.00    +0.000 A 
ATOM     30  C   UNL     1       5.579   4.196  14.242  0.00  0.00    +0.000 A 
ATOM     31  C   UNL     1       6.940   4.470  14.153  0.00  0.00    +0.000 A 
ATOM     32  C   UNL     1       7.618   4.908  15.282  0.00  0.00    +0.000 A 
ATOM     33  C   UNL     1       6.938   5.074  16.494  0.00  0.00    +0.000 A 
ATOM     34  F   UNL     1       7.657   5.512  17.539  0.00  0.00    +0.000 F 
ENDBRANCH  25  28
ENDBRANCH  21  22
ENDBRANCH  20  21
ENDBRANCH  19  20
ENDBRANCH   3  19
TORSDOF 8
ENDMDL
MODEL 5
REMARK VINA RESULT:      -7.9      4.200     11.830
REMARK  Name = 
REMARK  9 active torsions:
REMARK  status: ('A' for Active; 'I' for Inactive)
REMARK    1  A    between atoms: C_1  and  N_2
REMARK    2  A    between atoms: C_6  and  O_7
REMARK    3  A    between atoms: O_7  and  C_8
REMARK    4  A    between atoms: C_8  and  C_9
REMARK    5  A    between atoms: N_11  and  C_12
REMARK    6  A    between atoms: C_12  and  C_13
REMARK    7  A    between atoms: C_13  and  C_14
REMARK    8  A    between atoms: C_14  and  N_15
REMARK    9  A    between atoms: N_18  and  C_19
REMARK                            x       y       z     vdW  Elec       q    Type
REMARK                         _______ _______ _______ _____ _____    ______ ____
ROOT
ATOM      1  C   UNL     1       9.571  10.501  19.192  0.00  0.00    +0.000 C 
ATOM      2  O   UNL     1       9.235  10.383  20.368  0.00  0.00    +0.000 OA
ATOM      3  N   UNL     1       9.144   9.647  18.192  0.00  0.00    +0.000 N 
ATOM      4  H   UNL     1       9.470   9.786  17.244  0.00  0.00    +0.000 HD
ENDROOT
BRANCH   1   5
ATOM      5  C   UNL     1      10.479  11.636  18.718  0.00  0.00    +0.000 C 
BRANCH   5   6
ATOM      6  O   UNL     1       9.882  12.325  17.626  0.00  0.00    +0.000 OA
BRANCH   6  12
ATOM      7  C   UNL     1       7.558  17.431  18.523  0.00  0.00    +0.000 C 
ATOM      8  N   UNL     1       8.154  16.120  18.313  0.00  0.00    +0.000 N 
ATOM      9  C   UNL     1       7.359  15.002  18.507  0.00  0.00    +0.000 A 
ATOM     10  O   UNL     1       6.178  15.035  18.850  0.00  0.00    +0.000 OA
ATOM     11  C   UNL     1       7.974  13.677  18.276  0.00  0.00    +0.000 A 
ATOM     12  C   UNL     1       9.246  13.527  17.886  0.00  0.00    +0.000 A 
ATOM     13  C   UNL     1      10.079  14.733  17.703  0.00  0.00    +0.000 A 
ATOM     14  C   UNL     1      11.430  14.633  17.325  0.00  0.00    +0.000 A 
ATOM     15  C   UNL     1      12.216  15.768  17.153  0.00  0.00    +0.000 A 
ATOM     16  C   UNL     1      11.666  17.026  17.359  0.00  0.00    +0.000 A 
ATOM     17  C   UNL     1      10.328  17.146  17.739  0.00  0.00    +0.000 A 
ATOM     18  C   UNL     1       9.521  16.009  17.916  0.00  0.00    +0.000 A 
ENDBRANCH   6  12
ENDBRANCH   5   6
ENDBRANCH   1   5
BRANCH   3  19
ATOM     19  C   UNL     1       8.276   8.514  18.475  0.00  0.00    +0.000 C 
BRANCH  19  20
ATOM     20  C   UNL     1       7.712   7.895  17.191  0.00  0.00    +0.000 C 
BRANCH  20  21
ATOM     21  C   UNL     1       7.128   6.483  17.398  0.00  0.00    +0.000 C 
BRANCH  21  22
ATOM     22  N   UNL     1       5.761   6.481  17.921  0.00  0.00    +0.000 NA
ATOM     23  C   UNL     1       4.715   6.082  16.950  0.00  0.00    +0.000 C 
ATOM     24  C   UNL     1       4.410   4.570  16.810  0.00  0.00    +0.000 C 
ATOM     25  N   UNL     1       4.312   3.870  18.103  0.00  0.00    +0.000 N 
ATOM     26  C   UNL     1       5.420   4.187  19.023  0.00  0.00    +0.000 C 
ATOM     27  C   UNL     1       5.608   5.715  19.174  0.00  0.00    +0.000 C 
BRANCH  25  28
ATOM     28  C   UNL     1       3.073   3.579  18.682  0.00  0.00    +0.000 A 
ATOM     29  C   UNL     1       2.689   4.279  19.843  0.00  0.00    +0.000 A 
ATOM     30  C   UNL     1       1.475   4.035  20.497  0.00  0.00    +0.000 A 
ATOM     31  C   UNL     1       0.598   3.077  20.001  0.00  0.00    +0.000 A 
ATOM     32  C   UNL     1       0.949   2.359  18.866  0.00  0.00    +0.000 A 
ATOM     33  C   UNL     1       2.170   2.603  18.226  0.00  0.00    +0.000 A 
ATOM     34  F   UNL     1       2.435   1.880  17.127  0.00  0.00    +0.000 F 
ENDBRANCH  25  28
ENDBRANCH  21  22
ENDBRANCH  20  21
ENDBRANCH  19  20
ENDBRANCH   3  19
TORSDOF 8
ENDMDL
MODEL 6
REMARK VINA RESULT:      -7.9      1.123      1.441
REMARK  Name = 
REMARK  9 active torsions:
REMARK  status: ('A' for Active; 'I' for Inactive)
REMARK    1  A    between atoms: C_1  and  N_2
REMARK    2  A    between atoms: C_6  and  O_7
REMARK    3  A    between atoms: O_7  and  C_8
REMARK    4  A    between atoms: C_8  and  C_9
REMARK    5  A    between atoms: N_11  and  C_12
REMARK    6  A    between atoms: C_12  and  C_13
REMARK    7  A    between atoms: C_13  and  C_14
REMARK    8  A    between atoms: C_14  and  N_15
REMARK    9  A    between atoms: N_18  and  C_19
REMARK                            x       y       z     vdW  Elec       q    Type
REMARK                         _______ _______ _______ _____ _____    ______ ____
ROOT
ATOM      1  C   UNL     1       6.785   6.717  17.462  0.00  0.00    +0.000 C 
ATOM      2  O   UNL     1       7.024   5.882  18.332  0.00  0.00    +0.000 OA
ATOM      3  N   UNL     1       7.464   7.917  17.356  0.00  0.00    +0.000 N 
ATOM      4  H   UNL     1       7.209   8.571  16.627  0.00  0.00    +0.000 HD
ENDROOT
BRANCH   1   5
ATOM      5  C   UNL     1       5.722   6.486  16.388  0.00  0.00    +0.000 C 
BRANCH   5   6
ATOM      6  O   UNL     1       4.419   6.612  16.946  0.00  0.00    +0.000 OA
BRANCH   6  12
ATOM      7  C   UNL     1       1.945   2.315  19.718  0.00  0.00    +0.000 C 
ATOM      8  N   UNL     1       2.596   3.411  19.017  0.00  0.00    +0.000 N 
ATOM      9  C   UNL     1       3.439   3.103  17.962  0.00  0.00    +0.000 A 
ATOM     10  O   UNL     1       3.685   1.962  17.574  0.00  0.00    +0.000 OA
ATOM     11  C   UNL     1       4.084   4.228  17.250  0.00  0.00    +0.000 A 
ATOM     12  C   UNL     1       3.875   5.509  17.580  0.00  0.00    +0.000 A 
ATOM     13  C   UNL     1       2.986   5.811  18.720  0.00  0.00    +0.000 A 
ATOM     14  C   UNL     1       2.756   7.137  19.130  0.00  0.00    +0.000 A 
ATOM     15  C   UNL     1       1.918   7.424  20.204  0.00  0.00    +0.000 A 
ATOM     16  C   UNL     1       1.297   6.390  20.889  0.00  0.00    +0.000 A 
ATOM     17  C   UNL     1       1.516   5.067  20.500  0.00  0.00    +0.000 A 
ATOM     18  C   UNL     1       2.358   4.761  19.418  0.00  0.00    +0.000 A 
ENDBRANCH   6  12
ENDBRANCH   5   6
ENDBRANCH   1   5
BRANCH   3  19
ATOM     19  C   UNL     1       8.506   8.291  18.300  0.00  0.00    +0.000 C 
BRANCH  19  20
ATOM     20  C   UNL     1       8.900   9.764  18.157  0.00  0.00    +0.000 C 
BRANCH  20  21
ATOM     21  C   UNL     1       8.940  10.520  19.502  0.00  0.00    +0.000 C 
BRANCH  21  22
ATOM     22  N   UNL     1       9.985  11.541  19.574  0.00  0.00    +0.000 NA
ATOM     23  C   UNL     1      10.675  11.830  18.295  0.00  0.00    +0.000 C 
ATOM     24  C   UNL     1      10.035  12.891  17.364  0.00  0.00    +0.000 C 
ATOM     25  N   UNL     1       9.582  14.099  18.077  0.00  0.00    +0.000 N 
ATOM     26  C   UNL     1       8.800  13.800  19.290  0.00  0.00    +0.000 C 
ATOM     27  C   UNL     1       9.540  12.799  20.207  0.00  0.00    +0.000 C 
BRANCH  25  28
ATOM     28  C   UNL     1      10.349  15.267  18.090  0.00  0.00    +0.000 A 
ATOM     29  C   UNL     1       9.854  16.408  17.427  0.00  0.00    +0.000 A 
ATOM     30  C   UNL     1      10.567  17.612  17.375  0.00  0.00    +0.000 A 
ATOM     31  C   UNL     1      11.809  17.713  17.993  0.00  0.00    +0.000 A 
ATOM     32  C   UNL     1      12.333  16.606  18.645  0.00  0.00    +0.000 A 
ATOM     33  C   UNL     1      11.617  15.404  18.682  0.00  0.00    +0.000 A 
ATOM     34  F   UNL     1      12.183  14.380  19.342  0.00  0.00    +0.000 F 
ENDBRANCH  25  28
ENDBRANCH  21  22
ENDBRANCH  20  21
ENDBRANCH  19  20
ENDBRANCH   3  19
TORSDOF 8
ENDMDL
MODEL 7
REMARK VINA RESULT:      -7.9      5.797      7.976
REMARK  Name = 
REMARK  9 active torsions:
REMARK  status: ('A' for Active; 'I' for Inactive)
REMARK    1  A    between atoms: C_1  and  N_2
REMARK    2  A    between atoms: C_6  and  O_7
REMARK    3  A    between atoms: O_7  and  C_8
REMARK    4  A    between atoms: C_8  and  C_9
REMARK    5  A    between atoms: N_11  and  C_12
REMARK    6  A    between atoms: C_12  and  C_13
REMARK    7  A    between atoms: C_13  and  C_14
REMARK    8  A    between atoms: C_14  and  N_15
REMARK    9  A    between atoms: N_18  and  C_19
REMARK                            x       y       z     vdW  Elec       q    Type
REMARK                         _______ _______ _______ _____ _____    ______ ____
ROOT
ATOM      1  C   UNL     1       1.160   9.103  21.916  0.00  0.00    +0.000 C 
ATOM      2  O   UNL     1       1.907   9.412  22.841  0.00  0.00    +0.000 OA
ATOM      3  N   UNL     1      -0.211   9.277  21.959  0.00  0.00    +0.000 N 
ATOM      4  H   UNL     1      -0.776   8.987  21.171  0.00  0.00    +0.000 HD
ENDROOT
BRANCH   1   5
ATOM      5  C   UNL     1       1.689   8.516  20.608  0.00  0.00    +0.000 C 
BRANCH   5   6
ATOM      6  O   UNL     1       1.598   7.096  20.629  0.00  0.00    +0.000 OA
BRANCH   6  12
ATOM      7  C   UNL     1       4.257   3.883  16.772  0.00  0.00    +0.000 C 
ATOM      8  N   UNL     1       3.593   4.709  17.769  0.00  0.00    +0.000 N 
ATOM      9  C   UNL     1       3.786   6.080  17.717  0.00  0.00    +0.000 A 
ATOM     10  O   UNL     1       4.486   6.656  16.885  0.00  0.00    +0.000 OA
ATOM     11  C   UNL     1       3.094   6.908  18.728  0.00  0.00    +0.000 A 
ATOM     12  C   UNL     1       2.297   6.386  19.669  0.00  0.00    +0.000 A 
ATOM     13  C   UNL     1       2.121   4.920  19.716  0.00  0.00    +0.000 A 
ATOM     14  C   UNL     1       1.320   4.316  20.702  0.00  0.00    +0.000 A 
ATOM     15  C   UNL     1       1.153   2.935  20.748  0.00  0.00    +0.000 A 
ATOM     16  C   UNL     1       1.788   2.132  19.810  0.00  0.00    +0.000 A 
ATOM     17  C   UNL     1       2.590   2.713  18.826  0.00  0.00    +0.000 A 
ATOM     18  C   UNL     1       2.767   4.105  18.766  0.00  0.00    +0.000 A 
ENDBRANCH   6  12
ENDBRANCH   5   6
ENDBRANCH   1   5
BRANCH   3  19
ATOM     19  C   UNL     1      -0.875   9.824  23.132  0.00  0.00    +0.000 C 
BRANCH  19  20
ATOM     20  C   UNL     1      -1.000  11.349  23.056  0.00  0.00    +0.000 C 
BRANCH  20  21
ATOM     21  C   UNL     1      -1.548  11.851  21.704  0.00  0.00    +0.000 C 
BRANCH  21  22
ATOM     22  N   UNL     1      -0.522  12.011  20.674  0.00  0.00    +0.000 NA
ATOM     23  C   UNL     1      -0.975  12.671  19.427  0.00  0.00    +0.000 C 
ATOM     24  C   UNL     1      -0.925  14.218  19.380  0.00  0.00    +0.000 C 
ATOM     25  N   UNL     1       0.324  14.780  19.924  0.00  0.00    +0.000 N 
ATOM     26  C   UNL     1       0.709  14.196  21.222  0.00  0.00    +0.000 C 
ATOM     27  C   UNL     1       0.715  12.651  21.165  0.00  0.00    +0.000 C 
BRANCH  25  28
ATOM     28  C   UNL     1       1.361  15.197  19.085  0.00  0.00    +0.000 A 
ATOM     29  C   UNL     1       2.339  14.257  18.701  0.00  0.00    +0.000 A 
ATOM     30  C   UNL     1       3.421  14.596  17.880  0.00  0.00    +0.000 A 
ATOM     31  C   UNL     1       3.558  15.897  17.409  0.00  0.00    +0.000 A 
ATOM     32  C   UNL     1       2.619  16.852  17.776  0.00  0.00    +0.000 A 
ATOM     33  C   UNL     1       1.548  16.506  18.607  0.00  0.00    +0.000 A 
ATOM     34  F   UNL     1       0.674  17.480  18.909  0.00  0.00    +0.000 F 
ENDBRANCH  25  28
ENDBRANCH  21  22
ENDBRANCH  20  21
ENDBRANCH  19  20
ENDBRANCH   3  19
TORSDOF 8
ENDMDL
MODEL 8
REMARK VINA RESULT:      -7.8      3.956     11.249
REMARK  Name = 
REMARK  9 active torsions:
REMARK  status: ('A' for Active; 'I' for Inactive)
REMARK    1  A    between atoms: C_1  and  N_2
REMARK    2  A    between atoms: C_6  and  O_7
REMARK    3  A    between atoms: O_7  and  C_8
REMARK    4  A    between atoms: C_8  and  C_9
REMARK    5  A    between atoms: N_11  and  C_12
REMARK    6  A    between atoms: C_12  and  C_13
REMARK    7  A    between atoms: C_13  and  C_14
REMARK    8  A    between atoms: C_14  and  N_15
REMARK    9  A    between atoms: N_18  and  C_19
REMARK                            x       y       z     vdW  Elec       q    Type
REMARK                         _______ _______ _______ _____ _____    ______ ____
ROOT
ATOM      1  C   UNL     1       8.798  11.412  17.854  0.00  0.00    +0.000 C 
ATOM      2  O   UNL     1       7.867  11.932  17.244  0.00  0.00    +0.000 OA
ATOM      3  N   UNL     1       8.838  10.067  18.174  0.00  0.00    +0.000 N 
ATOM      4  H   UNL     1       9.625   9.701  18.694  0.00  0.00    +0.000 HD
ENDROOT
BRANCH   1   5
ATOM      5  C   UNL     1      10.024  12.211  18.296  0.00  0.00    +0.000 C 
BRANCH   5   6
ATOM      6  O   UNL     1      10.504  11.730  19.546  0.00  0.00    +0.000 OA
BRANCH   6  12
ATOM      7  C   UNL     1       8.054  13.945  24.169  0.00  0.00    +0.000 C 
ATOM      8  N   UNL     1       8.694  13.367  22.996  0.00  0.00    +0.000 N 
ATOM      9  C   UNL     1       8.408  12.049  22.679  0.00  0.00    +0.000 A 
ATOM     10  O   UNL     1       7.651  11.323  23.322  0.00  0.00    +0.000 OA
ATOM     11  C   UNL     1       9.054  11.479  21.477  0.00  0.00    +0.000 A 
ATOM     12  C   UNL     1       9.884  12.185  20.697  0.00  0.00    +0.000 A 
ATOM     13  C   UNL     1      10.187  13.582  21.067  0.00  0.00    +0.000 A 
ATOM     14  C   UNL     1      11.075  14.359  20.302  0.00  0.00    +0.000 A 
ATOM     15  C   UNL     1      11.362  15.677  20.648  0.00  0.00    +0.000 A 
ATOM     16  C   UNL     1      10.768  16.240  21.769  0.00  0.00    +0.000 A 
ATOM     17  C   UNL     1       9.887  15.483  22.544  0.00  0.00    +0.000 A 
ATOM     18  C   UNL     1       9.586  14.153  22.206  0.00  0.00    +0.000 A 
ENDBRANCH   6  12
ENDBRANCH   5   6
ENDBRANCH   1   5
BRANCH   3  19
ATOM     19  C   UNL     1       7.749   9.167  17.826  0.00  0.00    +0.000 C 
BRANCH  19  20
ATOM     20  C   UNL     1       8.123   7.701  18.068  0.00  0.00    +0.000 C 
BRANCH  20  21
ATOM     21  C   UNL     1       7.383   6.718  17.138  0.00  0.00    +0.000 C 
BRANCH  21  22
ATOM     22  N   UNL     1       5.956   6.591  17.429  0.00  0.00    +0.000 NA
ATOM     23  C   UNL     1       5.137   6.011  16.338  0.00  0.00    +0.000 C 
ATOM     24  C   UNL     1       5.020   4.468  16.278  0.00  0.00    +0.000 C 
ATOM     25  N   UNL     1       4.775   3.848  17.593  0.00  0.00    +0.000 N 
ATOM     26  C   UNL     1       5.671   4.351  18.650  0.00  0.00    +0.000 C 
ATOM     27  C   UNL     1       5.671   5.897  18.701  0.00  0.00    +0.000 C 
BRANCH  25  28
ATOM     28  C   UNL     1       3.493   3.453  17.984  0.00  0.00    +0.000 A 
ATOM     29  C   UNL     1       3.240   2.082  18.186  0.00  0.00    +0.000 A 
ATOM     30  C   UNL     1       1.979   1.599  18.559  0.00  0.00    +0.000 A 
ATOM     31  C   UNL     1       0.923   2.484  18.747  0.00  0.00    +0.000 A 
ATOM     32  C   UNL     1       1.132   3.842  18.545  0.00  0.00    +0.000 A 
ATOM     33  C   UNL     1       2.393   4.312  18.161  0.00  0.00    +0.000 A 
ATOM     34  F   UNL     1       2.523   5.638  17.997  0.00  0.00    +0.000 F 
ENDBRANCH  25  28
ENDBRANCH  21  22
ENDBRANCH  20  21
ENDBRANCH  19  20
ENDBRANCH   3  19
TORSDOF 8
ENDMDL
MODEL 9
REMARK VINA RESULT:      -7.8      3.887     11.855
REMARK  Name = 
REMARK  9 active torsions:
REMARK  status: ('A' for Active; 'I' for Inactive)
REMARK    1  A    between atoms: C_1  and  N_2
REMARK    2  A    between atoms: C_6  and  O_7
REMARK    3  A    between atoms: O_7  and  C_8
REMARK    4  A    between atoms: C_8  and  C_9
REMARK    5  A    between atoms: N_11  and  C_12
REMARK    6  A    between atoms: C_12  and  C_13
REMARK    7  A    between atoms: C_13  and  C_14
REMARK    8  A    between atoms: C_14  and  N_15
REMARK    9  A    between atoms: N_18  and  C_19
REMARK                            x       y       z     vdW  Elec       q    Type
REMARK                         _______ _______ _______ _____ _____    ______ ____
ROOT
ATOM      1  C   UNL     1       8.986  10.473  18.545  0.00  0.00    +0.000 C 
ATOM      2  O   UNL     1       8.417  11.247  17.778  0.00  0.00    +0.000 OA
ATOM      3  N   UNL     1       8.707   9.120  18.601  0.00  0.00    +0.000 N 
ATOM      4  H   UNL     1       9.198   8.537  19.266  0.00  0.00    +0.000 HD
ENDROOT
BRANCH   1   5
ATOM      5  C   UNL     1      10.088  10.938  19.496  0.00  0.00    +0.000 C 
BRANCH   5   6
ATOM      6  O   UNL     1      10.711  12.115  18.995  0.00  0.00    +0.000 OA
BRANCH   6  12
ATOM      7  C   UNL     1      10.205  17.099  21.673  0.00  0.00    +0.000 C 
ATOM      8  N   UNL     1      10.350  15.818  20.998  0.00  0.00    +0.000 N 
ATOM      9  C   UNL     1       9.960  14.675  21.676  0.00  0.00    +0.000 A 
ATOM     10  O   UNL     1       9.500  14.661  22.817  0.00  0.00    +0.000 OA
ATOM     11  C   UNL     1      10.101  13.381  20.973  0.00  0.00    +0.000 A 
ATOM     12  C   UNL     1      10.576  13.283  19.725  0.00  0.00    +0.000 A 
ATOM     13  C   UNL     1      11.002  14.514  19.030  0.00  0.00    +0.000 A 
ATOM     14  C   UNL     1      11.537  14.466  17.730  0.00  0.00    +0.000 A 
ATOM     15  C   UNL     1      11.940  15.626  17.073  0.00  0.00    +0.000 A 
ATOM     16  C   UNL     1      11.817  16.855  17.706  0.00  0.00    +0.000 A 
ATOM     17  C   UNL     1      11.292  16.923  18.998  0.00  0.00    +0.000 A 
ATOM     18  C   UNL     1      10.880  15.762  19.674  0.00  0.00    +0.000 A 
ENDBRANCH   6  12
ENDBRANCH   5   6
ENDBRANCH   1   5
BRANCH   3  19
ATOM     19  C   UNL     1       7.684   8.516  17.761  0.00  0.00    +0.000 C 
BRANCH  19  20
ATOM     20  C   UNL     1       7.678   6.989  17.882  0.00  0.00    +0.000 C 
BRANCH  20  21
ATOM     21  C   UNL     1       7.182   6.276  16.607  0.00  0.00    +0.000 C 
BRANCH  21  22
ATOM     22  N   UNL     1       6.291   5.146  16.871  0.00  0.00    +0.000 NA
ATOM     23  C   UNL     1       6.304   4.644  18.266  0.00  0.00    +0.000 C 
ATOM     24  C   UNL     1       5.351   5.326  19.279  0.00  0.00    +0.000 C 
ATOM     25  N   UNL     1       3.995   5.553  18.745  0.00  0.00    +0.000 N 
ATOM     26  C   UNL     1       3.991   6.157  17.401  0.00  0.00    +0.000 C 
ATOM     27  C   UNL     1       4.901   5.372  16.427  0.00  0.00    +0.000 C 
BRANCH  25  28
ATOM     28  C   UNL     1       2.938   4.693  19.056  0.00  0.00    +0.000 A 
ATOM     29  C   UNL     1       2.786   3.510  18.305  0.00  0.00    +0.000 A 
ATOM     30  C   UNL     1       1.743   2.604  18.538  0.00  0.00    +0.000 A 
ATOM     31  C   UNL     1       0.814   2.855  19.541  0.00  0.00    +0.000 A 
ATOM     32  C   UNL     1       0.925   4.017  20.293  0.00  0.00    +0.000 A 
ATOM     33  C   UNL     1       1.964   4.921  20.045  0.00  0.00    +0.000 A 
ATOM     34  F   UNL     1       2.015   6.016  20.821  0.00  0.00    +0.000 F 
ENDBRANCH  25  28
ENDBRANCH  21  22
ENDBRANCH  20  21
ENDBRANCH  19  20
ENDBRANCH   3  19
TORSDOF 8
ENDMDL
