MODEL 1
REMARK VINA RESULT:      -7.6      0.000      0.000
REMARK  Name = 
REMARK  8 active torsions:
REMARK  status: ('A' for Active; 'I' for Inactive)
REMARK    1  A    between atoms: C_1  and  C_2
REMARK    2  A    between atoms: C_2  and  C_3
REMARK    3  A    between atoms: C_6  and  C_7
REMARK    4  A    between atoms: C_7  and  N_8
REMARK    5  A    between atoms: N_8  and  C_9
REMARK    6  A    between atoms: N_8  and  C_10
REMARK    7  A    between atoms: C_10  and  C_11
REMARK    8  A    between atoms: C_14  and  N_15
REMARK                            x       y       z     vdW  Elec       q    Type
REMARK                         _______ _______ _______ _____ _____    ______ ____
ROOT
ATOM      1  C   UNL     1       2.746   7.745  18.084  0.00  0.00    +0.000 A 
ATOM      2  C   UNL     1       2.060   8.915  17.745  0.00  0.00    +0.000 A 
ATOM      3  C   UNL     1       1.259   9.555  18.690  0.00  0.00    +0.000 A 
ATOM      4  C   UNL     1       1.106   9.051  19.990  0.00  0.00    +0.000 A 
ATOM      5  C   UNL     1       1.731   7.835  20.289  0.00  0.00    +0.000 A 
ATOM      6  C   UNL     1       2.544   7.188  19.351  0.00  0.00    +0.000 A 
ENDROOT
BRANCH   4   7
ATOM      7  N   UNL     1       0.333   9.757  20.901  0.00  0.00    +0.000 N 
ATOM      8  C   UNL     1      -0.391  10.961  20.499  0.00  0.00    +0.000 C 
ATOM      9  C   UNL     1      -0.455  11.883  21.717  0.00  0.00    +0.000 C 
ATOM     10  C   UNL     1      -1.071  11.182  22.929  0.00  0.00    +0.000 C 
ATOM     11  C   UNL     1      -0.420   9.825  23.206  0.00  0.00    +0.000 C 
ATOM     12  C   UNL     1      -0.345   8.969  21.943  0.00  0.00    +0.000 C 
ENDBRANCH   4   7
BRANCH   1  13
ATOM     13  C   UNL     1       3.768   7.165  17.131  0.00  0.00    +0.000 C 
BRANCH  13  14
ATOM     14  N   UNL     1       4.549   6.073  17.749  0.00  0.00    +0.000 NA
ATOM     15  C   UNL     1       5.981   6.324  17.569  0.00  0.00    +0.000 C 
BRANCH  14  16
ATOM     16  C   UNL     1       4.164   4.762  17.176  0.00  0.00    +0.000 C 
BRANCH  16  20
ATOM     17  C   UNL     1       1.765   3.115  19.223  0.00  0.00    +0.000 A 
ATOM     18  N   UNL     1       1.238   2.815  18.030  0.00  0.00    +0.000 NA
ATOM     19  O   UNL     1       2.099   3.464  17.136  0.00  0.00    +0.000 OA
ATOM     20  C   UNL     1       3.053   4.074  17.893  0.00  0.00    +0.000 A 
ATOM     21  N   UNL     1       2.887   3.900  19.186  0.00  0.00    +0.000 NA
BRANCH  17  23
ATOM     22  C   UNL     1       2.220   2.813  21.638  0.00  0.00    +0.000 C 
ATOM     23  C   UNL     1       1.252   2.554  20.494  0.00  0.00    +0.000 C 
ENDBRANCH  17  23
ENDBRANCH  16  20
ENDBRANCH  14  16
ENDBRANCH  13  14
ENDBRANCH   1  13
TORSDOF 6
ENDMDL
MODEL 2
REMARK VINA RESULT:      -7.5      2.770      4.389
REMARK  Name = 
REMARK  8 active torsions:
REMARK  status: ('A' for Active; 'I' for Inactive)
REMARK    1  A    between atoms: C_1  and  C_2
REMARK    2  A    between atoms: C_2  and  C_3
REMARK    3  A    between atoms: C_6  and  C_7
REMARK    4  A    between atoms: C_7  and  N_8
REMARK    5  A    between atoms: N_8  and  C_9
REMARK    6  A    between atoms: N_8  and  C_10
REMARK    7  A    between atoms: C_10  and  C_11
REMARK    8  A    between atoms: C_14  and  N_15
REMARK                            x       y       z     vdW  Elec       q    Type
REMARK                         _______ _______ _______ _____ _____    ______ ____
ROOT
ATOM      1  C   UNL     1       3.252   6.534  18.176  0.00  0.00    +0.000 A 
ATOM      2  C   UNL     1       2.761   7.769  17.744  0.00  0.00    +0.000 A 
ATOM      3  C   UNL     1       2.025   8.573  18.614  0.00  0.00    +0.000 A 
ATOM      4  C   UNL     1       1.744   8.172  19.928  0.00  0.00    +0.000 A 
ATOM      5  C   UNL     1       2.168   6.898  20.320  0.00  0.00    +0.000 A 
ATOM      6  C   UNL     1       2.916   6.087  19.458  0.00  0.00    +0.000 A 
ENDROOT
BRANCH   4   7
ATOM      7  N   UNL     1       1.046   9.035  20.762  0.00  0.00    +0.000 N 
ATOM      8  C   UNL     1       1.269   9.029  22.205  0.00  0.00    +0.000 C 
ATOM      9  C   UNL     1      -0.052   9.413  22.874  0.00  0.00    +0.000 C 
ATOM     10  C   UNL     1      -0.588  10.746  22.349  0.00  0.00    +0.000 C 
ATOM     11  C   UNL     1      -0.623  10.794  20.820  0.00  0.00    +0.000 C 
ATOM     12  C   UNL     1       0.708  10.358  20.212  0.00  0.00    +0.000 C 
ENDBRANCH   4   7
BRANCH   1  13
ATOM     13  C   UNL     1       4.215   5.757  17.307  0.00  0.00    +0.000 C 
BRANCH  13  14
ATOM     14  N   UNL     1       5.613   5.888  17.769  0.00  0.00    +0.000 NA
ATOM     15  C   UNL     1       6.171   7.161  17.307  0.00  0.00    +0.000 C 
BRANCH  14  16
ATOM     16  C   UNL     1       6.432   4.746  17.297  0.00  0.00    +0.000 C 
BRANCH  16  20
ATOM     17  C   UNL     1       6.709   4.226  13.789  0.00  0.00    +0.000 A 
ATOM     18  N   UNL     1       7.601   5.217  13.908  0.00  0.00    +0.000 NA
ATOM     19  O   UNL     1       7.539   5.532  15.270  0.00  0.00    +0.000 OA
ATOM     20  C   UNL     1       6.621   4.688  15.820  0.00  0.00    +0.000 A 
ATOM     21  N   UNL     1       6.072   3.871  14.949  0.00  0.00    +0.000 NA
BRANCH  17  23
ATOM     22  C   UNL     1       5.053   3.593  12.061  0.00  0.00    +0.000 C 
ATOM     23  C   UNL     1       6.496   3.480  12.528  0.00  0.00    +0.000 C 
ENDBRANCH  17  23
ENDBRANCH  16  20
ENDBRANCH  14  16
ENDBRANCH  13  14
ENDBRANCH   1  13
TORSDOF 6
ENDMDL
MODEL 3
REMARK VINA RESULT:      -7.4      2.839      4.373
REMARK  Name = 
REMARK  8 active torsions:
REMARK  status: ('A' for Active; 'I' for Inactive)
REMARK    1  A    between atoms: C_1  and  C_2
REMARK    2  A    between atoms: C_2  and  C_3
REMARK    3  A    between atoms: C_6  and  C_7
REMARK    4  A    between atoms: C_7  and  N_8
REMARK    5  A    between atoms: N_8  and  C_9
REMARK    6  A    between atoms: N_8  and  C_10
REMARK    7  A    between atoms: C_10  and  C_11
REMARK    8  A    between atoms: C_14  and  N_15
REMARK                            x       y       z     vdW  Elec       q    Type
REMARK                         _______ _______ _______ _____ _____    ______ ____
ROOT
ATOM      1  C   UNL     1       3.381   6.629  17.921  0.00  0.00    +0.000 A 
ATOM      2  C   UNL     1       2.866   7.855  17.492  0.00  0.00    +0.000 A 
ATOM      3  C   UNL     1       2.087   8.627  18.353  0.00  0.00    +0.000 A 
ATOM      4  C   UNL     1       1.786   8.203  19.655  0.00  0.00    +0.000 A 
ATOM      5  C   UNL     1       2.237   6.936  20.043  0.00  0.00    +0.000 A 
ATOM      6  C   UNL     1       3.027   6.157  19.189  0.00  0.00    +0.000 A 
ENDROOT
BRANCH   4   7
ATOM      7  N   UNL     1       1.045   9.035  20.482  0.00  0.00    +0.000 N 
ATOM      8  C   UNL     1       0.395  10.233  19.955  0.00  0.00    +0.000 C 
ATOM      9  C   UNL     1       0.370  11.271  21.078  0.00  0.00    +0.000 C 
ATOM     10  C   UNL     1      -0.297  10.725  22.341  0.00  0.00    +0.000 C 
ATOM     11  C   UNL     1       0.272   9.368  22.758  0.00  0.00    +0.000 C 
ATOM     12  C   UNL     1       0.312   8.391  21.584  0.00  0.00    +0.000 C 
ENDBRANCH   4   7
BRANCH   1  13
ATOM     13  C   UNL     1       4.386   5.890  17.067  0.00  0.00    +0.000 C 
BRANCH  13  14
ATOM     14  N   UNL     1       5.707   5.788  17.722  0.00  0.00    +0.000 NA
ATOM     15  C   UNL     1       6.431   7.054  17.576  0.00  0.00    +0.000 C 
BRANCH  14  16
ATOM     16  C   UNL     1       6.488   4.662  17.158  0.00  0.00    +0.000 C 
BRANCH  16  20
ATOM     17  C   UNL     1       6.893   4.503  13.627  0.00  0.00    +0.000 A 
ATOM     18  N   UNL     1       7.811   5.443  13.884  0.00  0.00    +0.000 NA
ATOM     19  O   UNL     1       7.703   5.615  15.269  0.00  0.00    +0.000 OA
ATOM     20  C   UNL     1       6.736   4.753  15.691  0.00  0.00    +0.000 A 
ATOM     21  N   UNL     1       6.197   4.053  14.718  0.00  0.00    +0.000 NA
BRANCH  17  23
ATOM     22  C   UNL     1       5.405   3.121  12.211  0.00  0.00    +0.000 C 
ATOM     23  C   UNL     1       6.707   3.903  12.286  0.00  0.00    +0.000 C 
ENDBRANCH  17  23
ENDBRANCH  16  20
ENDBRANCH  14  16
ENDBRANCH  13  14
ENDBRANCH   1  13
TORSDOF 6
ENDMDL
MODEL 4
REMARK VINA RESULT:      -7.2      2.740      4.532
REMARK  Name = 
REMARK  8 active torsions:
REMARK  status: ('A' for Active; 'I' for Inactive)
REMARK    1  A    between atoms: C_1  and  C_2
REMARK    2  A    between atoms: C_2  and  C_3
REMARK    3  A    between atoms: C_6  and  C_7
REMARK    4  A    between atoms: C_7  and  N_8
REMARK    5  A    between atoms: N_8  and  C_9
REMARK    6  A    between atoms: N_8  and  C_10
REMARK    7  A    between atoms: C_10  and  C_11
REMARK    8  A    between atoms: C_14  and  N_15
REMARK                            x       y       z     vdW  Elec       q    Type
REMARK                         _______ _______ _______ _____ _____    ______ ____
ROOT
ATOM      1  C   UNL     1       2.727   5.666  18.759  0.00  0.00    +0.000 A 
ATOM      2  C   UNL     1       2.283   5.477  20.071  0.00  0.00    +0.000 A 
ATOM      3  C   UNL     1       1.724   6.539  20.780  0.00  0.00    +0.000 A 
ATOM      4  C   UNL     1       1.598   7.817  20.217  0.00  0.00    +0.000 A 
ATOM      5  C   UNL     1       2.123   8.013  18.934  0.00  0.00    +0.000 A 
ATOM      6  C   UNL     1       2.679   6.951  18.210  0.00  0.00    +0.000 A 
ENDROOT
BRANCH   4   7
ATOM      7  N   UNL     1       0.991   8.824  20.954  0.00  0.00    +0.000 N 
ATOM      8  C   UNL     1       1.353   9.055  22.351  0.00  0.00    +0.000 C 
ATOM      9  C   UNL     1       0.106   9.577  23.066  0.00  0.00    +0.000 C 
ATOM     10  C   UNL     1      -0.467  10.816  22.376  0.00  0.00    +0.000 C 
ATOM     11  C   UNL     1      -0.650  10.608  20.871  0.00  0.00    +0.000 C 
ATOM     12  C   UNL     1       0.613  10.044  20.223  0.00  0.00    +0.000 C 
ENDBRANCH   4   7
BRANCH   1  13
ATOM     13  C   UNL     1       3.144   4.476  17.923  0.00  0.00    +0.000 C 
BRANCH  13  14
ATOM     14  N   UNL     1       4.596   4.471  17.647  0.00  0.00    +0.000 NA
ATOM     15  C   UNL     1       5.340   4.454  18.909  0.00  0.00    +0.000 C 
BRANCH  14  16
ATOM     16  C   UNL     1       4.979   5.639  16.821  0.00  0.00    +0.000 C 
BRANCH  16  20
ATOM     17  C   UNL     1       6.554   4.513  13.837  0.00  0.00    +0.000 A 
ATOM     18  N   UNL     1       7.553   5.269  14.308  0.00  0.00    +0.000 NA
ATOM     19  O   UNL     1       7.012   5.804  15.483  0.00  0.00    +0.000 OA
ATOM     20  C   UNL     1       5.750   5.302  15.591  0.00  0.00    +0.000 A 
ATOM     21  N   UNL     1       5.414   4.511  14.597  0.00  0.00    +0.000 NA
BRANCH  17  23
ATOM     22  C   UNL     1       5.335   3.326  12.038  0.00  0.00    +0.000 C 
ATOM     23  C   UNL     1       6.693   3.648  12.643  0.00  0.00    +0.000 C 
ENDBRANCH  17  23
ENDBRANCH  16  20
ENDBRANCH  14  16
ENDBRANCH  13  14
ENDBRANCH   1  13
TORSDOF 6
ENDMDL
MODEL 5
REMARK VINA RESULT:      -7.2      2.336      4.334
REMARK  Name = 
REMARK  8 active torsions:
REMARK  status: ('A' for Active; 'I' for Inactive)
REMARK    1  A    between atoms: C_1  and  C_2
REMARK    2  A    between atoms: C_2  and  C_3
REMARK    3  A    between atoms: C_6  and  C_7
REMARK    4  A    between atoms: C_7  and  N_8
REMARK    5  A    between atoms: N_8  and  C_9
REMARK    6  A    between atoms: N_8  and  C_10
REMARK    7  A    between atoms: C_10  and  C_11
REMARK    8  A    between atoms: C_14  and  N_15
REMARK                            x       y       z     vdW  Elec       q    Type
REMARK                         _______ _______ _______ _____ _____    ______ ____
ROOT
ATOM      1  C   UNL     1       2.279   6.269  19.806  0.00  0.00    +0.000 A 
ATOM      2  C   UNL     1       2.553   6.821  18.551  0.00  0.00    +0.000 A 
ATOM      3  C   UNL     1       2.198   8.141  18.275  0.00  0.00    +0.000 A 
ATOM      4  C   UNL     1       1.555   8.946  19.226  0.00  0.00    +0.000 A 
ATOM      5  C   UNL     1       1.212   8.356  20.447  0.00  0.00    +0.000 A 
ATOM      6  C   UNL     1       1.570   7.034  20.738  0.00  0.00    +0.000 A 
ENDROOT
BRANCH   4   7
ATOM      7  N   UNL     1       1.268  10.267  18.909  0.00  0.00    +0.000 N 
ATOM      8  C   UNL     1       2.149  11.038  18.035  0.00  0.00    +0.000 C 
ATOM      9  C   UNL     1       2.070  12.499  18.481  0.00  0.00    +0.000 C 
ATOM     10  C   UNL     1       0.628  13.012  18.494  0.00  0.00    +0.000 C 
ATOM     11  C   UNL     1      -0.313  12.074  19.253  0.00  0.00    +0.000 C 
ATOM     12  C   UNL     1      -0.155  10.626  18.794  0.00  0.00    +0.000 C 
ENDBRANCH   4   7
BRANCH   1  13
ATOM     13  C   UNL     1       2.840   4.914  20.175  0.00  0.00    +0.000 C 
BRANCH  13  14
ATOM     14  N   UNL     1       3.410   4.210  19.007  0.00  0.00    +0.000 NA
ATOM     15  C   UNL     1       2.624   3.007  18.722  0.00  0.00    +0.000 C 
BRANCH  14  16
ATOM     16  C   UNL     1       4.834   3.871  19.241  0.00  0.00    +0.000 C 
BRANCH  16  20
ATOM     17  C   UNL     1       6.739   4.627  16.334  0.00  0.00    +0.000 A 
ATOM     18  N   UNL     1       7.724   4.710  17.237  0.00  0.00    +0.000 NA
ATOM     19  O   UNL     1       7.062   4.466  18.446  0.00  0.00    +0.000 OA
ATOM     20  C   UNL     1       5.752   4.256  18.132  0.00  0.00    +0.000 A 
ATOM     21  N   UNL     1       5.498   4.355  16.847  0.00  0.00    +0.000 NA
BRANCH  17  23
ATOM     22  C   UNL     1       5.778   4.189  14.095  0.00  0.00    +0.000 C 
ATOM     23  C   UNL     1       6.976   4.710  14.875  0.00  0.00    +0.000 C 
ENDBRANCH  17  23
ENDBRANCH  16  20
ENDBRANCH  14  16
ENDBRANCH  13  14
ENDBRANCH   1  13
TORSDOF 6
ENDMDL
MODEL 6
REMARK VINA RESULT:      -7.1      0.954      1.411
REMARK  Name = 
REMARK  8 active torsions:
REMARK  status: ('A' for Active; 'I' for Inactive)
REMARK    1  A    between atoms: C_1  and  C_2
REMARK    2  A    between atoms: C_2  and  C_3
REMARK    3  A    between atoms: C_6  and  C_7
REMARK    4  A    between atoms: C_7  and  N_8
REMARK    5  A    between atoms: N_8  and  C_9
REMARK    6  A    between atoms: N_8  and  C_10
REMARK    7  A    between atoms: C_10  and  C_11
REMARK    8  A    between atoms: C_14  and  N_15
REMARK                            x       y       z     vdW  Elec       q    Type
REMARK                         _______ _______ _______ _____ _____    ______ ____
ROOT
ATOM      1  C   UNL     1       2.966   7.151  18.213  0.00  0.00    +0.000 A 
ATOM      2  C   UNL     1       2.472   8.408  17.853  0.00  0.00    +0.000 A 
ATOM      3  C   UNL     1       1.732   9.157  18.767  0.00  0.00    +0.000 A 
ATOM      4  C   UNL     1       1.451   8.680  20.056  0.00  0.00    +0.000 A 
ATOM      5  C   UNL     1       1.880   7.386  20.373  0.00  0.00    +0.000 A 
ATOM      6  C   UNL     1       2.630   6.629  19.466  0.00  0.00    +0.000 A 
ENDROOT
BRANCH   4   7
ATOM      7  N   UNL     1       0.750   9.490  20.937  0.00  0.00    +0.000 N 
ATOM      8  C   UNL     1       0.866   9.305  22.382  0.00  0.00    +0.000 C 
ATOM      9  C   UNL     1      -0.474   9.704  23.003  0.00  0.00    +0.000 C 
ATOM     10  C   UNL     1      -0.885  11.123  22.604  0.00  0.00    +0.000 C 
ATOM     11  C   UNL     1      -0.804  11.346  21.092  0.00  0.00    +0.000 C 
ATOM     12  C   UNL     1       0.538  10.887  20.526  0.00  0.00    +0.000 C 
ENDBRANCH   4   7
BRANCH   1  13
ATOM     13  C   UNL     1       3.933   6.429  17.301  0.00  0.00    +0.000 C 
BRANCH  13  14
ATOM     14  N   UNL     1       5.187   6.065  17.994  0.00  0.00    +0.000 NA
ATOM     15  C   UNL     1       6.301   6.839  17.441  0.00  0.00    +0.000 C 
BRANCH  14  16
ATOM     16  C   UNL     1       5.445   4.610  17.885  0.00  0.00    +0.000 C 
BRANCH  16  20
ATOM     17  C   UNL     1       2.760   2.604  19.077  0.00  0.00    +0.000 A 
ATOM     18  N   UNL     1       2.779   2.167  17.812  0.00  0.00    +0.000 NA
ATOM     19  O   UNL     1       3.793   2.938  17.231  0.00  0.00    +0.000 OA
ATOM     20  C   UNL     1       4.275   3.747  18.215  0.00  0.00    +0.000 A 
ATOM     21  N   UNL     1       3.666   3.590  19.369  0.00  0.00    +0.000 NA
BRANCH  17  23
ATOM     22  C   UNL     1       1.240   3.072  20.975  0.00  0.00    +0.000 C 
ATOM     23  C   UNL     1       1.905   2.000  20.125  0.00  0.00    +0.000 C 
ENDBRANCH  17  23
ENDBRANCH  16  20
ENDBRANCH  14  16
ENDBRANCH  13  14
ENDBRANCH   1  13
TORSDOF 6
ENDMDL
MODEL 7
REMARK VINA RESULT:      -7.1      2.738      4.548
REMARK  Name = 
REMARK  8 active torsions:
REMARK  status: ('A' for Active; 'I' for Inactive)
REMARK    1  A    between atoms: C_1  and  C_2
REMARK    2  A    between atoms: C_2  and  C_3
REMARK    3  A    between atoms: C_6  and  C_7
REMARK    4  A    between atoms: C_7  and  N_8
REMARK    5  A    between atoms: N_8  and  C_9
REMARK    6  A    between atoms: N_8  and  C_10
REMARK    7  A    between atoms: C_10  and  C_11
REMARK    8  A    between atoms: C_14  and  N_15
REMARK                            x       y       z     vdW  Elec       q    Type
REMARK                         _______ _______ _______ _____ _____    ______ ____
ROOT
ATOM      1  C   UNL     1       2.897   6.513  18.955  0.00  0.00    +0.000 A 
ATOM      2  C   UNL     1       2.809   7.301  17.803  0.00  0.00    +0.000 A 
ATOM      3  C   UNL     1       2.129   8.517  17.836  0.00  0.00    +0.000 A 
ATOM      4  C   UNL     1       1.507   8.982  19.004  0.00  0.00    +0.000 A 
ATOM      5  C   UNL     1       1.530   8.146  20.125  0.00  0.00    +0.000 A 
ATOM      6  C   UNL     1       2.218   6.927  20.106  0.00  0.00    +0.000 A 
ENDROOT
BRANCH   4   7
ATOM      7  N   UNL     1       0.884  10.222  18.988  0.00  0.00    +0.000 N 
ATOM      8  C   UNL     1       1.635  11.437  18.679  0.00  0.00    +0.000 C 
ATOM      9  C   UNL     1       0.992  12.583  19.460  0.00  0.00    +0.000 C 
ATOM     10  C   UNL     1      -0.504  12.703  19.165  0.00  0.00    +0.000 C 
ATOM     11  C   UNL     1      -1.232  11.365  19.305  0.00  0.00    +0.000 C 
ATOM     12  C   UNL     1      -0.518  10.253  18.540  0.00  0.00    +0.000 C 
ENDBRANCH   4   7
BRANCH   1  13
ATOM     13  C   UNL     1       3.799   5.300  18.976  0.00  0.00    +0.000 C 
BRANCH  13  14
ATOM     14  N   UNL     1       4.104   4.808  17.615  0.00  0.00    +0.000 NA
ATOM     15  C   UNL     1       3.219   3.690  17.283  0.00  0.00    +0.000 C 
BRANCH  14  16
ATOM     16  C   UNL     1       5.527   4.410  17.508  0.00  0.00    +0.000 C 
BRANCH  16  20
ATOM     17  C   UNL     1       6.722   4.628  14.164  0.00  0.00    +0.000 A 
ATOM     18  N   UNL     1       7.731   5.264  14.771  0.00  0.00    +0.000 NA
ATOM     19  O   UNL     1       7.334   5.271  16.113  0.00  0.00    +0.000 OA
ATOM     20  C   UNL     1       6.133   4.630  16.164  0.00  0.00    +0.000 A 
ATOM     21  N   UNL     1       5.706   4.224  14.989  0.00  0.00    +0.000 NA
BRANCH  17  23
ATOM     22  C   UNL     1       5.708   3.206  12.409  0.00  0.00    +0.000 C 
ATOM     23  C   UNL     1       6.740   4.278  12.725  0.00  0.00    +0.000 C 
ENDBRANCH  17  23
ENDBRANCH  16  20
ENDBRANCH  14  16
ENDBRANCH  13  14
ENDBRANCH   1  13
TORSDOF 6
ENDMDL
MODEL 8
REMARK VINA RESULT:      -7.1      2.044      4.234
REMARK  Name = 
REMARK  8 active torsions:
REMARK  status: ('A' for Active; 'I' for Inactive)
REMARK    1  A    between atoms: C_1  and  C_2
REMARK    2  A    between atoms: C_2  and  C_3
REMARK    3  A    between atoms: C_6  and  C_7
REMARK    4  A    between atoms: C_7  and  N_8
REMARK    5  A    between atoms: N_8  and  C_9
REMARK    6  A    between atoms: N_8  and  C_10
REMARK    7  A    between atoms: C_10  and  C_11
REMARK    8  A    between atoms: C_14  and  N_15
REMARK                            x       y       z     vdW  Elec       q    Type
REMARK                         _______ _______ _______ _____ _____    ______ ____
ROOT
ATOM      1  C   UNL     1       2.294   7.168  19.370  0.00  0.00    +0.000 A 
ATOM      2  C   UNL     1       2.338   7.858  18.155  0.00  0.00    +0.000 A 
ATOM      3  C   UNL     1       1.765   9.125  18.048  0.00  0.00    +0.000 A 
ATOM      4  C   UNL     1       1.124   9.738  19.133  0.00  0.00    +0.000 A 
ATOM      5  C   UNL     1       1.013   9.003  20.318  0.00  0.00    +0.000 A 
ATOM      6  C   UNL     1       1.592   7.734  20.440  0.00  0.00    +0.000 A 
ENDROOT
BRANCH   4   7
ATOM      7  N   UNL     1       0.613  11.019  18.979  0.00  0.00    +0.000 N 
ATOM      8  C   UNL     1      -0.810  11.289  19.171  0.00  0.00    +0.000 C 
ATOM      9  C   UNL     1      -1.187  12.440  18.237  0.00  0.00    +0.000 C 
ATOM     10  C   UNL     1      -0.302  13.667  18.460  0.00  0.00    +0.000 C 
ATOM     11  C   UNL     1       1.187  13.316  18.451  0.00  0.00    +0.000 C 
ATOM     12  C   UNL     1       1.493  12.134  19.368  0.00  0.00    +0.000 C 
ENDBRANCH   4   7
BRANCH   1  13
ATOM     13  C   UNL     1       3.085   5.892  19.545  0.00  0.00    +0.000 C 
BRANCH  13  14
ATOM     14  N   UNL     1       2.722   4.869  18.541  0.00  0.00    +0.000 NA
ATOM     15  C   UNL     1       2.342   3.626  19.215  0.00  0.00    +0.000 C 
BRANCH  14  16
ATOM     16  C   UNL     1       3.841   4.640  17.596  0.00  0.00    +0.000 C 
BRANCH  16  20
ATOM     17  C   UNL     1       6.993   6.000  18.530  0.00  0.00    +0.000 A 
ATOM     18  N   UNL     1       7.174   4.758  18.994  0.00  0.00    +0.000 NA
ATOM     19  O   UNL     1       5.952   4.136  18.710  0.00  0.00    +0.000 OA
ATOM     20  C   UNL     1       5.175   5.074  18.099  0.00  0.00    +0.000 A 
ATOM     21  N   UNL     1       5.764   6.243  17.974  0.00  0.00    +0.000 NA
BRANCH  17  23
ATOM     22  C   UNL     1       7.779   8.101  17.482  0.00  0.00    +0.000 C 
ATOM     23  C   UNL     1       8.068   7.017  18.510  0.00  0.00    +0.000 C 
ENDBRANCH  17  23
ENDBRANCH  16  20
ENDBRANCH  14  16
ENDBRANCH  13  14
ENDBRANCH   1  13
TORSDOF 6
ENDMDL
MODEL 9
REMARK VINA RESULT:      -7.1      2.113      4.232
REMARK  Name = 
REMARK  8 active torsions:
REMARK  status: ('A' for Active; 'I' for Inactive)
REMARK    1  A    between atoms: C_1  and  C_2
REMARK    2  A    between atoms: C_2  and  C_3
REMARK    3  A    between atoms: C_6  and  C_7
REMARK    4  A    between atoms: C_7  and  N_8
REMARK    5  A    between atoms: N_8  and  C_9
REMARK    6  A    between atoms: N_8  and  C_10
REMARK    7  A    between atoms: C_10  and  C_11
REMARK    8  A    between atoms: C_14  and  N_15
REMARK                            x       y       z     vdW  Elec       q    Type
REMARK                         _______ _______ _______ _____ _____    ______ ____
ROOT
ATOM      1  C   UNL     1       2.243   6.373  19.846  0.00  0.00    +0.000 A 
ATOM      2  C   UNL     1       1.610   7.211  20.769  0.00  0.00    +0.000 A 
ATOM      3  C   UNL     1       1.280   8.518  20.415  0.00  0.00    +0.000 A 
ATOM      4  C   UNL     1       1.575   9.036  19.146  0.00  0.00    +0.000 A 
ATOM      5  C   UNL     1       2.284   8.215  18.262  0.00  0.00    +0.000 A 
ATOM      6  C   UNL     1       2.613   6.898  18.603  0.00  0.00    +0.000 A 
ENDROOT
BRANCH   4   7
ATOM      7  N   UNL     1       1.181  10.330  18.836  0.00  0.00    +0.000 N 
ATOM      8  C   UNL     1       2.076  11.239  18.125  0.00  0.00    +0.000 C 
ATOM      9  C   UNL     1       1.763  12.658  18.603  0.00  0.00    +0.000 C 
ATOM     10  C   UNL     1       0.283  13.003  18.427  0.00  0.00    +0.000 C 
ATOM     11  C   UNL     1      -0.636  11.928  19.011  0.00  0.00    +0.000 C 
ATOM     12  C   UNL     1      -0.245  10.532  18.531  0.00  0.00    +0.000 C 
ENDBRANCH   4   7
BRANCH   1  13
ATOM     13  C   UNL     1       2.419   4.903  20.155  0.00  0.00    +0.000 C 
BRANCH  13  14
ATOM     14  N   UNL     1       2.411   4.072  18.933  0.00  0.00    +0.000 NA
ATOM     15  C   UNL     1       1.177   3.286  18.875  0.00  0.00    +0.000 C 
BRANCH  14  16
ATOM     16  C   UNL     1       3.603   3.192  18.889  0.00  0.00    +0.000 C 
BRANCH  16  20
ATOM     17  C   UNL     1       6.350   4.515  17.056  0.00  0.00    +0.000 A 
ATOM     18  N   UNL     1       6.876   4.607  18.284  0.00  0.00    +0.000 NA
ATOM     19  O   UNL     1       5.840   4.141  19.103  0.00  0.00    +0.000 OA
ATOM     20  C   UNL     1       4.810   3.814  18.273  0.00  0.00    +0.000 A 
ATOM     21  N   UNL     1       5.068   4.036  17.004  0.00  0.00    +0.000 NA
BRANCH  17  23
ATOM     22  C   UNL     1       6.396   4.289  14.591  0.00  0.00    +0.000 C 
ATOM     23  C   UNL     1       7.123   4.800  15.825  0.00  0.00    +0.000 C 
ENDBRANCH  17  23
ENDBRANCH  16  20
ENDBRANCH  14  16
ENDBRANCH  13  14
ENDBRANCH   1  13
TORSDOF 6
ENDMDL
