MODEL 1
REMARK VINA RESULT:      -7.3      0.000      0.000
REMARK  Name = 
REMARK  7 active torsions:
REMARK  status: ('A' for Active; 'I' for Inactive)
REMARK    1  A    between atoms: C_1  and  O_2
REMARK    2  A    between atoms: O_2  and  N_3
REMARK    3  A    between atoms: C_4  and  C_5
REMARK    4  A    between atoms: C_8  and  O_9
REMARK    5  A    between atoms: O_9  and  C_10
REMARK    6  A    between atoms: C_13  and  C_14
REMARK    7  A    between atoms: C_17  and  N_18
REMARK                            x       y       z     vdW  Elec       q    Type
REMARK                         _______ _______ _______ _____ _____    ______ ____
ROOT
ATOM      1  C   UNL     1       6.329   4.477  14.950  0.00  0.00    +0.000 A 
ATOM      2  C   UNL     1       4.954   4.436  15.204  0.00  0.00    +0.000 A 
ATOM      3  C   UNL     1       4.457   4.813  16.452  0.00  0.00    +0.000 A 
ATOM      4  C   UNL     1       5.311   5.297  17.448  0.00  0.00    +0.000 A 
ATOM      5  C   UNL     1       6.689   5.279  17.189  0.00  0.00    +0.000 A 
ATOM      6  C   UNL     1       7.213   4.885  15.947  0.00  0.00    +0.000 A 
ENDROOT
BRANCH   5   7
ATOM      7  N   UNL     1       7.634   5.661  18.223  0.00  0.00    +0.000 N 
ATOM      8  O   UNL     1       7.921   6.863  18.316  0.00  0.00    +0.000 OA
ATOM      9  O   UNL     1       8.020   4.766  18.988  0.00  0.00    +0.000 OA
ENDBRANCH   5   7
BRANCH   1  11
ATOM     10  N   UNL     1       6.065   3.405  12.817  0.00  0.00    +0.000 NA
ATOM     11  C   UNL     1       6.834   4.056  13.628  0.00  0.00    +0.000 C 
BRANCH  10  13
ATOM     12  C   UNL     1       6.433   1.749  11.297  0.00  0.00    +0.000 C 
ATOM     13  O   UNL     1       6.769   3.086  11.651  0.00  0.00    +0.000 OA
ENDBRANCH  10  13
ENDBRANCH   1  11
BRANCH   4  14
ATOM     14  O   UNL     1       4.841   5.764  18.656  0.00  0.00    +0.000 OA
BRANCH  14  15
ATOM     15  C   UNL     1       4.039   4.936  19.417  0.00  0.00    +0.000 A 
ATOM     16  C   UNL     1       2.914   5.514  20.007  0.00  0.00    +0.000 A 
ATOM     17  C   UNL     1       2.052   4.735  20.789  0.00  0.00    +0.000 A 
ATOM     18  C   UNL     1       2.311   3.374  20.989  0.00  0.00    +0.000 A 
ATOM     19  C   UNL     1       1.372   2.509  21.779  0.00  0.00    +0.000 C 
ATOM     20  C   UNL     1       3.438   2.800  20.390  0.00  0.00    +0.000 A 
ATOM     21  C   UNL     1       4.280   3.569  19.585  0.00  0.00    +0.000 A 
ENDBRANCH  14  15
ENDBRANCH   4  14
TORSDOF 5
ENDMDL
MODEL 2
REMARK VINA RESULT:      -7.1      0.520      1.361
REMARK  Name = 
REMARK  7 active torsions:
REMARK  status: ('A' for Active; 'I' for Inactive)
REMARK    1  A    between atoms: C_1  and  O_2
REMARK    2  A    between atoms: O_2  and  N_3
REMARK    3  A    between atoms: C_4  and  C_5
REMARK    4  A    between atoms: C_8  and  O_9
REMARK    5  A    between atoms: O_9  and  C_10
REMARK    6  A    between atoms: C_13  and  C_14
REMARK    7  A    between atoms: C_17  and  N_18
REMARK                            x       y       z     vdW  Elec       q    Type
REMARK                         _______ _______ _______ _____ _____    ______ ____
ROOT
ATOM      1  C   UNL     1       6.207   4.517  14.878  0.00  0.00    +0.000 A 
ATOM      2  C   UNL     1       4.953   4.116  15.352  0.00  0.00    +0.000 A 
ATOM      3  C   UNL     1       4.501   4.547  16.599  0.00  0.00    +0.000 A 
ATOM      4  C   UNL     1       5.258   5.436  17.369  0.00  0.00    +0.000 A 
ATOM      5  C   UNL     1       6.533   5.782  16.898  0.00  0.00    +0.000 A 
ATOM      6  C   UNL     1       7.017   5.343  15.655  0.00  0.00    +0.000 A 
ENDROOT
BRANCH   5   7
ATOM      7  N   UNL     1       7.413   6.610  17.704  0.00  0.00    +0.000 N 
ATOM      8  O   UNL     1       7.919   6.092  18.710  0.00  0.00    +0.000 OA
ATOM      9  O   UNL     1       7.656   7.748  17.278  0.00  0.00    +0.000 OA
ENDBRANCH   5   7
BRANCH   1  11
ATOM     10  N   UNL     1       5.872   3.368  12.795  0.00  0.00    +0.000 NA
ATOM     11  C   UNL     1       6.673   4.033  13.563  0.00  0.00    +0.000 C 
BRANCH  10  13
ATOM     12  C   UNL     1       6.139   1.658  11.314  0.00  0.00    +0.000 C 
ATOM     13  O   UNL     1       6.543   2.987  11.629  0.00  0.00    +0.000 OA
ENDBRANCH  10  13
ENDBRANCH   1  11
BRANCH   4  14
ATOM     14  O   UNL     1       4.798   5.953  18.560  0.00  0.00    +0.000 OA
BRANCH  14  15
ATOM     15  C   UNL     1       3.918   5.198  19.311  0.00  0.00    +0.000 A 
ATOM     16  C   UNL     1       4.277   3.874  19.564  0.00  0.00    +0.000 A 
ATOM     17  C   UNL     1       3.437   3.050  20.323  0.00  0.00    +0.000 A 
ATOM     18  C   UNL     1       2.230   3.544  20.832  0.00  0.00    +0.000 A 
ATOM     19  C   UNL     1       1.340   2.695  21.693  0.00  0.00    +0.000 C 
ATOM     20  C   UNL     1       1.879   4.876  20.579  0.00  0.00    +0.000 A 
ATOM     21  C   UNL     1       2.731   5.706  19.849  0.00  0.00    +0.000 A 
ENDBRANCH  14  15
ENDBRANCH   4  14
TORSDOF 5
ENDMDL
MODEL 3
REMARK VINA RESULT:      -7.1      3.106      4.402
REMARK  Name = 
REMARK  7 active torsions:
REMARK  status: ('A' for Active; 'I' for Inactive)
REMARK    1  A    between atoms: C_1  and  O_2
REMARK    2  A    between atoms: O_2  and  N_3
REMARK    3  A    between atoms: C_4  and  C_5
REMARK    4  A    between atoms: C_8  and  O_9
REMARK    5  A    between atoms: O_9  and  C_10
REMARK    6  A    between atoms: C_13  and  C_14
REMARK    7  A    between atoms: C_17  and  N_18
REMARK                            x       y       z     vdW  Elec       q    Type
REMARK                         _______ _______ _______ _____ _____    ______ ____
ROOT
ATOM      1  C   UNL     1       5.304   4.869  15.942  0.00  0.00    +0.000 A 
ATOM      2  C   UNL     1       5.648   6.098  16.515  0.00  0.00    +0.000 A 
ATOM      3  C   UNL     1       4.911   6.610  17.582  0.00  0.00    +0.000 A 
ATOM      4  C   UNL     1       3.857   5.880  18.141  0.00  0.00    +0.000 A 
ATOM      5  C   UNL     1       3.496   4.677  17.518  0.00  0.00    +0.000 A 
ATOM      6  C   UNL     1       4.212   4.152  16.429  0.00  0.00    +0.000 A 
ENDROOT
BRANCH   5   7
ATOM      7  N   UNL     1       2.340   3.929  17.980  0.00  0.00    +0.000 N 
ATOM      8  O   UNL     1       1.247   4.189  17.457  0.00  0.00    +0.000 OA
ATOM      9  O   UNL     1       2.549   3.028  18.805  0.00  0.00    +0.000 OA
ENDBRANCH   5   7
BRANCH   1  11
ATOM     10  N   UNL     1       5.492   4.014  13.705  0.00  0.00    +0.000 NA
ATOM     11  C   UNL     1       6.088   4.356  14.801  0.00  0.00    +0.000 C 
BRANCH  10  13
ATOM     12  C   UNL     1       5.726   2.767  11.813  0.00  0.00    +0.000 C 
ATOM     13  O   UNL     1       6.430   3.529  12.789  0.00  0.00    +0.000 OA
ENDBRANCH  10  13
ENDBRANCH   1  11
BRANCH   4  14
ATOM     14  O   UNL     1       3.171   6.315  19.253  0.00  0.00    +0.000 OA
BRANCH  14  15
ATOM     15  C   UNL     1       2.387   7.446  19.146  0.00  0.00    +0.000 A 
ATOM     16  C   UNL     1       1.783   7.911  20.314  0.00  0.00    +0.000 A 
ATOM     17  C   UNL     1       0.977   9.056  20.282  0.00  0.00    +0.000 A 
ATOM     18  C   UNL     1       0.769   9.743  19.081  0.00  0.00    +0.000 A 
ATOM     19  C   UNL     1      -0.047  11.003  19.033  0.00  0.00    +0.000 C 
ATOM     20  C   UNL     1       1.382   9.274  17.913  0.00  0.00    +0.000 A 
ATOM     21  C   UNL     1       2.210   8.151  17.951  0.00  0.00    +0.000 A 
ENDBRANCH  14  15
ENDBRANCH   4  14
TORSDOF 5
ENDMDL
MODEL 4
REMARK VINA RESULT:      -7.0      3.140      4.496
REMARK  Name = 
REMARK  7 active torsions:
REMARK  status: ('A' for Active; 'I' for Inactive)
REMARK    1  A    between atoms: C_1  and  O_2
REMARK    2  A    between atoms: O_2  and  N_3
REMARK    3  A    between atoms: C_4  and  C_5
REMARK    4  A    between atoms: C_8  and  O_9
REMARK    5  A    between atoms: O_9  and  C_10
REMARK    6  A    between atoms: C_13  and  C_14
REMARK    7  A    between atoms: C_17  and  N_18
REMARK                            x       y       z     vdW  Elec       q    Type
REMARK                         _______ _______ _______ _____ _____    ______ ____
ROOT
ATOM      1  C   UNL     1       5.238   4.794  16.132  0.00  0.00    +0.000 A 
ATOM      2  C   UNL     1       5.580   6.023  16.707  0.00  0.00    +0.000 A 
ATOM      3  C   UNL     1       4.830   6.540  17.763  0.00  0.00    +0.000 A 
ATOM      4  C   UNL     1       3.765   5.815  18.309  0.00  0.00    +0.000 A 
ATOM      5  C   UNL     1       3.407   4.613  17.682  0.00  0.00    +0.000 A 
ATOM      6  C   UNL     1       4.137   4.083  16.604  0.00  0.00    +0.000 A 
ENDROOT
BRANCH   5   7
ATOM      7  N   UNL     1       2.242   3.871  18.129  0.00  0.00    +0.000 N 
ATOM      8  O   UNL     1       1.165   4.106  17.563  0.00  0.00    +0.000 OA
ATOM      9  O   UNL     1       2.430   2.998  18.988  0.00  0.00    +0.000 OA
ENDBRANCH   5   7
BRANCH   1  11
ATOM     10  N   UNL     1       5.491   4.117  13.841  0.00  0.00    +0.000 NA
ATOM     11  C   UNL     1       6.036   4.276  15.003  0.00  0.00    +0.000 C 
BRANCH  10  13
ATOM     12  C   UNL     1       5.707   2.968  11.886  0.00  0.00    +0.000 C 
ATOM     13  O   UNL     1       6.427   3.584  12.949  0.00  0.00    +0.000 OA
ENDBRANCH  10  13
ENDBRANCH   1  11
BRANCH   4  14
ATOM     14  O   UNL     1       3.065   6.255  19.410  0.00  0.00    +0.000 OA
BRANCH  14  15
ATOM     15  C   UNL     1       2.324   7.416  19.301  0.00  0.00    +0.000 A 
ATOM     16  C   UNL     1       2.199   7.970  18.027  0.00  0.00    +0.000 A 
ATOM     17  C   UNL     1       1.459   9.143  17.840  0.00  0.00    +0.000 A 
ATOM     18  C   UNL     1       0.839   9.773  18.926  0.00  0.00    +0.000 A 
ATOM     19  C   UNL     1      -0.003  11.001  18.741  0.00  0.00    +0.000 C 
ATOM     20  C   UNL     1       0.965   9.209  20.202  0.00  0.00    +0.000 A 
ATOM     21  C   UNL     1       1.677   8.022  20.383  0.00  0.00    +0.000 A 
ENDBRANCH  14  15
ENDBRANCH   4  14
TORSDOF 5
ENDMDL
MODEL 5
REMARK VINA RESULT:      -6.9      2.990      5.073
REMARK  Name = 
REMARK  7 active torsions:
REMARK  status: ('A' for Active; 'I' for Inactive)
REMARK    1  A    between atoms: C_1  and  O_2
REMARK    2  A    between atoms: O_2  and  N_3
REMARK    3  A    between atoms: C_4  and  C_5
REMARK    4  A    between atoms: C_8  and  O_9
REMARK    5  A    between atoms: O_9  and  C_10
REMARK    6  A    between atoms: C_13  and  C_14
REMARK    7  A    between atoms: C_17  and  N_18
REMARK                            x       y       z     vdW  Elec       q    Type
REMARK                         _______ _______ _______ _____ _____    ______ ____
ROOT
ATOM      1  C   UNL     1       7.741   6.980  18.223  0.00  0.00    +0.000 A 
ATOM      2  C   UNL     1       7.528   5.888  19.071  0.00  0.00    +0.000 A 
ATOM      3  C   UNL     1       6.740   4.815  18.655  0.00  0.00    +0.000 A 
ATOM      4  C   UNL     1       6.202   4.779  17.364  0.00  0.00    +0.000 A 
ATOM      5  C   UNL     1       6.384   5.907  16.551  0.00  0.00    +0.000 A 
ATOM      6  C   UNL     1       7.157   7.007  16.958  0.00  0.00    +0.000 A 
ENDROOT
BRANCH   5   7
ATOM      7  N   UNL     1       5.756   5.978  15.244  0.00  0.00    +0.000 N 
ATOM      8  O   UNL     1       4.979   6.920  15.036  0.00  0.00    +0.000 OA
ATOM      9  O   UNL     1       6.109   5.135  14.406  0.00  0.00    +0.000 OA
ENDBRANCH   5   7
BRANCH   1  11
ATOM     10  N   UNL     1       8.378   9.296  18.206  0.00  0.00    +0.000 NA
ATOM     11  C   UNL     1       8.563   8.113  18.693  0.00  0.00    +0.000 C 
BRANCH  10  13
ATOM     12  C   UNL     1       9.153  11.435  18.098  0.00  0.00    +0.000 C 
ATOM     13  O   UNL     1       9.292  10.190  18.773  0.00  0.00    +0.000 OA
ENDBRANCH  10  13
ENDBRANCH   1  11
BRANCH   4  14
ATOM     14  O   UNL     1       5.500   3.693  16.892  0.00  0.00    +0.000 OA
BRANCH  14  15
ATOM     15  C   UNL     1       4.271   3.405  17.454  0.00  0.00    +0.000 A 
ATOM     16  C   UNL     1       3.299   4.403  17.393  0.00  0.00    +0.000 A 
ATOM     17  C   UNL     1       2.028   4.181  17.938  0.00  0.00    +0.000 A 
ATOM     18  C   UNL     1       1.722   2.960  18.550  0.00  0.00    +0.000 A 
ATOM     19  C   UNL     1       0.351   2.681  19.094  0.00  0.00    +0.000 C 
ATOM     20  C   UNL     1       2.702   1.961  18.604  0.00  0.00    +0.000 A 
ATOM     21  C   UNL     1       3.958   2.171  18.033  0.00  0.00    +0.000 A 
ENDBRANCH  14  15
ENDBRANCH   4  14
TORSDOF 5
ENDMDL
MODEL 6
REMARK VINA RESULT:      -6.9      2.182      6.636
REMARK  Name = 
REMARK  7 active torsions:
REMARK  status: ('A' for Active; 'I' for Inactive)
REMARK    1  A    between atoms: C_1  and  O_2
REMARK    2  A    between atoms: O_2  and  N_3
REMARK    3  A    between atoms: C_4  and  C_5
REMARK    4  A    between atoms: C_8  and  O_9
REMARK    5  A    between atoms: O_9  and  C_10
REMARK    6  A    between atoms: C_13  and  C_14
REMARK    7  A    between atoms: C_17  and  N_18
REMARK                            x       y       z     vdW  Elec       q    Type
REMARK                         _______ _______ _______ _____ _____    ______ ____
ROOT
ATOM      1  C   UNL     1       4.043   5.238  18.951  0.00  0.00    +0.000 A 
ATOM      2  C   UNL     1       3.655   5.881  17.771  0.00  0.00    +0.000 A 
ATOM      3  C   UNL     1       4.599   6.181  16.788  0.00  0.00    +0.000 A 
ATOM      4  C   UNL     1       5.934   5.791  16.934  0.00  0.00    +0.000 A 
ATOM      5  C   UNL     1       6.310   5.197  18.147  0.00  0.00    +0.000 A 
ATOM      6  C   UNL     1       5.380   4.903  19.158  0.00  0.00    +0.000 A 
ENDROOT
BRANCH   5   7
ATOM      7  N   UNL     1       7.702   4.873  18.404  0.00  0.00    +0.000 N 
ATOM      8  O   UNL     1       8.259   4.091  17.621  0.00  0.00    +0.000 OA
ATOM      9  O   UNL     1       8.251   5.468  19.342  0.00  0.00    +0.000 OA
ENDBRANCH   5   7
BRANCH   1  11
ATOM     10  N   UNL     1       1.892   4.432  19.651  0.00  0.00    +0.000 NA
ATOM     11  C   UNL     1       3.030   4.948  19.984  0.00  0.00    +0.000 C 
BRANCH  10  13
ATOM     12  C   UNL     1       1.514   3.104  21.463  0.00  0.00    +0.000 C 
ATOM     13  O   UNL     1       1.089   4.283  20.786  0.00  0.00    +0.000 OA
ENDBRANCH  10  13
ENDBRANCH   1  11
BRANCH   4  14
ATOM     14  O   UNL     1       6.869   5.989  15.942  0.00  0.00    +0.000 OA
BRANCH  14  15
ATOM     15  C   UNL     1       6.793   5.219  14.799  0.00  0.00    +0.000 A 
ATOM     16  C   UNL     1       5.809   4.230  14.766  0.00  0.00    +0.000 A 
ATOM     17  C   UNL     1       5.670   3.413  13.638  0.00  0.00    +0.000 A 
ATOM     18  C   UNL     1       6.516   3.577  12.534  0.00  0.00    +0.000 A 
ATOM     19  C   UNL     1       6.350   2.748  11.294  0.00  0.00    +0.000 C 
ATOM     20  C   UNL     1       7.499   4.574  12.572  0.00  0.00    +0.000 A 
ATOM     21  C   UNL     1       7.617   5.409  13.685  0.00  0.00    +0.000 A 
ENDBRANCH  14  15
ENDBRANCH   4  14
TORSDOF 5
ENDMDL
MODEL 7
REMARK VINA RESULT:      -6.8      3.007      5.273
REMARK  Name = 
REMARK  7 active torsions:
REMARK  status: ('A' for Active; 'I' for Inactive)
REMARK    1  A    between atoms: C_1  and  O_2
REMARK    2  A    between atoms: O_2  and  N_3
REMARK    3  A    between atoms: C_4  and  C_5
REMARK    4  A    between atoms: C_8  and  O_9
REMARK    5  A    between atoms: O_9  and  C_10
REMARK    6  A    between atoms: C_13  and  C_14
REMARK    7  A    between atoms: C_17  and  N_18
REMARK                            x       y       z     vdW  Elec       q    Type
REMARK                         _______ _______ _______ _____ _____    ______ ____
ROOT
ATOM      1  C   UNL     1       7.934   7.600  18.288  0.00  0.00    +0.000 A 
ATOM      2  C   UNL     1       8.220   6.377  18.904  0.00  0.00    +0.000 A 
ATOM      3  C   UNL     1       7.466   5.243  18.604  0.00  0.00    +0.000 A 
ATOM      4  C   UNL     1       6.454   5.289  17.639  0.00  0.00    +0.000 A 
ATOM      5  C   UNL     1       6.151   6.536  17.074  0.00  0.00    +0.000 A 
ATOM      6  C   UNL     1       6.885   7.695  17.376  0.00  0.00    +0.000 A 
ENDROOT
BRANCH   5   7
ATOM      7  N   UNL     1       5.038   6.671  16.150  0.00  0.00    +0.000 N 
ATOM      8  O   UNL     1       3.966   7.092  16.608  0.00  0.00    +0.000 OA
ATOM      9  O   UNL     1       5.269   6.433  14.956  0.00  0.00    +0.000 OA
ENDBRANCH   5   7
BRANCH   1  11
ATOM     10  N   UNL     1       8.503   9.921  18.053  0.00  0.00    +0.000 NA
ATOM     11  C   UNL     1       8.735   8.790  18.636  0.00  0.00    +0.000 C 
BRANCH  10  13
ATOM     12  C   UNL     1       9.458  10.780  19.935  0.00  0.00    +0.000 C 
ATOM     13  O   UNL     1       9.405  10.885  18.516  0.00  0.00    +0.000 OA
ENDBRANCH  10  13
ENDBRANCH   1  11
BRANCH   4  14
ATOM     14  O   UNL     1       5.755   4.167  17.253  0.00  0.00    +0.000 OA
BRANCH  14  15
ATOM     15  C   UNL     1       4.542   3.904  17.858  0.00  0.00    +0.000 A 
ATOM     16  C   UNL     1       4.509   3.939  19.252  0.00  0.00    +0.000 A 
ATOM     17  C   UNL     1       3.313   3.687  19.934  0.00  0.00    +0.000 A 
ATOM     18  C   UNL     1       2.140   3.396  19.226  0.00  0.00    +0.000 A 
ATOM     19  C   UNL     1       0.835   3.175  19.935  0.00  0.00    +0.000 C 
ATOM     20  C   UNL     1       2.179   3.367  17.827  0.00  0.00    +0.000 A 
ATOM     21  C   UNL     1       3.365   3.649  17.147  0.00  0.00    +0.000 A 
ENDBRANCH  14  15
ENDBRANCH   4  14
TORSDOF 5
ENDMDL
MODEL 8
REMARK VINA RESULT:      -6.8      3.040      5.247
REMARK  Name = 
REMARK  7 active torsions:
REMARK  status: ('A' for Active; 'I' for Inactive)
REMARK    1  A    between atoms: C_1  and  O_2
REMARK    2  A    between atoms: O_2  and  N_3
REMARK    3  A    between atoms: C_4  and  C_5
REMARK    4  A    between atoms: C_8  and  O_9
REMARK    5  A    between atoms: O_9  and  C_10
REMARK    6  A    between atoms: C_13  and  C_14
REMARK    7  A    between atoms: C_17  and  N_18
REMARK                            x       y       z     vdW  Elec       q    Type
REMARK                         _______ _______ _______ _____ _____    ______ ____
ROOT
ATOM      1  C   UNL     1       7.961   7.577  18.321  0.00  0.00    +0.000 A 
ATOM      2  C   UNL     1       8.193   6.350  18.953  0.00  0.00    +0.000 A 
ATOM      3  C   UNL     1       7.409   5.239  18.646  0.00  0.00    +0.000 A 
ATOM      4  C   UNL     1       6.420   5.309  17.659  0.00  0.00    +0.000 A 
ATOM      5  C   UNL     1       6.169   6.560  17.078  0.00  0.00    +0.000 A 
ATOM      6  C   UNL     1       6.934   7.698  17.386  0.00  0.00    +0.000 A 
ENDROOT
BRANCH   5   7
ATOM      7  N   UNL     1       5.081   6.723  16.130  0.00  0.00    +0.000 N 
ATOM      8  O   UNL     1       5.295   6.396  14.954  0.00  0.00    +0.000 OA
ATOM      9  O   UNL     1       3.992   7.101  16.587  0.00  0.00    +0.000 OA
ENDBRANCH   5   7
BRANCH   1  11
ATOM     10  N   UNL     1       8.536   9.903  18.163  0.00  0.00    +0.000 NA
ATOM     11  C   UNL     1       8.792   8.744  18.675  0.00  0.00    +0.000 C 
BRANCH  10  13
ATOM     12  C   UNL     1       9.269  12.042  17.885  0.00  0.00    +0.000 C 
ATOM     13  O   UNL     1       9.474  10.837  18.616  0.00  0.00    +0.000 OA
ENDBRANCH  10  13
ENDBRANCH   1  11
BRANCH   4  14
ATOM     14  O   UNL     1       5.693   4.207  17.268  0.00  0.00    +0.000 OA
BRANCH  14  15
ATOM     15  C   UNL     1       4.522   3.916  17.940  0.00  0.00    +0.000 A 
ATOM     16  C   UNL     1       3.390   3.671  17.161  0.00  0.00    +0.000 A 
ATOM     17  C   UNL     1       2.169   3.364  17.772  0.00  0.00    +0.000 A 
ATOM     18  C   UNL     1       2.069   3.304  19.168  0.00  0.00    +0.000 A 
ATOM     19  C   UNL     1       0.782   2.925  19.843  0.00  0.00    +0.000 C 
ATOM     20  C   UNL     1       3.209   3.546  19.943  0.00  0.00    +0.000 A 
ATOM     21  C   UNL     1       4.434   3.821  19.332  0.00  0.00    +0.000 A 
ENDBRANCH  14  15
ENDBRANCH   4  14
TORSDOF 5
ENDMDL
MODEL 9
REMARK VINA RESULT:      -6.7      2.951      4.236
REMARK  Name = 
REMARK  7 active torsions:
REMARK  status: ('A' for Active; 'I' for Inactive)
REMARK    1  A    between atoms: C_1  and  O_2
REMARK    2  A    between atoms: O_2  and  N_3
REMARK    3  A    between atoms: C_4  and  C_5
REMARK    4  A    between atoms: C_8  and  O_9
REMARK    5  A    between atoms: O_9  and  C_10
REMARK    6  A    between atoms: C_13  and  C_14
REMARK    7  A    between atoms: C_17  and  N_18
REMARK                            x       y       z     vdW  Elec       q    Type
REMARK                         _______ _______ _______ _____ _____    ______ ____
ROOT
ATOM      1  C   UNL     1       5.582   5.073  15.625  0.00  0.00    +0.000 A 
ATOM      2  C   UNL     1       5.784   6.252  16.351  0.00  0.00    +0.000 A 
ATOM      3  C   UNL     1       5.001   6.532  17.471  0.00  0.00    +0.000 A 
ATOM      4  C   UNL     1       4.047   5.616  17.927  0.00  0.00    +0.000 A 
ATOM      5  C   UNL     1       3.826   4.468  17.154  0.00  0.00    +0.000 A 
ATOM      6  C   UNL     1       4.589   4.175  16.011  0.00  0.00    +0.000 A 
ENDROOT
BRANCH   5   7
ATOM      7  N   UNL     1       2.773   3.535  17.512  0.00  0.00    +0.000 N 
ATOM      8  O   UNL     1       3.097   2.531  18.162  0.00  0.00    +0.000 OA
ATOM      9  O   UNL     1       1.614   3.856  17.210  0.00  0.00    +0.000 OA
ENDBRANCH   5   7
BRANCH   1  11
ATOM     10  N   UNL     1       7.495   5.481  14.231  0.00  0.00    +0.000 NA
ATOM     11  C   UNL     1       6.410   4.806  14.432  0.00  0.00    +0.000 C 
BRANCH  10  13
ATOM     12  C   UNL     1       7.152   4.248  12.346  0.00  0.00    +0.000 C 
ATOM     13  O   UNL     1       8.085   5.080  13.028  0.00  0.00    +0.000 OA
ENDBRANCH  10  13
ENDBRANCH   1  11
BRANCH   4  14
ATOM     14  O   UNL     1       3.326   5.822  19.082  0.00  0.00    +0.000 OA
BRANCH  14  15
ATOM     15  C   UNL     1       2.591   6.985  19.204  0.00  0.00    +0.000 A 
ATOM     16  C   UNL     1       2.022   7.246  20.451  0.00  0.00    +0.000 A 
ATOM     17  C   UNL     1       1.268   8.408  20.650  0.00  0.00    +0.000 A 
ATOM     18  C   UNL     1       1.073   9.316  19.603  0.00  0.00    +0.000 A 
ATOM     19  C   UNL     1       0.312  10.594  19.808  0.00  0.00    +0.000 C 
ATOM     20  C   UNL     1       1.650   9.050  18.355  0.00  0.00    +0.000 A 
ATOM     21  C   UNL     1       2.428   7.907  18.165  0.00  0.00    +0.000 A 
ENDBRANCH  14  15
ENDBRANCH   4  14
TORSDOF 5
ENDMDL
