MODEL 1
REMARK VINA RESULT:      -6.3      0.000      0.000
REMARK  Name = 
REMARK  6 active torsions:
REMARK  status: ('A' for Active; 'I' for Inactive)
REMARK    1  A    between atoms: C_1  and  O_2
REMARK    2  A    between atoms: O_2  and  C_3
REMARK    3  A    between atoms: C_7  and  C_8
REMARK    4  A    between atoms: C_8  and  O_9
REMARK    5  A    between atoms: O_9  and  C_10
REMARK    6  A    between atoms: C_10  and  C_11
REMARK                            x       y       z     vdW  Elec       q    Type
REMARK                         _______ _______ _______ _____ _____    ______ ____
ROOT
ATOM      1  C   UNL     1       1.720   4.223  19.512  0.00  0.00    +0.000 C 
ATOM      2  C   UNL     1       2.398   5.355  19.282  0.00  0.00    +0.000 C 
ATOM      3  C   UNL     1       3.210   5.517  18.066  0.00  0.00    +0.000 C 
ATOM      4  O   UNL     1       3.595   6.613  17.684  0.00  0.00    +0.000 OA
ATOM      5  C   UNL     1       3.609   4.259  17.393  0.00  0.00    +0.000 C 
ATOM      6  C   UNL     1       2.806   3.191  17.488  0.00  0.00    +0.000 C 
ATOM      7  C   UNL     1       1.635   3.232  18.389  0.00  0.00    +0.000 C 
ATOM      8  O   UNL     1       0.707   2.453  18.226  0.00  0.00    +0.000 OA
ENDROOT
BRANCH   1  10
ATOM      9  C   UNL     1       1.625   2.986  21.593  0.00  0.00    +0.000 C 
ATOM     10  O   UNL     1       1.163   4.041  20.762  0.00  0.00    +0.000 OA
ENDBRANCH   1  10
BRANCH   5  11
ATOM     11  C   UNL     1       4.995   4.223  16.834  0.00  0.00    +0.000 C 
BRANCH  11  12
ATOM     12  O   UNL     1       5.964   4.326  17.907  0.00  0.00    +0.000 OA
BRANCH  12  13
ATOM     13  C   UNL     1       7.178   4.842  17.554  0.00  0.00    +0.000 C 
ATOM     14  C   UNL     1       7.267   6.302  17.874  0.00  0.00    +0.000 C 
ATOM     15  O   UNL     1       8.089   4.215  17.026  0.00  0.00    +0.000 OA
ENDBRANCH  12  13
ENDBRANCH  11  12
ENDBRANCH   5  11
TORSDOF 4
ENDMDL
MODEL 2
REMARK VINA RESULT:      -6.2      1.907      3.158
REMARK  Name = 
REMARK  6 active torsions:
REMARK  status: ('A' for Active; 'I' for Inactive)
REMARK    1  A    between atoms: C_1  and  O_2
REMARK    2  A    between atoms: O_2  and  C_3
REMARK    3  A    between atoms: C_7  and  C_8
REMARK    4  A    between atoms: C_8  and  O_9
REMARK    5  A    between atoms: O_9  and  C_10
REMARK    6  A    between atoms: C_10  and  C_11
REMARK                            x       y       z     vdW  Elec       q    Type
REMARK                         _______ _______ _______ _____ _____    ______ ____
ROOT
ATOM      1  C   UNL     1       3.612   4.441  18.745  0.00  0.00    +0.000 C 
ATOM      2  C   UNL     1       4.811   4.245  19.308  0.00  0.00    +0.000 C 
ATOM      3  C   UNL     1       5.922   5.180  19.068  0.00  0.00    +0.000 C 
ATOM      4  O   UNL     1       6.916   5.202  19.779  0.00  0.00    +0.000 OA
ATOM      5  C   UNL     1       5.796   6.020  17.855  0.00  0.00    +0.000 C 
ATOM      6  C   UNL     1       4.573   6.357  17.423  0.00  0.00    +0.000 C 
ATOM      7  C   UNL     1       3.381   5.754  18.056  0.00  0.00    +0.000 C 
ATOM      8  O   UNL     1       2.290   6.295  17.950  0.00  0.00    +0.000 OA
ENDROOT
BRANCH   1  10
ATOM      9  C   UNL     1       3.024   2.120  18.371  0.00  0.00    +0.000 C 
ATOM     10  O   UNL     1       2.683   3.423  18.823  0.00  0.00    +0.000 OA
ENDBRANCH   1  10
BRANCH   5  11
ATOM     11  C   UNL     1       7.055   6.251  17.082  0.00  0.00    +0.000 C 
BRANCH  11  12
ATOM     12  O   UNL     1       7.485   5.015  16.458  0.00  0.00    +0.000 OA
BRANCH  12  13
ATOM     13  C   UNL     1       7.191   4.896  15.130  0.00  0.00    +0.000 C 
ATOM     14  C   UNL     1       6.095   3.903  14.897  0.00  0.00    +0.000 C 
ATOM     15  O   UNL     1       7.749   5.502  14.222  0.00  0.00    +0.000 OA
ENDBRANCH  12  13
ENDBRANCH  11  12
ENDBRANCH   5  11
TORSDOF 4
ENDMDL
MODEL 3
REMARK VINA RESULT:      -6.1      1.729      5.648
REMARK  Name = 
REMARK  6 active torsions:
REMARK  status: ('A' for Active; 'I' for Inactive)
REMARK    1  A    between atoms: C_1  and  O_2
REMARK    2  A    between atoms: O_2  and  C_3
REMARK    3  A    between atoms: C_7  and  C_8
REMARK    4  A    between atoms: C_8  and  O_9
REMARK    5  A    between atoms: O_9  and  C_10
REMARK    6  A    between atoms: C_10  and  C_11
REMARK                            x       y       z     vdW  Elec       q    Type
REMARK                         _______ _______ _______ _____ _____    ______ ____
ROOT
ATOM      1  C   UNL     1       7.011   6.204  16.868  0.00  0.00    +0.000 C 
ATOM      2  C   UNL     1       6.593   5.794  18.072  0.00  0.00    +0.000 C 
ATOM      3  C   UNL     1       5.806   4.560  18.220  0.00  0.00    +0.000 C 
ATOM      4  O   UNL     1       5.663   4.007  19.302  0.00  0.00    +0.000 OA
ATOM      5  C   UNL     1       5.122   4.088  16.994  0.00  0.00    +0.000 C 
ATOM      6  C   UNL     1       5.672   4.357  15.802  0.00  0.00    +0.000 C 
ATOM      7  C   UNL     1       6.847   5.250  15.721  0.00  0.00    +0.000 C 
ATOM      8  O   UNL     1       7.575   5.220  14.740  0.00  0.00    +0.000 OA
ENDROOT
BRANCH   1  10
ATOM      9  C   UNL     1       8.021   8.137  17.924  0.00  0.00    +0.000 C 
ATOM     10  O   UNL     1       7.546   7.472  16.762  0.00  0.00    +0.000 OA
ENDBRANCH   1  10
BRANCH   5  11
ATOM     11  C   UNL     1       3.748   3.529  17.181  0.00  0.00    +0.000 C 
BRANCH  11  12
ATOM     12  O   UNL     1       2.828   4.588  17.542  0.00  0.00    +0.000 OA
BRANCH  12  13
ATOM     13  C   UNL     1       2.107   4.375  18.682  0.00  0.00    +0.000 C 
ATOM     14  C   UNL     1       1.231   3.168  18.560  0.00  0.00    +0.000 C 
ATOM     15  O   UNL     1       2.144   5.078  19.686  0.00  0.00    +0.000 OA
ENDBRANCH  12  13
ENDBRANCH  11  12
ENDBRANCH   5  11
TORSDOF 4
ENDMDL
MODEL 4
REMARK VINA RESULT:      -6.0      1.764      5.587
REMARK  Name = 
REMARK  6 active torsions:
REMARK  status: ('A' for Active; 'I' for Inactive)
REMARK    1  A    between atoms: C_1  and  O_2
REMARK    2  A    between atoms: O_2  and  C_3
REMARK    3  A    between atoms: C_7  and  C_8
REMARK    4  A    between atoms: C_8  and  O_9
REMARK    5  A    between atoms: O_9  and  C_10
REMARK    6  A    between atoms: C_10  and  C_11
REMARK                            x       y       z     vdW  Elec       q    Type
REMARK                         _______ _______ _______ _____ _____    ______ ____
ROOT
ATOM      1  C   UNL     1       6.495   5.317  16.563  0.00  0.00    +0.000 C 
ATOM      2  C   UNL     1       5.459   6.159  16.459  0.00  0.00    +0.000 C 
ATOM      3  C   UNL     1       4.528   6.356  17.582  0.00  0.00    +0.000 C 
ATOM      4  O   UNL     1       3.766   7.311  17.633  0.00  0.00    +0.000 OA
ATOM      5  C   UNL     1       4.510   5.274  18.592  0.00  0.00    +0.000 C 
ATOM      6  C   UNL     1       5.629   4.568  18.806  0.00  0.00    +0.000 C 
ATOM      7  C   UNL     1       6.799   4.764  17.924  0.00  0.00    +0.000 C 
ATOM      8  O   UNL     1       7.913   4.432  18.300  0.00  0.00    +0.000 OA
ENDROOT
BRANCH   1  10
ATOM      9  C   UNL     1       6.539   4.336  14.347  0.00  0.00    +0.000 C 
ATOM     10  O   UNL     1       7.196   5.004  15.415  0.00  0.00    +0.000 OA
ENDBRANCH   1  10
BRANCH   5  11
ATOM     11  C   UNL     1       3.169   4.914  19.147  0.00  0.00    +0.000 C 
BRANCH  11  12
ATOM     12  O   UNL     1       3.304   3.839  20.110  0.00  0.00    +0.000 OA
BRANCH  12  13
ATOM     13  C   UNL     1       2.228   3.646  20.928  0.00  0.00    +0.000 C 
ATOM     14  C   UNL     1       0.942   3.952  20.224  0.00  0.00    +0.000 C 
ATOM     15  O   UNL     1       2.282   3.284  22.097  0.00  0.00    +0.000 OA
ENDBRANCH  12  13
ENDBRANCH  11  12
ENDBRANCH   5  11
TORSDOF 4
ENDMDL
MODEL 5
REMARK VINA RESULT:      -6.0      1.747      5.756
REMARK  Name = 
REMARK  6 active torsions:
REMARK  status: ('A' for Active; 'I' for Inactive)
REMARK    1  A    between atoms: C_1  and  O_2
REMARK    2  A    between atoms: O_2  and  C_3
REMARK    3  A    between atoms: C_7  and  C_8
REMARK    4  A    between atoms: C_8  and  O_9
REMARK    5  A    between atoms: O_9  and  C_10
REMARK    6  A    between atoms: C_10  and  C_11
REMARK                            x       y       z     vdW  Elec       q    Type
REMARK                         _______ _______ _______ _____ _____    ______ ____
ROOT
ATOM      1  C   UNL     1       6.641   6.391  17.231  0.00  0.00    +0.000 C 
ATOM      2  C   UNL     1       6.735   5.486  18.214  0.00  0.00    +0.000 C 
ATOM      3  C   UNL     1       5.539   4.801  18.729  0.00  0.00    +0.000 C 
ATOM      4  O   UNL     1       5.614   3.782  19.400  0.00  0.00    +0.000 OA
ATOM      5  C   UNL     1       4.251   5.481  18.462  0.00  0.00    +0.000 C 
ATOM      6  C   UNL     1       4.131   6.234  17.360  0.00  0.00    +0.000 C 
ATOM      7  C   UNL     1       5.321   6.508  16.527  0.00  0.00    +0.000 C 
ATOM      8  O   UNL     1       5.189   6.859  15.364  0.00  0.00    +0.000 OA
ENDROOT
BRANCH   1  10
ATOM      9  C   UNL     1       7.943   8.399  17.612  0.00  0.00    +0.000 C 
ATOM     10  O   UNL     1       7.752   7.158  16.945  0.00  0.00    +0.000 OA
ENDBRANCH   1  10
BRANCH   5  11
ATOM     11  C   UNL     1       3.245   5.440  19.568  0.00  0.00    +0.000 C 
BRANCH  11  12
ATOM     12  O   UNL     1       1.933   5.134  19.032  0.00  0.00    +0.000 OA
BRANCH  12  13
ATOM     13  C   UNL     1       1.375   3.970  19.477  0.00  0.00    +0.000 C 
ATOM     14  C   UNL     1       1.383   2.916  18.414  0.00  0.00    +0.000 C 
ATOM     15  O   UNL     1       0.907   3.791  20.595  0.00  0.00    +0.000 OA
ENDBRANCH  12  13
ENDBRANCH  11  12
ENDBRANCH   5  11
TORSDOF 4
ENDMDL
MODEL 6
REMARK VINA RESULT:      -6.0      0.826      1.017
REMARK  Name = 
REMARK  6 active torsions:
REMARK  status: ('A' for Active; 'I' for Inactive)
REMARK    1  A    between atoms: C_1  and  O_2
REMARK    2  A    between atoms: O_2  and  C_3
REMARK    3  A    between atoms: C_7  and  C_8
REMARK    4  A    between atoms: C_8  and  O_9
REMARK    5  A    between atoms: O_9  and  C_10
REMARK    6  A    between atoms: C_10  and  C_11
REMARK                            x       y       z     vdW  Elec       q    Type
REMARK                         _______ _______ _______ _____ _____    ______ ____
ROOT
ATOM      1  C   UNL     1       1.792   4.553  19.582  0.00  0.00    +0.000 C 
ATOM      2  C   UNL     1       2.370   5.751  19.434  0.00  0.00    +0.000 C 
ATOM      3  C   UNL     1       3.167   6.064  18.237  0.00  0.00    +0.000 C 
ATOM      4  O   UNL     1       3.456   7.212  17.932  0.00  0.00    +0.000 OA
ATOM      5  C   UNL     1       3.676   4.893  17.486  0.00  0.00    +0.000 C 
ATOM      6  C   UNL     1       2.969   3.755  17.504  0.00  0.00    +0.000 C 
ATOM      7  C   UNL     1       1.796   3.635  18.396  0.00  0.00    +0.000 C 
ATOM      8  O   UNL     1       0.941   2.791  18.174  0.00  0.00    +0.000 OA
ENDROOT
BRANCH   1  10
ATOM      9  C   UNL     1       1.660   3.056  21.484  0.00  0.00    +0.000 C 
ATOM     10  O   UNL     1       1.251   4.240  20.813  0.00  0.00    +0.000 OA
ENDBRANCH   1  10
BRANCH   5  11
ATOM     11  C   UNL     1       5.061   5.016  16.937  0.00  0.00    +0.000 C 
BRANCH  11  12
ATOM     12  O   UNL     1       6.017   4.468  17.879  0.00  0.00    +0.000 OA
BRANCH  12  13
ATOM     13  C   UNL     1       6.681   5.387  18.641  0.00  0.00    +0.000 C 
ATOM     14  C   UNL     1       7.237   6.496  17.802  0.00  0.00    +0.000 C 
ATOM     15  O   UNL     1       6.830   5.326  19.856  0.00  0.00    +0.000 OA
ENDBRANCH  12  13
ENDBRANCH  11  12
ENDBRANCH   5  11
TORSDOF 4
ENDMDL
MODEL 7
REMARK VINA RESULT:      -5.9      2.178      2.724
REMARK  Name = 
REMARK  6 active torsions:
REMARK  status: ('A' for Active; 'I' for Inactive)
REMARK    1  A    between atoms: C_1  and  O_2
REMARK    2  A    between atoms: O_2  and  C_3
REMARK    3  A    between atoms: C_7  and  C_8
REMARK    4  A    between atoms: C_8  and  O_9
REMARK    5  A    between atoms: O_9  and  C_10
REMARK    6  A    between atoms: C_10  and  C_11
REMARK                            x       y       z     vdW  Elec       q    Type
REMARK                         _______ _______ _______ _____ _____    ______ ____
ROOT
ATOM      1  C   UNL     1       3.146   3.298  19.016  0.00  0.00    +0.000 C 
ATOM      2  C   UNL     1       4.348   3.507  19.566  0.00  0.00    +0.000 C 
ATOM      3  C   UNL     1       5.336   4.383  18.916  0.00  0.00    +0.000 C 
ATOM      4  O   UNL     1       6.306   4.825  19.516  0.00  0.00    +0.000 OA
ATOM      5  C   UNL     1       5.128   4.614  17.468  0.00  0.00    +0.000 C 
ATOM      6  C   UNL     1       3.881   4.583  16.980  0.00  0.00    +0.000 C 
ATOM      7  C   UNL     1       2.764   4.160  17.849  0.00  0.00    +0.000 C 
ATOM      8  O   UNL     1       1.615   4.467  17.566  0.00  0.00    +0.000 OA
ENDROOT
BRANCH   1  10
ATOM      9  C   UNL     1       1.416   2.613  20.569  0.00  0.00    +0.000 C 
ATOM     10  O   UNL     1       2.352   2.301  19.547  0.00  0.00    +0.000 OA
ENDBRANCH   1  10
BRANCH   5  11
ATOM     11  C   UNL     1       6.363   4.651  16.625  0.00  0.00    +0.000 C 
BRANCH  11  12
ATOM     12  O   UNL     1       6.162   3.871  15.420  0.00  0.00    +0.000 OA
BRANCH  12  13
ATOM     13  C   UNL     1       6.719   4.389  14.286  0.00  0.00    +0.000 C 
ATOM     14  C   UNL     1       6.194   3.713  13.058  0.00  0.00    +0.000 C 
ATOM     15  O   UNL     1       7.557   5.284  14.252  0.00  0.00    +0.000 OA
ENDBRANCH  12  13
ENDBRANCH  11  12
ENDBRANCH   5  11
TORSDOF 4
ENDMDL
MODEL 8
REMARK VINA RESULT:      -5.9      1.883      5.805
REMARK  Name = 
REMARK  6 active torsions:
REMARK  status: ('A' for Active; 'I' for Inactive)
REMARK    1  A    between atoms: C_1  and  O_2
REMARK    2  A    between atoms: O_2  and  C_3
REMARK    3  A    between atoms: C_7  and  C_8
REMARK    4  A    between atoms: C_8  and  O_9
REMARK    5  A    between atoms: O_9  and  C_10
REMARK    6  A    between atoms: C_10  and  C_11
REMARK                            x       y       z     vdW  Elec       q    Type
REMARK                         _______ _______ _______ _____ _____    ______ ____
ROOT
ATOM      1  C   UNL     1       6.344   4.728  16.684  0.00  0.00    +0.000 C 
ATOM      2  C   UNL     1       5.167   4.153  16.409  0.00  0.00    +0.000 C 
ATOM      3  C   UNL     1       4.120   4.042  17.437  0.00  0.00    +0.000 C 
ATOM      4  O   UNL     1       2.956   3.799  17.154  0.00  0.00    +0.000 OA
ATOM      5  C   UNL     1       4.588   4.149  18.838  0.00  0.00    +0.000 C 
ATOM      6  C   UNL     1       5.670   4.893  19.105  0.00  0.00    +0.000 C 
ATOM      7  C   UNL     1       6.468   5.452  17.993  0.00  0.00    +0.000 C 
ATOM      8  O   UNL     1       7.208   6.405  18.187  0.00  0.00    +0.000 OA
ENDROOT
BRANCH   1  10
ATOM      9  C   UNL     1       7.080   4.764  14.376  0.00  0.00    +0.000 C 
ATOM     10  O   UNL     1       7.361   4.604  15.759  0.00  0.00    +0.000 OA
ENDBRANCH   1  10
BRANCH   5  11
ATOM     11  C   UNL     1       3.932   3.234  19.822  0.00  0.00    +0.000 C 
BRANCH  11  12
ATOM     12  O   UNL     1       2.952   3.966  20.600  0.00  0.00    +0.000 OA
BRANCH  12  13
ATOM     13  C   UNL     1       1.894   3.231  21.053  0.00  0.00    +0.000 C 
ATOM     14  C   UNL     1       0.817   3.124  20.019  0.00  0.00    +0.000 C 
ATOM     15  O   UNL     1       1.808   2.724  22.166  0.00  0.00    +0.000 OA
ENDBRANCH  12  13
ENDBRANCH  11  12
ENDBRANCH   5  11
TORSDOF 4
ENDMDL
MODEL 9
REMARK VINA RESULT:      -5.9      1.664      5.548
REMARK  Name = 
REMARK  6 active torsions:
REMARK  status: ('A' for Active; 'I' for Inactive)
REMARK    1  A    between atoms: C_1  and  O_2
REMARK    2  A    between atoms: O_2  and  C_3
REMARK    3  A    between atoms: C_7  and  C_8
REMARK    4  A    between atoms: C_8  and  O_9
REMARK    5  A    between atoms: O_9  and  C_10
REMARK    6  A    between atoms: C_10  and  C_11
REMARK                            x       y       z     vdW  Elec       q    Type
REMARK                         _______ _______ _______ _____ _____    ______ ____
ROOT
ATOM      1  C   UNL     1       6.480   5.036  16.221  0.00  0.00    +0.000 C 
ATOM      2  C   UNL     1       5.450   5.886  16.124  0.00  0.00    +0.000 C 
ATOM      3  C   UNL     1       4.692   6.296  17.317  0.00  0.00    +0.000 C 
ATOM      4  O   UNL     1       3.956   7.272  17.313  0.00  0.00    +0.000 OA
ATOM      5  C   UNL     1       4.807   5.394  18.486  0.00  0.00    +0.000 C 
ATOM      6  C   UNL     1       5.937   4.695  18.656  0.00  0.00    +0.000 C 
ATOM      7  C   UNL     1       6.970   4.703  17.600  0.00  0.00    +0.000 C 
ATOM      8  O   UNL     1       8.123   4.398  17.866  0.00  0.00    +0.000 OA
ENDROOT
BRANCH   1  10
ATOM      9  C   UNL     1       6.135   4.039  14.039  0.00  0.00    +0.000 C 
ATOM     10  O   UNL     1       7.006   4.516  15.056  0.00  0.00    +0.000 OA
ENDBRANCH   1  10
BRANCH   5  11
ATOM     11  C   UNL     1       3.555   5.178  19.275  0.00  0.00    +0.000 C 
BRANCH  11  12
ATOM     12  O   UNL     1       3.072   3.826  19.073  0.00  0.00    +0.000 OA
BRANCH  12  13
ATOM     13  C   UNL     1       1.731   3.712  18.842  0.00  0.00    +0.000 C 
ATOM     14  C   UNL     1       0.944   3.830  20.109  0.00  0.00    +0.000 C 
ATOM     15  O   UNL     1       1.214   3.520  17.747  0.00  0.00    +0.000 OA
ENDBRANCH  12  13
ENDBRANCH  11  12
ENDBRANCH   5  11
TORSDOF 4
ENDMDL
