MODEL 1
REMARK VINA RESULT:      -6.6      0.000      0.000
REMARK  Name = 
REMARK  9 active torsions:
REMARK  status: ('A' for Active; 'I' for Inactive)
REMARK    1  A    between atoms: C_1  and  O_2
REMARK    2  A    between atoms: O_2  and  C_3
REMARK    3  A    between atoms: C_3  and  O_4
REMARK    4  A    between atoms: O_4  and  C_5
REMARK    5  A    between atoms: C_11  and  C_12
REMARK    6  A    between atoms: C_12  and  C_13
REMARK    7  A    between atoms: C_12  and  C_14
REMARK    8  A    between atoms: C_17  and  C_18
REMARK    9  A    between atoms: C_18  and  O_19
REMARK                            x       y       z     vdW  Elec       q    Type
REMARK                         _______ _______ _______ _____ _____    ______ ____
ROOT
ATOM      1  C   UNL     1       6.566   5.355  15.888  0.00  0.00    +0.000 C 
ATOM      2  C   UNL     1       6.303   3.845  15.876  0.00  0.00    +0.000 C 
ATOM      3  C   UNL     1       5.220   3.220  16.405  0.00  0.00    +0.000 C 
ATOM      4  C   UNL     1       4.350   3.860  17.463  0.00  0.00    +0.000 C 
ATOM      5  C   UNL     1       4.046   5.092  16.284  0.00  0.00    +0.000 C 
ATOM      6  C   UNL     1       5.256   6.070  16.241  0.00  0.00    +0.000 C 
ATOM      7  C   UNL     1       3.055   4.458  17.958  0.00  0.00    +0.000 C 
ATOM      8  C   UNL     1       1.920   3.744  17.856  0.00  0.00    +0.000 C 
ATOM      9  C   UNL     1       2.275   2.309  17.783  0.00  0.00    +0.000 C 
ATOM     10  C   UNL     1       3.728   2.443  18.184  0.00  0.00    +0.000 C 
ENDROOT
BRANCH   7  11
ATOM     11  C   UNL     1       3.452   5.487  19.031  0.00  0.00    +0.000 C 
ATOM     12  C   UNL     1       2.403   5.563  20.130  0.00  0.00    +0.000 C 
ATOM     13  C   UNL     1       4.925   5.280  19.556  0.00  0.00    +0.000 C 
ENDBRANCH   7  11
BRANCH   1  15
ATOM     14  C   UNL     1       7.496   6.960  17.433  0.00  0.00    +0.000 C 
ATOM     15  O   UNL     1       7.623   5.684  16.798  0.00  0.00    +0.000 OA
ENDBRANCH   1  15
BRANCH   1  16
ATOM     16  O   UNL     1       6.866   5.771  14.543  0.00  0.00    +0.000 OA
ATOM     17  C   UNL     1       7.177   4.724  13.634  0.00  0.00    +0.000 C 
ENDBRANCH   1  16
BRANCH  10  18
ATOM     18  C   UNL     1       3.846   2.340  19.784  0.00  0.00    +0.000 C 
BRANCH  18  19
ATOM     19  O   UNL     1       5.059   1.811  20.299  0.00  0.00    +0.000 OA
ATOM     20  H   UNL     1       5.736   1.901  19.597  0.00  0.00    +0.000 HD
ENDBRANCH  18  19
ENDBRANCH  10  18
TORSDOF 5
ENDMDL
MODEL 2
REMARK VINA RESULT:      -6.5      1.353      1.899
REMARK  Name = 
REMARK  9 active torsions:
REMARK  status: ('A' for Active; 'I' for Inactive)
REMARK    1  A    between atoms: C_1  and  O_2
REMARK    2  A    between atoms: O_2  and  C_3
REMARK    3  A    between atoms: C_3  and  O_4
REMARK    4  A    between atoms: O_4  and  C_5
REMARK    5  A    between atoms: C_11  and  C_12
REMARK    6  A    between atoms: C_12  and  C_13
REMARK    7  A    between atoms: C_12  and  C_14
REMARK    8  A    between atoms: C_17  and  C_18
REMARK    9  A    between atoms: C_18  and  O_19
REMARK                            x       y       z     vdW  Elec       q    Type
REMARK                         _______ _______ _______ _____ _____    ______ ____
ROOT
ATOM      1  C   UNL     1       6.633   5.828  16.310  0.00  0.00    +0.000 C 
ATOM      2  C   UNL     1       7.057   5.041  17.554  0.00  0.00    +0.000 C 
ATOM      3  C   UNL     1       6.303   4.124  18.214  0.00  0.00    +0.000 C 
ATOM      4  C   UNL     1       4.796   4.077  18.094  0.00  0.00    +0.000 C 
ATOM      5  C   UNL     1       5.068   3.798  16.407  0.00  0.00    +0.000 C 
ATOM      6  C   UNL     1       5.394   5.152  15.710  0.00  0.00    +0.000 C 
ATOM      7  C   UNL     1       3.501   3.428  17.669  0.00  0.00    +0.000 C 
ATOM      8  C   UNL     1       3.228   2.176  18.076  0.00  0.00    +0.000 C 
ATOM      9  C   UNL     1       4.005   1.904  19.306  0.00  0.00    +0.000 C 
ATOM     10  C   UNL     1       4.438   3.327  19.586  0.00  0.00    +0.000 C 
ENDROOT
BRANCH   7  11
ATOM     11  C   UNL     1       2.525   4.585  17.390  0.00  0.00    +0.000 C 
ATOM     12  C   UNL     1       1.097   4.191  17.741  0.00  0.00    +0.000 C 
ATOM     13  C   UNL     1       2.996   5.945  18.033  0.00  0.00    +0.000 C 
ENDBRANCH   7  11
BRANCH   1  15
ATOM     14  C   UNL     1       7.395   7.814  17.454  0.00  0.00    +0.000 C 
ATOM     15  O   UNL     1       6.395   7.204  16.630  0.00  0.00    +0.000 OA
ENDBRANCH   1  15
BRANCH   1  16
ATOM     16  O   UNL     1       7.659   5.679  15.311  0.00  0.00    +0.000 OA
ATOM     17  C   UNL     1       7.255   5.031  14.112  0.00  0.00    +0.000 C 
ENDBRANCH   1  16
BRANCH  10  18
ATOM     18  C   UNL     1       3.330   4.046  20.503  0.00  0.00    +0.000 C 
BRANCH  18  19
ATOM     19  O   UNL     1       2.579   3.205  21.368  0.00  0.00    +0.000 OA
ATOM     20  H   UNL     1       2.618   2.300  20.997  0.00  0.00    +0.000 HD
ENDBRANCH  18  19
ENDBRANCH  10  18
TORSDOF 5
ENDMDL
MODEL 3
REMARK VINA RESULT:      -6.4      1.674      2.053
REMARK  Name = 
REMARK  9 active torsions:
REMARK  status: ('A' for Active; 'I' for Inactive)
REMARK    1  A    between atoms: C_1  and  O_2
REMARK    2  A    between atoms: O_2  and  C_3
REMARK    3  A    between atoms: C_3  and  O_4
REMARK    4  A    between atoms: O_4  and  C_5
REMARK    5  A    between atoms: C_11  and  C_12
REMARK    6  A    between atoms: C_12  and  C_13
REMARK    7  A    between atoms: C_12  and  C_14
REMARK    8  A    between atoms: C_17  and  C_18
REMARK    9  A    between atoms: C_18  and  O_19
REMARK                            x       y       z     vdW  Elec       q    Type
REMARK                         _______ _______ _______ _____ _____    ______ ____
ROOT
ATOM      1  C   UNL     1       6.768   6.014  17.133  0.00  0.00    +0.000 C 
ATOM      2  C   UNL     1       6.449   4.596  17.614  0.00  0.00    +0.000 C 
ATOM      3  C   UNL     1       5.220   4.125  17.952  0.00  0.00    +0.000 C 
ATOM      4  C   UNL     1       4.077   5.040  18.331  0.00  0.00    +0.000 C 
ATOM      5  C   UNL     1       4.252   5.704  16.741  0.00  0.00    +0.000 C 
ATOM      6  C   UNL     1       5.454   6.694  16.728  0.00  0.00    +0.000 C 
ATOM      7  C   UNL     1       2.723   5.666  18.099  0.00  0.00    +0.000 C 
ATOM      8  C   UNL     1       1.655   4.872  17.910  0.00  0.00    +0.000 C 
ATOM      9  C   UNL     1       1.940   3.552  18.515  0.00  0.00    +0.000 C 
ATOM     10  C   UNL     1       3.177   3.953  19.290  0.00  0.00    +0.000 C 
ENDROOT
BRANCH   7  11
ATOM     11  C   UNL     1       2.786   7.055  18.760  0.00  0.00    +0.000 C 
ATOM     12  C   UNL     1       2.412   8.149  17.770  0.00  0.00    +0.000 C 
ATOM     13  C   UNL     1       1.992   7.117  20.121  0.00  0.00    +0.000 C 
ENDBRANCH   7  11
BRANCH   1  15
ATOM     14  C   UNL     1       7.857   8.077  17.758  0.00  0.00    +0.000 C 
ATOM     15  O   UNL     1       7.470   6.752  18.139  0.00  0.00    +0.000 OA
ENDBRANCH   1  15
BRANCH   1  16
ATOM     16  O   UNL     1       7.526   5.916  15.912  0.00  0.00    +0.000 OA
ATOM     17  C   UNL     1       7.161   4.847  15.050  0.00  0.00    +0.000 C 
ENDBRANCH   1  16
BRANCH  10  18
ATOM     18  C   UNL     1       2.742   4.472  20.748  0.00  0.00    +0.000 C 
BRANCH  18  19
ATOM     19  O   UNL     1       1.751   3.710  21.424  0.00  0.00    +0.000 OA
ATOM     20  H   UNL     1       0.904   3.855  20.956  0.00  0.00    +0.000 HD
ENDBRANCH  18  19
ENDBRANCH  10  18
TORSDOF 5
ENDMDL
MODEL 4
REMARK VINA RESULT:      -6.3      1.625      2.095
REMARK  Name = 
REMARK  9 active torsions:
REMARK  status: ('A' for Active; 'I' for Inactive)
REMARK    1  A    between atoms: C_1  and  O_2
REMARK    2  A    between atoms: O_2  and  C_3
REMARK    3  A    between atoms: C_3  and  O_4
REMARK    4  A    between atoms: O_4  and  C_5
REMARK    5  A    between atoms: C_11  and  C_12
REMARK    6  A    between atoms: C_12  and  C_13
REMARK    7  A    between atoms: C_12  and  C_14
REMARK    8  A    between atoms: C_17  and  C_18
REMARK    9  A    between atoms: C_18  and  O_19
REMARK                            x       y       z     vdW  Elec       q    Type
REMARK                         _______ _______ _______ _____ _____    ______ ____
ROOT
ATOM      1  C   UNL     1       6.918   5.554  17.361  0.00  0.00    +0.000 C 
ATOM      2  C   UNL     1       6.222   4.623  16.363  0.00  0.00    +0.000 C 
ATOM      3  C   UNL     1       4.917   4.249  16.398  0.00  0.00    +0.000 C 
ATOM      4  C   UNL     1       4.083   4.328  17.658  0.00  0.00    +0.000 C 
ATOM      5  C   UNL     1       4.410   6.029  17.611  0.00  0.00    +0.000 C 
ATOM      6  C   UNL     1       5.841   6.291  18.166  0.00  0.00    +0.000 C 
ATOM      7  C   UNL     1       2.956   4.890  18.489  0.00  0.00    +0.000 C 
ATOM      8  C   UNL     1       1.705   4.873  17.998  0.00  0.00    +0.000 C 
ATOM      9  C   UNL     1       1.619   3.810  16.973  0.00  0.00    +0.000 C 
ATOM     10  C   UNL     1       2.931   3.125  17.286  0.00  0.00    +0.000 C 
ENDROOT
BRANCH   7  11
ATOM     11  C   UNL     1       3.417   4.772  19.953  0.00  0.00    +0.000 C 
ATOM     12  C   UNL     1       2.226   4.676  20.895  0.00  0.00    +0.000 C 
ATOM     13  C   UNL     1       4.498   3.642  20.161  0.00  0.00    +0.000 C 
ENDBRANCH   7  11
BRANCH   1  15
ATOM     14  C   UNL     1       7.891   5.289  19.555  0.00  0.00    +0.000 C 
ATOM     15  O   UNL     1       7.817   4.823  18.204  0.00  0.00    +0.000 OA
ENDBRANCH   1  15
BRANCH   1  16
ATOM     16  O   UNL     1       7.597   6.584  16.618  0.00  0.00    +0.000 OA
ATOM     17  C   UNL     1       7.621   7.865  17.231  0.00  0.00    +0.000 C 
ENDBRANCH   1  16
BRANCH  10  18
ATOM     18  C   UNL     1       2.684   1.998  18.406  0.00  0.00    +0.000 C 
BRANCH  18  19
ATOM     19  O   UNL     1       1.338   1.596  18.617  0.00  0.00    +0.000 OA
ATOM     20  H   UNL     1       0.835   1.834  17.811  0.00  0.00    +0.000 HD
ENDBRANCH  18  19
ENDBRANCH  10  18
TORSDOF 5
ENDMDL
MODEL 5
REMARK VINA RESULT:      -6.3      1.293      1.360
REMARK  Name = 
REMARK  9 active torsions:
REMARK  status: ('A' for Active; 'I' for Inactive)
REMARK    1  A    between atoms: C_1  and  O_2
REMARK    2  A    between atoms: O_2  and  C_3
REMARK    3  A    between atoms: C_3  and  O_4
REMARK    4  A    between atoms: O_4  and  C_5
REMARK    5  A    between atoms: C_11  and  C_12
REMARK    6  A    between atoms: C_12  and  C_13
REMARK    7  A    between atoms: C_12  and  C_14
REMARK    8  A    between atoms: C_17  and  C_18
REMARK    9  A    between atoms: C_18  and  O_19
REMARK                            x       y       z     vdW  Elec       q    Type
REMARK                         _______ _______ _______ _____ _____    ______ ____
ROOT
ATOM      1  C   UNL     1       6.840   5.040  16.414  0.00  0.00    +0.000 C 
ATOM      2  C   UNL     1       5.979   3.909  15.842  0.00  0.00    +0.000 C 
ATOM      3  C   UNL     1       4.678   3.666  16.145  0.00  0.00    +0.000 C 
ATOM      4  C   UNL     1       4.027   4.186  17.407  0.00  0.00    +0.000 C 
ATOM      5  C   UNL     1       4.409   5.763  16.799  0.00  0.00    +0.000 C 
ATOM      6  C   UNL     1       5.911   6.068  17.074  0.00  0.00    +0.000 C 
ATOM      7  C   UNL     1       3.045   5.058  18.152  0.00  0.00    +0.000 C 
ATOM      8  C   UNL     1       1.739   4.992  17.841  0.00  0.00    +0.000 C 
ATOM      9  C   UNL     1       1.474   3.680  17.212  0.00  0.00    +0.000 C 
ATOM     10  C   UNL     1       2.790   3.021  17.564  0.00  0.00    +0.000 C 
ENDROOT
BRANCH   7  11
ATOM     11  C   UNL     1       3.697   5.351  19.515  0.00  0.00    +0.000 C 
ATOM     12  C   UNL     1       2.644   5.487  20.606  0.00  0.00    +0.000 C 
ATOM     13  C   UNL     1       4.860   4.344  19.862  0.00  0.00    +0.000 C 
ENDBRANCH   7  11
BRANCH   1  15
ATOM     14  C   UNL     1       7.948   5.270  18.547  0.00  0.00    +0.000 C 
ATOM     15  O   UNL     1       7.816   4.530  17.329  0.00  0.00    +0.000 OA
ENDBRANCH   1  15
BRANCH   1  16
ATOM     16  O   UNL     1       7.449   5.742  15.315  0.00  0.00    +0.000 OA
ATOM     17  C   UNL     1       7.323   5.118  14.045  0.00  0.00    +0.000 C 
ENDBRANCH   1  16
BRANCH  10  18
ATOM     18  C   UNL     1       2.655   2.306  18.998  0.00  0.00    +0.000 C 
BRANCH  18  19
ATOM     19  O   UNL     1       1.339   2.159  19.513  0.00  0.00    +0.000 OA
ATOM     20  H   UNL     1       0.774   1.844  18.779  0.00  0.00    +0.000 HD
ENDBRANCH  18  19
ENDBRANCH  10  18
TORSDOF 5
ENDMDL
MODEL 6
REMARK VINA RESULT:      -6.3      1.760      3.345
REMARK  Name = 
REMARK  9 active torsions:
REMARK  status: ('A' for Active; 'I' for Inactive)
REMARK    1  A    between atoms: C_1  and  O_2
REMARK    2  A    between atoms: O_2  and  C_3
REMARK    3  A    between atoms: C_3  and  O_4
REMARK    4  A    between atoms: O_4  and  C_5
REMARK    5  A    between atoms: C_11  and  C_12
REMARK    6  A    between atoms: C_12  and  C_13
REMARK    7  A    between atoms: C_12  and  C_14
REMARK    8  A    between atoms: C_17  and  C_18
REMARK    9  A    between atoms: C_18  and  O_19
REMARK                            x       y       z     vdW  Elec       q    Type
REMARK                         _______ _______ _______ _____ _____    ______ ____
ROOT
ATOM      1  C   UNL     1       5.550   6.238  16.935  0.00  0.00    +0.000 C 
ATOM      2  C   UNL     1       4.086   6.678  17.031  0.00  0.00    +0.000 C 
ATOM      3  C   UNL     1       3.167   6.203  17.912  0.00  0.00    +0.000 C 
ATOM      4  C   UNL     1       3.327   4.872  18.612  0.00  0.00    +0.000 C 
ATOM      5  C   UNL     1       4.777   5.544  19.280  0.00  0.00    +0.000 C 
ATOM      6  C   UNL     1       5.911   5.474  18.215  0.00  0.00    +0.000 C 
ATOM      7  C   UNL     1       3.538   4.015  19.836  0.00  0.00    +0.000 C 
ATOM      8  C   UNL     1       2.708   4.150  20.885  0.00  0.00    +0.000 C 
ATOM      9  C   UNL     1       1.432   4.722  20.401  0.00  0.00    +0.000 C 
ATOM     10  C   UNL     1       1.681   4.539  18.920  0.00  0.00    +0.000 C 
ENDROOT
BRANCH   7  11
ATOM     11  C   UNL     1       4.268   2.753  19.342  0.00  0.00    +0.000 C 
ATOM     12  C   UNL     1       4.509   1.778  20.486  0.00  0.00    +0.000 C 
ATOM     13  C   UNL     1       3.580   2.109  18.078  0.00  0.00    +0.000 C 
ENDBRANCH   7  11
BRANCH   1  15
ATOM     14  C   UNL     1       5.947   4.052  15.989  0.00  0.00    +0.000 C 
ATOM     15  O   UNL     1       5.774   5.454  15.757  0.00  0.00    +0.000 OA
ENDBRANCH   1  15
BRANCH   1  16
ATOM     16  O   UNL     1       6.377   7.417  16.960  0.00  0.00    +0.000 OA
ATOM     17  C   UNL     1       7.626   7.274  17.623  0.00  0.00    +0.000 C 
ENDBRANCH   1  16
BRANCH  10  18
ATOM     18  C   UNL     1       1.145   3.092  18.470  0.00  0.00    +0.000 C 
BRANCH  18  19
ATOM     19  O   UNL     1       0.110   2.524  19.260  0.00  0.00    +0.000 OA
ATOM     20  H   UNL     1       0.134   1.555  19.117  0.00  0.00    +0.000 HD
ENDBRANCH  18  19
ENDBRANCH  10  18
TORSDOF 5
ENDMDL
MODEL 7
REMARK VINA RESULT:      -6.3      1.579      3.102
REMARK  Name = 
REMARK  9 active torsions:
REMARK  status: ('A' for Active; 'I' for Inactive)
REMARK    1  A    between atoms: C_1  and  O_2
REMARK    2  A    between atoms: O_2  and  C_3
REMARK    3  A    between atoms: C_3  and  O_4
REMARK    4  A    between atoms: O_4  and  C_5
REMARK    5  A    between atoms: C_11  and  C_12
REMARK    6  A    between atoms: C_12  and  C_13
REMARK    7  A    between atoms: C_12  and  C_14
REMARK    8  A    between atoms: C_17  and  C_18
REMARK    9  A    between atoms: C_18  and  O_19
REMARK                            x       y       z     vdW  Elec       q    Type
REMARK                         _______ _______ _______ _____ _____    ______ ____
ROOT
ATOM      1  C   UNL     1       6.555   5.419  16.582  0.00  0.00    +0.000 C 
ATOM      2  C   UNL     1       5.224   6.145  16.364  0.00  0.00    +0.000 C 
ATOM      3  C   UNL     1       4.141   6.088  17.181  0.00  0.00    +0.000 C 
ATOM      4  C   UNL     1       3.929   4.963  18.170  0.00  0.00    +0.000 C 
ATOM      5  C   UNL     1       5.420   5.482  18.881  0.00  0.00    +0.000 C 
ATOM      6  C   UNL     1       6.609   4.935  18.037  0.00  0.00    +0.000 C 
ATOM      7  C   UNL     1       3.822   4.406  19.569  0.00  0.00    +0.000 C 
ATOM      8  C   UNL     1       2.944   4.952  20.428  0.00  0.00    +0.000 C 
ATOM      9  C   UNL     1       1.883   5.626  19.649  0.00  0.00    +0.000 C 
ATOM     10  C   UNL     1       2.229   5.042  18.296  0.00  0.00    +0.000 C 
ENDROOT
BRANCH   7  11
ATOM     11  C   UNL     1       4.296   2.945  19.474  0.00  0.00    +0.000 C 
ATOM     12  C   UNL     1       3.765   2.121  20.639  0.00  0.00    +0.000 C 
ATOM     13  C   UNL     1       4.025   2.308  18.057  0.00  0.00    +0.000 C 
ENDBRANCH   7  11
BRANCH   1  15
ATOM     14  C   UNL     1       6.735   4.736  14.273  0.00  0.00    +0.000 C 
ATOM     15  O   UNL     1       6.712   4.343  15.649  0.00  0.00    +0.000 OA
ENDBRANCH   1  15
BRANCH   1  16
ATOM     16  O   UNL     1       7.618   6.384  16.472  0.00  0.00    +0.000 OA
ATOM     17  C   UNL     1       7.572   7.453  17.407  0.00  0.00    +0.000 C 
ENDBRANCH   1  16
BRANCH  10  18
ATOM     18  C   UNL     1       1.429   3.661  18.098  0.00  0.00    +0.000 C 
BRANCH  18  19
ATOM     19  O   UNL     1       0.609   3.240  19.179  0.00  0.00    +0.000 OA
ATOM     20  H   UNL     1       0.403   4.035  19.713  0.00  0.00    +0.000 HD
ENDBRANCH  18  19
ENDBRANCH  10  18
TORSDOF 5
ENDMDL
MODEL 8
REMARK VINA RESULT:      -6.1      1.755      5.348
REMARK  Name = 
REMARK  9 active torsions:
REMARK  status: ('A' for Active; 'I' for Inactive)
REMARK    1  A    between atoms: C_1  and  O_2
REMARK    2  A    between atoms: O_2  and  C_3
REMARK    3  A    between atoms: C_3  and  O_4
REMARK    4  A    between atoms: O_4  and  C_5
REMARK    5  A    between atoms: C_11  and  C_12
REMARK    6  A    between atoms: C_12  and  C_13
REMARK    7  A    between atoms: C_12  and  C_14
REMARK    8  A    between atoms: C_17  and  C_18
REMARK    9  A    between atoms: C_18  and  O_19
REMARK                            x       y       z     vdW  Elec       q    Type
REMARK                         _______ _______ _______ _____ _____    ______ ____
ROOT
ATOM      1  C   UNL     1       2.599   3.526  19.271  0.00  0.00    +0.000 C 
ATOM      2  C   UNL     1       3.684   4.352  19.969  0.00  0.00    +0.000 C 
ATOM      3  C   UNL     1       4.559   5.195  19.362  0.00  0.00    +0.000 C 
ATOM      4  C   UNL     1       4.887   5.101  17.889  0.00  0.00    +0.000 C 
ATOM      5  C   UNL     1       3.202   5.400  17.627  0.00  0.00    +0.000 C 
ATOM      6  C   UNL     1       2.406   4.081  17.854  0.00  0.00    +0.000 C 
ATOM      7  C   UNL     1       4.876   5.625  16.474  0.00  0.00    +0.000 C 
ATOM      8  C   UNL     1       5.378   6.846  16.221  0.00  0.00    +0.000 C 
ATOM      9  C   UNL     1       6.333   7.192  17.297  0.00  0.00    +0.000 C 
ATOM     10  C   UNL     1       6.437   5.817  17.920  0.00  0.00    +0.000 C 
ENDROOT
BRANCH   7  11
ATOM     11  C   UNL     1       4.867   4.381  15.567  0.00  0.00    +0.000 C 
ATOM     12  C   UNL     1       5.657   4.629  14.291  0.00  0.00    +0.000 C 
ATOM     13  C   UNL     1       5.277   3.066  16.335  0.00  0.00    +0.000 C 
ENDBRANCH   7  11
BRANCH   1  15
ATOM     14  C   UNL     1       4.269   1.835  19.701  0.00  0.00    +0.000 C 
ATOM     15  O   UNL     1       2.940   2.134  19.263  0.00  0.00    +0.000 OA
ENDBRANCH   1  15
BRANCH   1  16
ATOM     16  O   UNL     1       1.347   3.769  19.940  0.00  0.00    +0.000 OA
ATOM     17  C   UNL     1       1.116   2.992  21.106  0.00  0.00    +0.000 C 
ENDBRANCH   1  16
BRANCH  10  18
ATOM     18  C   UNL     1       7.620   5.000  17.200  0.00  0.00    +0.000 C 
BRANCH  18  19
ATOM     19  O   UNL     1       8.264   3.999  17.976  0.00  0.00    +0.000 OA
ATOM     20  H   UNL     1       8.658   4.445  18.754  0.00  0.00    +0.000 HD
ENDBRANCH  18  19
ENDBRANCH  10  18
TORSDOF 5
ENDMDL
MODEL 9
REMARK VINA RESULT:      -6.0      1.813      3.380
REMARK  Name = 
REMARK  9 active torsions:
REMARK  status: ('A' for Active; 'I' for Inactive)
REMARK    1  A    between atoms: C_1  and  O_2
REMARK    2  A    between atoms: O_2  and  C_3
REMARK    3  A    between atoms: C_3  and  O_4
REMARK    4  A    between atoms: O_4  and  C_5
REMARK    5  A    between atoms: C_11  and  C_12
REMARK    6  A    between atoms: C_12  and  C_13
REMARK    7  A    between atoms: C_12  and  C_14
REMARK    8  A    between atoms: C_17  and  C_18
REMARK    9  A    between atoms: C_18  and  O_19
REMARK                            x       y       z     vdW  Elec       q    Type
REMARK                         _______ _______ _______ _____ _____    ______ ____
ROOT
ATOM      1  C   UNL     1       6.338   5.992  16.483  0.00  0.00    +0.000 C 
ATOM      2  C   UNL     1       5.178   6.847  17.003  0.00  0.00    +0.000 C 
ATOM      3  C   UNL     1       4.280   6.481  17.954  0.00  0.00    +0.000 C 
ATOM      4  C   UNL     1       4.019   5.034  18.308  0.00  0.00    +0.000 C 
ATOM      5  C   UNL     1       5.694   4.974  18.747  0.00  0.00    +0.000 C 
ATOM      6  C   UNL     1       6.557   4.830  17.459  0.00  0.00    +0.000 C 
ATOM      7  C   UNL     1       4.058   3.852  19.247  0.00  0.00    +0.000 C 
ATOM      8  C   UNL     1       3.496   3.959  20.463  0.00  0.00    +0.000 C 
ATOM      9  C   UNL     1       2.478   5.032  20.415  0.00  0.00    +0.000 C 
ATOM     10  C   UNL     1       2.430   5.193  18.911  0.00  0.00    +0.000 C 
ENDROOT
BRANCH   7  11
ATOM     11  C   UNL     1       4.179   2.608  18.348  0.00  0.00    +0.000 C 
ATOM     12  C   UNL     1       3.346   1.457  18.893  0.00  0.00    +0.000 C 
ATOM     13  C   UNL     1       3.918   2.930  16.826  0.00  0.00    +0.000 C 
ENDBRANCH   7  11
BRANCH   1  15
ATOM     14  C   UNL     1       7.166   4.835  14.532  0.00  0.00    +0.000 C 
ATOM     15  O   UNL     1       6.081   5.536  15.149  0.00  0.00    +0.000 OA
ENDBRANCH   1  15
BRANCH   1  16
ATOM     16  O   UNL     1       7.544   6.775  16.560  0.00  0.00    +0.000 OA
ATOM     17  C   UNL     1       7.532   7.824  17.518  0.00  0.00    +0.000 C 
ENDBRANCH   1  16
BRANCH  10  18
ATOM     18  C   UNL     1       1.329   4.190  18.307  0.00  0.00    +0.000 C 
BRANCH  18  19
ATOM     19  O   UNL     1       0.877   4.462  16.988  0.00  0.00    +0.000 OA
ATOM     20  H   UNL     1       0.085   3.907  16.833  0.00  0.00    +0.000 HD
ENDBRANCH  18  19
ENDBRANCH  10  18
TORSDOF 5
ENDMDL
