MODEL 1
REMARK VINA RESULT:      -7.0      0.000      0.000
REMARK  Name = 
REMARK  9 active torsions:
REMARK  status: ('A' for Active; 'I' for Inactive)
REMARK    1  A    between atoms: C_1  and  O_2
REMARK    2  A    between atoms: O_2  and  C_3
REMARK    3  A    between atoms: C_8  and  O_9
REMARK    4  A    between atoms: O_9  and  C_10
REMARK    5  A    between atoms: C_12  and  O_13
REMARK    6  A    between atoms: O_13  and  C_14
REMARK    7  A    between atoms: C_15  and  O_16
REMARK    8  A    between atoms: O_16  and  C_17
REMARK    9  A    between atoms: C_24  and  C_25
REMARK                            x       y       z     vdW  Elec       q    Type
REMARK                         _______ _______ _______ _____ _____    ______ ____
ROOT
ATOM      1  C   UNL     1       1.493   9.168  19.646  0.00  0.00    +0.000 A 
ATOM      2  C   UNL     1       1.466   7.908  20.238  0.00  0.00    +0.000 A 
ATOM      3  C   UNL     1       2.035   6.792  19.605  0.00  0.00    +0.000 A 
ATOM      4  C   UNL     1       2.589   6.909  18.323  0.00  0.00    +0.000 A 
ATOM      5  C   UNL     1       2.360   8.106  17.644  0.00  0.00    +0.000 A 
ATOM      6  C   UNL     1       1.906   9.262  18.306  0.00  0.00    +0.000 A 
ATOM      7  C   UNL     1       3.415   5.795  17.790  0.00  0.00    +0.000 A 
ATOM      8  C   UNL     1       4.481   5.969  16.863  0.00  0.00    +0.000 A 
ATOM      9  C   UNL     1       5.163   4.854  16.329  0.00  0.00    +0.000 A 
ATOM     10  C   UNL     1       4.825   3.569  16.761  0.00  0.00    +0.000 A 
ATOM     11  C   UNL     1       3.839   3.369  17.733  0.00  0.00    +0.000 A 
ATOM     12  C   UNL     1       3.164   4.478  18.282  0.00  0.00    +0.000 A 
ATOM     13  C   UNL     1       2.114   4.281  19.399  0.00  0.00    +0.000 C 
ATOM     14  C   UNL     1       2.138   5.487  20.352  0.00  0.00    +0.000 C 
ATOM     15  N   UNL     1       2.232   2.930  20.025  0.00  0.00    +0.000 N 
ATOM     16  C   UNL     1       2.203   2.731  21.399  0.00  0.00    +0.000 C 
ATOM     17  C   UNL     1       2.395   1.350  21.978  0.00  0.00    +0.000 C 
ATOM     18  O   UNL     1       2.038   3.640  22.209  0.00  0.00    +0.000 OA
ATOM     19  C   UNL     1       2.283   1.864  19.027  0.00  0.00    +0.000 C 
ATOM     20  C   UNL     1       3.566   1.965  18.209  0.00  0.00    +0.000 C 
ENDROOT
BRANCH   1  22
ATOM     21  C   UNL     1      -0.290  10.552  20.380  0.00  0.00    +0.000 C 
ATOM     22  O   UNL     1       1.115  10.289  20.333  0.00  0.00    +0.000 OA
ENDBRANCH   1  22
BRANCH   6  23
ATOM     23  O   UNL     1       2.020  10.378  17.518  0.00  0.00    +0.000 OA
ATOM     24  C   UNL     1       2.519  11.583  18.073  0.00  0.00    +0.000 C 
ENDBRANCH   6  23
BRANCH   8  25
ATOM     25  O   UNL     1       4.868   7.204  16.378  0.00  0.00    +0.000 OA
ATOM     26  C   UNL     1       6.009   7.772  17.030  0.00  0.00    +0.000 C 
ENDBRANCH   8  25
BRANCH   9  27
ATOM     27  O   UNL     1       6.149   5.103  15.400  0.00  0.00    +0.000 OA
ATOM     28  C   UNL     1       6.392   4.098  14.421  0.00  0.00    +0.000 C 
ENDBRANCH   9  27
TORSDOF 4
ENDMDL
MODEL 2
REMARK VINA RESULT:      -6.4      7.192      9.954
REMARK  Name = 
REMARK  9 active torsions:
REMARK  status: ('A' for Active; 'I' for Inactive)
REMARK    1  A    between atoms: C_1  and  O_2
REMARK    2  A    between atoms: O_2  and  C_3
REMARK    3  A    between atoms: C_8  and  O_9
REMARK    4  A    between atoms: O_9  and  C_10
REMARK    5  A    between atoms: C_12  and  O_13
REMARK    6  A    between atoms: O_13  and  C_14
REMARK    7  A    between atoms: C_15  and  O_16
REMARK    8  A    between atoms: O_16  and  C_17
REMARK    9  A    between atoms: C_24  and  C_25
REMARK                            x       y       z     vdW  Elec       q    Type
REMARK                         _______ _______ _______ _____ _____    ______ ____
ROOT
ATOM      1  C   UNL     1      -0.146  14.340  21.801  0.00  0.00    +0.000 A 
ATOM      2  C   UNL     1      -1.445  14.099  22.244  0.00  0.00    +0.000 A 
ATOM      3  C   UNL     1      -2.400  13.496  21.410  0.00  0.00    +0.000 A 
ATOM      4  C   UNL     1      -2.085  13.181  20.082  0.00  0.00    +0.000 A 
ATOM      5  C   UNL     1      -0.880  13.678  19.584  0.00  0.00    +0.000 A 
ATOM      6  C   UNL     1       0.129  14.170  20.434  0.00  0.00    +0.000 A 
ATOM      7  C   UNL     1      -3.007  12.311  19.309  0.00  0.00    +0.000 A 
ATOM      8  C   UNL     1      -2.591  11.444  18.259  0.00  0.00    +0.000 A 
ATOM      9  C   UNL     1      -3.537  10.715  17.506  0.00  0.00    +0.000 A 
ATOM     10  C   UNL     1      -4.892  10.801  17.836  0.00  0.00    +0.000 A 
ATOM     11  C   UNL     1      -5.326  11.578  18.915  0.00  0.00    +0.000 A 
ATOM     12  C   UNL     1      -4.387  12.296  19.680  0.00  0.00    +0.000 A 
ATOM     13  C   UNL     1      -4.841  13.113  20.912  0.00  0.00    +0.000 C 
ATOM     14  C   UNL     1      -3.736  13.096  21.982  0.00  0.00    +0.000 C 
ATOM     15  N   UNL     1      -6.209  12.712  21.356  0.00  0.00    +0.000 N 
ATOM     16  C   UNL     1      -6.533  12.487  22.688  0.00  0.00    +0.000 C 
ATOM     17  C   UNL     1      -7.916  12.018  23.072  0.00  0.00    +0.000 C 
ATOM     18  O   UNL     1      -5.737  12.639  23.611  0.00  0.00    +0.000 OA
ATOM     19  C   UNL     1      -7.161  12.682  20.247  0.00  0.00    +0.000 C 
ATOM     20  C   UNL     1      -6.793  11.576  19.265  0.00  0.00    +0.000 C 
ENDROOT
BRANCH   1  22
ATOM     21  C   UNL     1       1.073  16.158  22.719  0.00  0.00    +0.000 C 
ATOM     22  O   UNL     1       0.838  14.748  22.660  0.00  0.00    +0.000 OA
ENDBRANCH   1  22
BRANCH   6  23
ATOM     23  O   UNL     1       1.317  14.338  19.769  0.00  0.00    +0.000 OA
ATOM     24  C   UNL     1       2.341  13.368  19.902  0.00  0.00    +0.000 C 
ENDBRANCH   6  23
BRANCH   8  25
ATOM     25  O   UNL     1      -1.273  11.313  17.865  0.00  0.00    +0.000 OA
ATOM     26  C   UNL     1      -0.530  10.320  18.580  0.00  0.00    +0.000 C 
ENDBRANCH   8  25
BRANCH   9  27
ATOM     27  O   UNL     1      -3.059   9.938  16.474  0.00  0.00    +0.000 OA
ATOM     28  C   UNL     1      -3.099  10.495  15.165  0.00  0.00    +0.000 C 
ENDBRANCH   9  27
TORSDOF 4
ENDMDL
MODEL 3
REMARK VINA RESULT:      -6.2      5.976     10.433
REMARK  Name = 
REMARK  9 active torsions:
REMARK  status: ('A' for Active; 'I' for Inactive)
REMARK    1  A    between atoms: C_1  and  O_2
REMARK    2  A    between atoms: O_2  and  C_3
REMARK    3  A    between atoms: C_8  and  O_9
REMARK    4  A    between atoms: O_9  and  C_10
REMARK    5  A    between atoms: C_12  and  O_13
REMARK    6  A    between atoms: O_13  and  C_14
REMARK    7  A    between atoms: C_15  and  O_16
REMARK    8  A    between atoms: O_16  and  C_17
REMARK    9  A    between atoms: C_24  and  C_25
REMARK                            x       y       z     vdW  Elec       q    Type
REMARK                         _______ _______ _______ _____ _____    ______ ____
ROOT
ATOM      1  C   UNL     1      -2.158  10.354  17.469  0.00  0.00    +0.000 A 
ATOM      2  C   UNL     1      -3.170  11.043  18.133  0.00  0.00    +0.000 A 
ATOM      3  C   UNL     1      -2.906  11.791  19.290  0.00  0.00    +0.000 A 
ATOM      4  C   UNL     1      -1.620  11.808  19.847  0.00  0.00    +0.000 A 
ATOM      5  C   UNL     1      -0.697  10.899  19.330  0.00  0.00    +0.000 A 
ATOM      6  C   UNL     1      -0.908  10.241  18.103  0.00  0.00    +0.000 A 
ATOM      7  C   UNL     1      -1.303  12.806  20.901  0.00  0.00    +0.000 A 
ATOM      8  C   UNL     1      -0.005  13.349  21.117  0.00  0.00    +0.000 A 
ATOM      9  C   UNL     1       0.240  14.224  22.198  0.00  0.00    +0.000 A 
ATOM     10  C   UNL     1      -0.817  14.608  23.026  0.00  0.00    +0.000 A 
ATOM     11  C   UNL     1      -2.121  14.159  22.789  0.00  0.00    +0.000 A 
ATOM     12  C   UNL     1      -2.376  13.297  21.705  0.00  0.00    +0.000 A 
ATOM     13  C   UNL     1      -3.820  12.839  21.393  0.00  0.00    +0.000 C 
ATOM     14  C   UNL     1      -3.990  12.659  19.875  0.00  0.00    +0.000 C 
ATOM     15  N   UNL     1      -4.826  13.700  22.083  0.00  0.00    +0.000 N 
ATOM     16  C   UNL     1      -5.957  14.195  21.447  0.00  0.00    +0.000 C 
ATOM     17  C   UNL     1      -6.905  15.117  22.176  0.00  0.00    +0.000 C 
ATOM     18  O   UNL     1      -6.245  13.932  20.282  0.00  0.00    +0.000 OA
ATOM     19  C   UNL     1      -4.522  13.871  23.503  0.00  0.00    +0.000 C 
ATOM     20  C   UNL     1      -3.231  14.663  23.677  0.00  0.00    +0.000 C 
ENDROOT
BRANCH   1  22
ATOM     21  C   UNL     1      -2.942  10.631  15.247  0.00  0.00    +0.000 C 
ATOM     22  O   UNL     1      -2.365   9.783  16.243  0.00  0.00    +0.000 OA
ENDBRANCH   1  22
BRANCH   6  23
ATOM     23  O   UNL     1       0.231   9.624  17.654  0.00  0.00    +0.000 OA
ATOM     24  C   UNL     1       1.410   9.667  18.440  0.00  0.00    +0.000 C 
ENDBRANCH   6  23
BRANCH   8  25
ATOM     25  O   UNL     1       1.094  13.010  20.351  0.00  0.00    +0.000 OA
ATOM     26  C   UNL     1       1.300  13.838  19.202  0.00  0.00    +0.000 C 
ENDBRANCH   8  25
BRANCH   9  27
ATOM     27  O   UNL     1       1.534  14.666  22.370  0.00  0.00    +0.000 OA
ATOM     28  C   UNL     1       1.758  16.070  22.306  0.00  0.00    +0.000 C 
ENDBRANCH   9  27
TORSDOF 4
ENDMDL
MODEL 4
REMARK VINA RESULT:      -6.2      7.215      9.999
REMARK  Name = 
REMARK  9 active torsions:
REMARK  status: ('A' for Active; 'I' for Inactive)
REMARK    1  A    between atoms: C_1  and  O_2
REMARK    2  A    between atoms: O_2  and  C_3
REMARK    3  A    between atoms: C_8  and  O_9
REMARK    4  A    between atoms: O_9  and  C_10
REMARK    5  A    between atoms: C_12  and  O_13
REMARK    6  A    between atoms: O_13  and  C_14
REMARK    7  A    between atoms: C_15  and  O_16
REMARK    8  A    between atoms: O_16  and  C_17
REMARK    9  A    between atoms: C_24  and  C_25
REMARK                            x       y       z     vdW  Elec       q    Type
REMARK                         _______ _______ _______ _____ _____    ______ ____
ROOT
ATOM      1  C   UNL     1      -5.385  14.434  22.092  0.00  0.00    +0.000 A 
ATOM      2  C   UNL     1      -3.996  14.465  22.002  0.00  0.00    +0.000 A 
ATOM      3  C   UNL     1      -3.299  13.586  21.158  0.00  0.00    +0.000 A 
ATOM      4  C   UNL     1      -3.987  12.606  20.431  0.00  0.00    +0.000 A 
ATOM      5  C   UNL     1      -5.333  12.416  20.745  0.00  0.00    +0.000 A 
ATOM      6  C   UNL     1      -6.064  13.362  21.489  0.00  0.00    +0.000 A 
ATOM      7  C   UNL     1      -3.274  11.873  19.353  0.00  0.00    +0.000 A 
ATOM      8  C   UNL     1      -3.910  11.344  18.195  0.00  0.00    +0.000 A 
ATOM      9  C   UNL     1      -3.183  10.579  17.258  0.00  0.00    +0.000 A 
ATOM     10  C   UNL     1      -1.811  10.390  17.440  0.00  0.00    +0.000 A 
ATOM     11  C   UNL     1      -1.139  10.967  18.523  0.00  0.00    +0.000 A 
ATOM     12  C   UNL     1      -1.855  11.744  19.454  0.00  0.00    +0.000 A 
ATOM     13  C   UNL     1      -1.119  12.438  20.624  0.00  0.00    +0.000 C 
ATOM     14  C   UNL     1      -1.816  13.767  20.959  0.00  0.00    +0.000 C 
ATOM     15  N   UNL     1       0.353  12.496  20.383  0.00  0.00    +0.000 N 
ATOM     16  C   UNL     1       1.108  13.641  20.600  0.00  0.00    +0.000 C 
ATOM     17  C   UNL     1       2.583  13.661  20.275  0.00  0.00    +0.000 C 
ATOM     18  O   UNL     1       0.638  14.685  21.046  0.00  0.00    +0.000 OA
ATOM     19  C   UNL     1       0.898  11.197  19.991  0.00  0.00    +0.000 C 
ATOM     20  C   UNL     1       0.354  10.785  18.628  0.00  0.00    +0.000 C 
ENDROOT
BRANCH   1  22
ATOM     21  C   UNL     1      -5.447  15.940  23.926  0.00  0.00    +0.000 C 
ATOM     22  O   UNL     1      -6.080  15.405  22.760  0.00  0.00    +0.000 OA
ENDBRANCH   1  22
BRANCH   6  23
ATOM     23  O   UNL     1      -7.412  13.117  21.438  0.00  0.00    +0.000 OA
ATOM     24  C   UNL     1      -7.916  11.866  21.874  0.00  0.00    +0.000 C 
ENDBRANCH   6  23
BRANCH   8  25
ATOM     25  O   UNL     1      -5.264  11.477  17.949  0.00  0.00    +0.000 OA
ATOM     26  C   UNL     1      -5.613  12.578  17.104  0.00  0.00    +0.000 C 
ENDBRANCH   8  25
BRANCH   9  27
ATOM     27  O   UNL     1      -3.882  10.059  16.190  0.00  0.00    +0.000 OA
ATOM     28  C   UNL     1      -3.359  10.301  14.888  0.00  0.00    +0.000 C 
ENDBRANCH   9  27
TORSDOF 4
ENDMDL
MODEL 5
REMARK VINA RESULT:      -6.2      1.931      4.958
REMARK  Name = 
REMARK  9 active torsions:
REMARK  status: ('A' for Active; 'I' for Inactive)
REMARK    1  A    between atoms: C_1  and  O_2
REMARK    2  A    between atoms: O_2  and  C_3
REMARK    3  A    between atoms: C_8  and  O_9
REMARK    4  A    between atoms: O_9  and  C_10
REMARK    5  A    between atoms: C_12  and  O_13
REMARK    6  A    between atoms: O_13  and  C_14
REMARK    7  A    between atoms: C_15  and  O_16
REMARK    8  A    between atoms: O_16  and  C_17
REMARK    9  A    between atoms: C_24  and  C_25
REMARK                            x       y       z     vdW  Elec       q    Type
REMARK                         _______ _______ _______ _____ _____    ______ ____
ROOT
ATOM      1  C   UNL     1       1.121   9.484  18.643  0.00  0.00    +0.000 A 
ATOM      2  C   UNL     1       2.095   9.023  17.761  0.00  0.00    +0.000 A 
ATOM      3  C   UNL     1       2.851   7.874  18.043  0.00  0.00    +0.000 A 
ATOM      4  C   UNL     1       2.687   7.198  19.260  0.00  0.00    +0.000 A 
ATOM      5  C   UNL     1       1.913   7.829  20.233  0.00  0.00    +0.000 A 
ATOM      6  C   UNL     1       1.059   8.905  19.922  0.00  0.00    +0.000 A 
ATOM      7  C   UNL     1       3.292   5.851  19.423  0.00  0.00    +0.000 A 
ATOM      8  C   UNL     1       2.756   4.836  20.265  0.00  0.00    +0.000 A 
ATOM      9  C   UNL     1       3.437   3.611  20.442  0.00  0.00    +0.000 A 
ATOM     10  C   UNL     1       4.618   3.372  19.735  0.00  0.00    +0.000 A 
ATOM     11  C   UNL     1       5.126   4.315  18.836  0.00  0.00    +0.000 A 
ATOM     12  C   UNL     1       4.445   5.533  18.643  0.00  0.00    +0.000 A 
ATOM     13  C   UNL     1       4.959   6.562  17.609  0.00  0.00    +0.000 C 
ATOM     14  C   UNL     1       3.769   7.312  16.988  0.00  0.00    +0.000 C 
ATOM     15  N   UNL     1       5.929   5.941  16.659  0.00  0.00    +0.000 N 
ATOM     16  C   UNL     1       5.877   6.148  15.287  0.00  0.00    +0.000 C 
ATOM     17  C   UNL     1       6.843   5.440  14.367  0.00  0.00    +0.000 C 
ATOM     18  O   UNL     1       5.059   6.888  14.746  0.00  0.00    +0.000 OA
ATOM     19  C   UNL     1       6.970   5.184  17.351  0.00  0.00    +0.000 C 
ATOM     20  C   UNL     1       6.367   3.971  18.051  0.00  0.00    +0.000 C 
ENDROOT
BRANCH   1  22
ATOM     21  C   UNL     1      -1.021  10.061  17.803  0.00  0.00    +0.000 C 
ATOM     22  O   UNL     1       0.254  10.482  18.293  0.00  0.00    +0.000 OA
ENDBRANCH   1  22
BRANCH   6  23
ATOM     23  O   UNL     1       0.196   9.183  20.951  0.00  0.00    +0.000 OA
ATOM     24  C   UNL     1       0.705   9.411  22.254  0.00  0.00    +0.000 C 
ENDBRANCH   6  23
BRANCH   8  25
ATOM     25  O   UNL     1       1.602   4.999  21.006  0.00  0.00    +0.000 OA
ATOM     26  C   UNL     1       0.407   4.552  20.358  0.00  0.00    +0.000 C 
ENDBRANCH   8  25
BRANCH   9  27
ATOM     27  O   UNL     1       2.880   2.700  21.313  0.00  0.00    +0.000 OA
ATOM     28  C   UNL     1       2.103   1.649  20.749  0.00  0.00    +0.000 C 
ENDBRANCH   9  27
TORSDOF 4
ENDMDL
MODEL 6
REMARK VINA RESULT:      -6.1      6.995      9.713
REMARK  Name = 
REMARK  9 active torsions:
REMARK  status: ('A' for Active; 'I' for Inactive)
REMARK    1  A    between atoms: C_1  and  O_2
REMARK    2  A    between atoms: O_2  and  C_3
REMARK    3  A    between atoms: C_8  and  O_9
REMARK    4  A    between atoms: O_9  and  C_10
REMARK    5  A    between atoms: C_12  and  O_13
REMARK    6  A    between atoms: O_13  and  C_14
REMARK    7  A    between atoms: C_15  and  O_16
REMARK    8  A    between atoms: O_16  and  C_17
REMARK    9  A    between atoms: C_24  and  C_25
REMARK                            x       y       z     vdW  Elec       q    Type
REMARK                         _______ _______ _______ _____ _____    ______ ____
ROOT
ATOM      1  C   UNL     1       1.233  13.695  21.128  0.00  0.00    +0.000 A 
ATOM      2  C   UNL     1       0.036  13.681  21.840  0.00  0.00    +0.000 A 
ATOM      3  C   UNL     1      -1.169  13.295  21.234  0.00  0.00    +0.000 A 
ATOM      4  C   UNL     1      -1.208  12.975  19.870  0.00  0.00    +0.000 A 
ATOM      5  C   UNL     1      -0.064  13.259  19.124  0.00  0.00    +0.000 A 
ATOM      6  C   UNL     1       1.176  13.525  19.734  0.00  0.00    +0.000 A 
ATOM      7  C   UNL     1      -2.420  12.318  19.317  0.00  0.00    +0.000 A 
ATOM      8  C   UNL     1      -2.405  11.428  18.207  0.00  0.00    +0.000 A 
ATOM      9  C   UNL     1      -3.609  10.913  17.678  0.00  0.00    +0.000 A 
ATOM     10  C   UNL     1      -4.823  11.235  18.291  0.00  0.00    +0.000 A 
ATOM     11  C   UNL     1      -4.864  12.039  19.434  0.00  0.00    +0.000 A 
ATOM     12  C   UNL     1      -3.667  12.545  19.976  0.00  0.00    +0.000 A 
ATOM     13  C   UNL     1      -3.688  13.386  21.273  0.00  0.00    +0.000 C 
ATOM     14  C   UNL     1      -2.405  13.128  22.081  0.00  0.00    +0.000 C 
ATOM     15  N   UNL     1      -4.981  13.229  22.003  0.00  0.00    +0.000 N 
ATOM     16  C   UNL     1      -5.053  13.020  23.374  0.00  0.00    +0.000 C 
ATOM     17  C   UNL     1      -6.386  12.800  24.048  0.00  0.00    +0.000 C 
ATOM     18  O   UNL     1      -4.065  12.989  24.104  0.00  0.00    +0.000 OA
ATOM     19  C   UNL     1      -6.135  13.414  21.124  0.00  0.00    +0.000 C 
ATOM     20  C   UNL     1      -6.198  12.295  20.091  0.00  0.00    +0.000 C 
ENDROOT
BRANCH   1  22
ATOM     21  C   UNL     1       2.774  15.237  22.065  0.00  0.00    +0.000 C 
ATOM     22  O   UNL     1       2.435  13.883  21.753  0.00  0.00    +0.000 OA
ENDBRANCH   1  22
BRANCH   6  23
ATOM     23  O   UNL     1       2.206  13.496  18.829  0.00  0.00    +0.000 OA
ATOM     24  C   UNL     1       2.730  14.712  18.322  0.00  0.00    +0.000 C 
ENDBRANCH   6  23
BRANCH   8  25
ATOM     25  O   UNL     1      -1.249  11.071  17.539  0.00  0.00    +0.000 OA
ATOM     26  C   UNL     1      -0.577   9.927  18.077  0.00  0.00    +0.000 C 
ENDBRANCH   8  25
BRANCH   9  27
ATOM     27  O   UNL     1      -3.514  10.098  16.571  0.00  0.00    +0.000 OA
ATOM     28  C   UNL     1      -3.602  10.721  15.293  0.00  0.00    +0.000 C 
ENDBRANCH   9  27
TORSDOF 4
ENDMDL
MODEL 7
REMARK VINA RESULT:      -6.1      8.075     11.019
REMARK  Name = 
REMARK  9 active torsions:
REMARK  status: ('A' for Active; 'I' for Inactive)
REMARK    1  A    between atoms: C_1  and  O_2
REMARK    2  A    between atoms: O_2  and  C_3
REMARK    3  A    between atoms: C_8  and  O_9
REMARK    4  A    between atoms: O_9  and  C_10
REMARK    5  A    between atoms: C_12  and  O_13
REMARK    6  A    between atoms: O_13  and  C_14
REMARK    7  A    between atoms: C_15  and  O_16
REMARK    8  A    between atoms: O_16  and  C_17
REMARK    9  A    between atoms: C_24  and  C_25
REMARK                            x       y       z     vdW  Elec       q    Type
REMARK                         _______ _______ _______ _____ _____    ______ ____
ROOT
ATOM      1  C   UNL     1      -3.322  10.723  17.182  0.00  0.00    +0.000 A 
ATOM      2  C   UNL     1      -2.088  11.205  17.611  0.00  0.00    +0.000 A 
ATOM      3  C   UNL     1      -1.974  11.994  18.766  0.00  0.00    +0.000 A 
ATOM      4  C   UNL     1      -3.117  12.372  19.483  0.00  0.00    +0.000 A 
ATOM      5  C   UNL     1      -4.351  12.112  18.886  0.00  0.00    +0.000 A 
ATOM      6  C   UNL     1      -4.480  11.222  17.803  0.00  0.00    +0.000 A 
ATOM      7  C   UNL     1      -2.956  12.971  20.833  0.00  0.00    +0.000 A 
ATOM      8  C   UNL     1      -3.916  12.848  21.877  0.00  0.00    +0.000 A 
ATOM      9  C   UNL     1      -3.738  13.522  23.104  0.00  0.00    +0.000 A 
ATOM     10  C   UNL     1      -2.577  14.270  23.317  0.00  0.00    +0.000 A 
ATOM     11  C   UNL     1      -1.576  14.342  22.343  0.00  0.00    +0.000 A 
ATOM     12  C   UNL     1      -1.739  13.661  21.122  0.00  0.00    +0.000 A 
ATOM     13  C   UNL     1      -0.617  13.681  20.058  0.00  0.00    +0.000 C 
ATOM     14  C   UNL     1      -0.606  12.348  19.290  0.00  0.00    +0.000 C 
ATOM     15  N   UNL     1       0.681  14.127  20.644  0.00  0.00    +0.000 N 
ATOM     16  C   UNL     1       1.884  13.480  20.392  0.00  0.00    +0.000 C 
ATOM     17  C   UNL     1       3.156  13.935  21.067  0.00  0.00    +0.000 C 
ATOM     18  O   UNL     1       1.987  12.517  19.636  0.00  0.00    +0.000 OA
ATOM     19  C   UNL     1       0.540  15.357  21.420  0.00  0.00    +0.000 C 
ATOM     20  C   UNL     1      -0.315  15.108  22.658  0.00  0.00    +0.000 C 
ENDROOT
BRANCH   1  22
ATOM     21  C   UNL     1      -3.030  10.252  14.875  0.00  0.00    +0.000 C 
ATOM     22  O   UNL     1      -3.420   9.802  16.175  0.00  0.00    +0.000 OA
ENDBRANCH   1  22
BRANCH   6  23
ATOM     23  O   UNL     1      -5.791  10.901  17.562  0.00  0.00    +0.000 OA
ATOM     24  C   UNL     1      -6.729  10.931  18.625  0.00  0.00    +0.000 C 
ENDBRANCH   6  23
BRANCH   8  25
ATOM     25  O   UNL     1      -5.094  12.138  21.741  0.00  0.00    +0.000 OA
ATOM     26  C   UNL     1      -6.266  12.947  21.594  0.00  0.00    +0.000 C 
ENDBRANCH   8  25
BRANCH   9  27
ATOM     27  O   UNL     1      -4.737  13.394  24.045  0.00  0.00    +0.000 OA
ATOM     28  C   UNL     1      -4.576  12.380  25.032  0.00  0.00    +0.000 C 
ENDBRANCH   9  27
TORSDOF 4
ENDMDL
MODEL 8
REMARK VINA RESULT:      -6.0      5.428      8.950
REMARK  Name = 
REMARK  9 active torsions:
REMARK  status: ('A' for Active; 'I' for Inactive)
REMARK    1  A    between atoms: C_1  and  O_2
REMARK    2  A    between atoms: O_2  and  C_3
REMARK    3  A    between atoms: C_8  and  O_9
REMARK    4  A    between atoms: O_9  and  C_10
REMARK    5  A    between atoms: C_12  and  O_13
REMARK    6  A    between atoms: O_13  and  C_14
REMARK    7  A    between atoms: C_15  and  O_16
REMARK    8  A    between atoms: O_16  and  C_17
REMARK    9  A    between atoms: C_24  and  C_25
REMARK                            x       y       z     vdW  Elec       q    Type
REMARK                         _______ _______ _______ _____ _____    ______ ____
ROOT
ATOM      1  C   UNL     1      -1.646  14.978  22.998  0.00  0.00    +0.000 A 
ATOM      2  C   UNL     1      -2.740  14.440  22.327  0.00  0.00    +0.000 A 
ATOM      3  C   UNL     1      -2.576  13.509  21.289  0.00  0.00    +0.000 A 
ATOM      4  C   UNL     1      -1.293  13.147  20.857  0.00  0.00    +0.000 A 
ATOM      5  C   UNL     1      -0.226  13.898  21.352  0.00  0.00    +0.000 A 
ATOM      6  C   UNL     1      -0.364  14.739  22.472  0.00  0.00    +0.000 A 
ATOM      7  C   UNL     1      -1.138  11.976  19.956  0.00  0.00    +0.000 A 
ATOM      8  C   UNL     1       0.018  11.147  19.921  0.00  0.00    +0.000 A 
ATOM      9  C   UNL     1       0.132  10.107  18.973  0.00  0.00    +0.000 A 
ATOM     10  C   UNL     1      -0.929   9.852  18.100  0.00  0.00    +0.000 A 
ATOM     11  C   UNL     1      -2.113  10.595  18.165  0.00  0.00    +0.000 A 
ATOM     12  C   UNL     1      -2.240  11.624  19.117  0.00  0.00    +0.000 A 
ATOM     13  C   UNL     1      -3.562  12.416  19.243  0.00  0.00    +0.000 C 
ATOM     14  C   UNL     1      -3.786  12.823  20.709  0.00  0.00    +0.000 C 
ATOM     15  N   UNL     1      -4.688  11.707  18.566  0.00  0.00    +0.000 N 
ATOM     16  C   UNL     1      -5.939  11.550  19.147  0.00  0.00    +0.000 C 
ATOM     17  C   UNL     1      -7.020  10.765  18.444  0.00  0.00    +0.000 C 
ATOM     18  O   UNL     1      -6.236  12.017  20.244  0.00  0.00    +0.000 OA
ATOM     19  C   UNL     1      -4.339  11.292  17.208  0.00  0.00    +0.000 C 
ATOM     20  C   UNL     1      -3.248  10.228  17.243  0.00  0.00    +0.000 C 
ENDROOT
BRANCH   1  22
ATOM     21  C   UNL     1      -2.346  15.059  25.264  0.00  0.00    +0.000 C 
ATOM     22  O   UNL     1      -1.799  15.734  24.128  0.00  0.00    +0.000 OA
ENDBRANCH   1  22
BRANCH   6  23
ATOM     23  O   UNL     1       0.852  15.153  22.950  0.00  0.00    +0.000 OA
ATOM     24  C   UNL     1       1.359  16.424  22.578  0.00  0.00    +0.000 C 
ENDBRANCH   6  23
BRANCH   8  25
ATOM     25  O   UNL     1       1.113  11.341  20.742  0.00  0.00    +0.000 OA
ATOM     26  C   UNL     1       1.107  10.559  21.941  0.00  0.00    +0.000 C 
ENDBRANCH   8  25
BRANCH   9  27
ATOM     27  O   UNL     1       1.303   9.381  18.970  0.00  0.00    +0.000 OA
ATOM     28  C   UNL     1       1.958   9.205  17.718  0.00  0.00    +0.000 C 
ENDBRANCH   9  27
TORSDOF 4
ENDMDL
MODEL 9
REMARK VINA RESULT:      -5.9      7.123     10.799
REMARK  Name = 
REMARK  9 active torsions:
REMARK  status: ('A' for Active; 'I' for Inactive)
REMARK    1  A    between atoms: C_1  and  O_2
REMARK    2  A    between atoms: O_2  and  C_3
REMARK    3  A    between atoms: C_8  and  O_9
REMARK    4  A    between atoms: O_9  and  C_10
REMARK    5  A    between atoms: C_12  and  O_13
REMARK    6  A    between atoms: O_13  and  C_14
REMARK    7  A    between atoms: C_15  and  O_16
REMARK    8  A    between atoms: O_16  and  C_17
REMARK    9  A    between atoms: C_24  and  C_25
REMARK                            x       y       z     vdW  Elec       q    Type
REMARK                         _______ _______ _______ _____ _____    ______ ____
ROOT
ATOM      1  C   UNL     1      -3.625  14.250  24.068  0.00  0.00    +0.000 A 
ATOM      2  C   UNL     1      -2.515  13.923  23.293  0.00  0.00    +0.000 A 
ATOM      3  C   UNL     1      -2.655  13.294  22.046  0.00  0.00    +0.000 A 
ATOM      4  C   UNL     1      -3.922  12.919  21.578  0.00  0.00    +0.000 A 
ATOM      5  C   UNL     1      -4.979  13.006  22.484  0.00  0.00    +0.000 A 
ATOM      6  C   UNL     1      -4.876  13.743  23.680  0.00  0.00    +0.000 A 
ATOM      7  C   UNL     1      -4.074  12.507  20.160  0.00  0.00    +0.000 A 
ATOM      8  C   UNL     1      -5.267  12.683  19.404  0.00  0.00    +0.000 A 
ATOM      9  C   UNL     1      -5.368  12.181  18.088  0.00  0.00    +0.000 A 
ATOM     10  C   UNL     1      -4.263  11.559  17.501  0.00  0.00    +0.000 A 
ATOM     11  C   UNL     1      -3.050  11.445  18.187  0.00  0.00    +0.000 A 
ATOM     12  C   UNL     1      -2.936  11.955  19.495  0.00  0.00    +0.000 A 
ATOM     13  C   UNL     1      -1.586  11.891  20.245  0.00  0.00    +0.000 C 
ATOM     14  C   UNL     1      -1.445  13.116  21.166  0.00  0.00    +0.000 C 
ATOM     15  N   UNL     1      -0.454  11.624  19.309  0.00  0.00    +0.000 N 
ATOM     16  C   UNL     1       0.743  12.327  19.353  0.00  0.00    +0.000 C 
ATOM     17  C   UNL     1       1.827  12.060  18.336  0.00  0.00    +0.000 C 
ATOM     18  O   UNL     1       0.986  13.194  20.188  0.00  0.00    +0.000 OA
ATOM     19  C   UNL     1      -0.727  10.492  18.425  0.00  0.00    +0.000 C 
ATOM     20  C   UNL     1      -1.873  10.825  17.476  0.00  0.00    +0.000 C 
ENDROOT
BRANCH   1  22
ATOM     21  C   UNL     1      -3.730  16.429  25.002  0.00  0.00    +0.000 C 
ATOM     22  O   UNL     1      -3.512  15.028  25.188  0.00  0.00    +0.000 OA
ENDBRANCH   1  22
BRANCH   6  23
ATOM     23  O   UNL     1      -6.100  13.928  24.270  0.00  0.00    +0.000 OA
ATOM     24  C   UNL     1      -7.280  13.575  23.567  0.00  0.00    +0.000 C 
ENDBRANCH   6  23
BRANCH   8  25
ATOM     25  O   UNL     1      -6.405  13.276  19.915  0.00  0.00    +0.000 OA
ATOM     26  C   UNL     1      -6.422  14.705  19.836  0.00  0.00    +0.000 C 
ENDBRANCH   8  25
BRANCH   9  27
ATOM     27  O   UNL     1      -6.573  12.347  17.441  0.00  0.00    +0.000 OA
ATOM     28  C   UNL     1      -6.693  13.458  16.558  0.00  0.00    +0.000 C 
ENDBRANCH   9  27
TORSDOF 4
ENDMDL
