MODEL 1
REMARK VINA RESULT:      -7.7      0.000      0.000
REMARK  Name = 
REMARK  7 active torsions:
REMARK  status: ('A' for Active; 'I' for Inactive)
REMARK    1  A    between atoms: C_1  and  C_2
REMARK    2  A    between atoms: C_7  and  C_9
REMARK    3  A    between atoms: C_9  and  S_10
REMARK    4  A    between atoms: S_10  and  C_11
REMARK    5  A    between atoms: C_16  and  C_18
REMARK    6  A    between atoms: C_18  and  O_19
REMARK    7  A    between atoms: O_19  and  C_20
REMARK                            x       y       z     vdW  Elec       q    Type
REMARK                         _______ _______ _______ _____ _____    ______ ____
ROOT
ATOM      1  C   UNL     1       1.685   7.131  20.245  0.00  0.00    +0.000 A 
ATOM      2  N   UNL     1       2.190   7.525  19.092  0.00  0.00    +0.000 NA
ATOM      3  N   UNL     1       2.549   6.437  18.290  0.00  0.00    +0.000 NA
ATOM      4  C   UNL     1       2.317   5.295  18.898  0.00  0.00    +0.000 A 
ATOM      5  N   UNL     1       2.477   4.024  18.435  0.00  0.00    +0.000 N 
ATOM      6  C   UNL     1       3.688   3.366  18.480  0.00  0.00    +0.000 C 
ATOM      7  O   UNL     1       3.817   2.313  17.856  0.00  0.00    +0.000 OA
ATOM      8  S   UNL     1       1.589   5.428  20.431  0.00  0.00    +0.000 S 
ATOM      9  H   UNL     1       1.850   3.693  17.718  0.00  0.00    +0.000 HD
ENDROOT
BRANCH   1  10
ATOM     10  S   UNL     1       1.195   8.204  21.532  0.00  0.00    +0.000 S 
BRANCH  10  11
ATOM     11  C   UNL     1       1.347   9.863  20.835  0.00  0.00    +0.000 C 
BRANCH  11  18
ATOM     12  C   UNL     1      -3.205   9.860  15.215  0.00  0.00    +0.000 C 
ATOM     13  C   UNL     1      -2.685  10.384  16.507  0.00  0.00    +0.000 A 
ATOM     14  C   UNL     1      -3.289  11.346  17.288  0.00  0.00    +0.000 A 
ATOM     15  S   UNL     1      -2.364  11.621  18.695  0.00  0.00    +0.000 S 
ATOM     16  C   UNL     1      -1.241  10.443  18.185  0.00  0.00    +0.000 A 
ATOM     17  N   UNL     1      -0.123  10.132  18.922  0.00  0.00    +0.000 N 
ATOM     18  C   UNL     1       0.029  10.361  20.277  0.00  0.00    +0.000 C 
ATOM     19  O   UNL     1      -0.789  10.884  21.026  0.00  0.00    +0.000 OA
ATOM     20  N   UNL     1      -1.485   9.895  17.015  0.00  0.00    +0.000 NA
ATOM     21  H   UNL     1       0.508   9.494  18.447  0.00  0.00    +0.000 HD
ENDBRANCH  11  18
ENDBRANCH  10  11
ENDBRANCH   1  10
BRANCH   6  22
ATOM     22  C   UNL     1       4.817   3.938  19.334  0.00  0.00    +0.000 C 
BRANCH  22  23
ATOM     23  O   UNL     1       5.984   3.999  18.524  0.00  0.00    +0.000 OA
BRANCH  23  24
ATOM     24  C   UNL     1       6.597   5.212  18.394  0.00  0.00    +0.000 A 
ATOM     25  C   UNL     1       7.725   5.640  19.096  0.00  0.00    +0.000 A 
ATOM     26  C   UNL     1       8.262   6.909  18.855  0.00  0.00    +0.000 A 
ATOM     27  C   UNL     1       7.669   7.751  17.915  0.00  0.00    +0.000 A 
ATOM     28 CL   UNL     1       8.333   9.311  17.625  0.00  0.00    +0.000 Cl
ATOM     29  C   UNL     1       6.544   7.334  17.212  0.00  0.00    +0.000 A 
ATOM     30  C   UNL     1       6.010   6.066  17.455  0.00  0.00    +0.000 A 
ENDBRANCH  23  24
ENDBRANCH  22  23
ENDBRANCH   6  22
TORSDOF 6
ENDMDL
MODEL 2
REMARK VINA RESULT:      -7.6      3.516      4.596
REMARK  Name = 
REMARK  7 active torsions:
REMARK  status: ('A' for Active; 'I' for Inactive)
REMARK    1  A    between atoms: C_1  and  C_2
REMARK    2  A    between atoms: C_7  and  C_9
REMARK    3  A    between atoms: C_9  and  S_10
REMARK    4  A    between atoms: S_10  and  C_11
REMARK    5  A    between atoms: C_16  and  C_18
REMARK    6  A    between atoms: C_18  and  O_19
REMARK    7  A    between atoms: O_19  and  C_20
REMARK                            x       y       z     vdW  Elec       q    Type
REMARK                         _______ _______ _______ _____ _____    ______ ____
ROOT
ATOM      1  C   UNL     1       3.124   4.932  19.182  0.00  0.00    +0.000 A 
ATOM      2  N   UNL     1       3.003   4.041  18.217  0.00  0.00    +0.000 NA
ATOM      3  N   UNL     1       4.250   3.582  17.783  0.00  0.00    +0.000 NA
ATOM      4  C   UNL     1       5.231   4.174  18.427  0.00  0.00    +0.000 A 
ATOM      5  N   UNL     1       6.574   3.963  18.334  0.00  0.00    +0.000 N 
ATOM      6  C   UNL     1       7.353   4.566  17.368  0.00  0.00    +0.000 C 
ATOM      7  O   UNL     1       8.507   4.173  17.204  0.00  0.00    +0.000 OA
ATOM      8  S   UNL     1       4.744   5.259  19.644  0.00  0.00    +0.000 S 
ATOM      9  H   UNL     1       6.949   3.099  18.692  0.00  0.00    +0.000 HD
ENDROOT
BRANCH   1  10
ATOM     10  S   UNL     1       1.791   5.782  19.922  0.00  0.00    +0.000 S 
BRANCH  10  11
ATOM     11  C   UNL     1       2.147   7.531  19.646  0.00  0.00    +0.000 C 
BRANCH  11  18
ATOM     12  C   UNL     1      -2.828  12.767  20.027  0.00  0.00    +0.000 C 
ATOM     13  C   UNL     1      -1.753  11.908  20.593  0.00  0.00    +0.000 A 
ATOM     14  C   UNL     1      -1.386  11.846  21.920  0.00  0.00    +0.000 A 
ATOM     15  S   UNL     1      -0.131  10.708  22.127  0.00  0.00    +0.000 S 
ATOM     16  C   UNL     1      -0.169  10.366  20.457  0.00  0.00    +0.000 A 
ATOM     17  N   UNL     1       0.678   9.449  19.879  0.00  0.00    +0.000 N 
ATOM     18  C   UNL     1       1.318   8.423  20.549  0.00  0.00    +0.000 C 
ATOM     19  O   UNL     1       1.250   8.177  21.748  0.00  0.00    +0.000 OA
ATOM     20  N   UNL     1      -1.020  11.077  19.750  0.00  0.00    +0.000 NA
ATOM     21  H   UNL     1       0.616   9.427  18.867  0.00  0.00    +0.000 HD
ENDBRANCH  11  18
ENDBRANCH  10  11
ENDBRANCH   1  10
BRANCH   6  22
ATOM     22  C   UNL     1       6.777   5.729  16.563  0.00  0.00    +0.000 C 
BRANCH  22  23
ATOM     23  O   UNL     1       7.470   5.780  15.322  0.00  0.00    +0.000 OA
BRANCH  23  24
ATOM     24  C   UNL     1       6.978   5.026  14.296  0.00  0.00    +0.000 A 
ATOM     25  C   UNL     1       7.609   4.792  13.074  0.00  0.00    +0.000 A 
ATOM     26  C   UNL     1       6.996   3.983  12.111  0.00  0.00    +0.000 A 
ATOM     27  C   UNL     1       5.751   3.413  12.368  0.00  0.00    +0.000 A 
ATOM     28 CL   UNL     1       5.002   2.421  11.179  0.00  0.00    +0.000 Cl
ATOM     29  C   UNL     1       5.112   3.641  13.582  0.00  0.00    +0.000 A 
ATOM     30  C   UNL     1       5.727   4.449  14.543  0.00  0.00    +0.000 A 
ENDBRANCH  23  24
ENDBRANCH  22  23
ENDBRANCH   6  22
TORSDOF 6
ENDMDL
MODEL 3
REMARK VINA RESULT:      -7.3      5.583      8.408
REMARK  Name = 
REMARK  7 active torsions:
REMARK  status: ('A' for Active; 'I' for Inactive)
REMARK    1  A    between atoms: C_1  and  C_2
REMARK    2  A    between atoms: C_7  and  C_9
REMARK    3  A    between atoms: C_9  and  S_10
REMARK    4  A    between atoms: S_10  and  C_11
REMARK    5  A    between atoms: C_16  and  C_18
REMARK    6  A    between atoms: C_18  and  O_19
REMARK    7  A    between atoms: O_19  and  C_20
REMARK                            x       y       z     vdW  Elec       q    Type
REMARK                         _______ _______ _______ _____ _____    ______ ____
ROOT
ATOM      1  C   UNL     1       7.544   7.106  18.044  0.00  0.00    +0.000 A 
ATOM      2  N   UNL     1       8.010   6.429  19.075  0.00  0.00    +0.000 NA
ATOM      3  N   UNL     1       7.419   5.165  19.170  0.00  0.00    +0.000 NA
ATOM      4  C   UNL     1       6.526   4.981  18.223  0.00  0.00    +0.000 A 
ATOM      5  N   UNL     1       5.784   3.874  17.943  0.00  0.00    +0.000 N 
ATOM      6  C   UNL     1       4.597   3.596  18.589  0.00  0.00    +0.000 C 
ATOM      7  O   UNL     1       4.088   2.484  18.448  0.00  0.00    +0.000 OA
ATOM      8  S   UNL     1       6.379   6.259  17.109  0.00  0.00    +0.000 S 
ATOM      9  H   UNL     1       6.252   3.064  17.567  0.00  0.00    +0.000 HD
ENDROOT
BRANCH   1  10
ATOM     10  S   UNL     1       7.990   8.747  17.649  0.00  0.00    +0.000 S 
BRANCH  10  11
ATOM     11  C   UNL     1       8.970   9.311  19.057  0.00  0.00    +0.000 C 
BRANCH  11  18
ATOM     12  C   UNL     1      10.428  15.625  22.269  0.00  0.00    +0.000 C 
ATOM     13  C   UNL     1      10.159  14.764  21.086  0.00  0.00    +0.000 A 
ATOM     14  C   UNL     1      10.274  15.148  19.767  0.00  0.00    +0.000 A 
ATOM     15  S   UNL     1       9.899  13.836  18.741  0.00  0.00    +0.000 S 
ATOM     16  C   UNL     1       9.627  12.850  20.106  0.00  0.00    +0.000 A 
ATOM     17  N   UNL     1       9.244  11.535  19.992  0.00  0.00    +0.000 N 
ATOM     18  C   UNL     1       9.443  10.740  18.878  0.00  0.00    +0.000 C 
ATOM     19  O   UNL     1       9.968  11.078  17.823  0.00  0.00    +0.000 OA
ATOM     20  N   UNL     1       9.750  13.447  21.272  0.00  0.00    +0.000 NA
ATOM     21  H   UNL     1       9.016  11.103  20.882  0.00  0.00    +0.000 HD
ENDBRANCH  11  18
ENDBRANCH  10  11
ENDBRANCH   1  10
BRANCH   6  22
ATOM     22  C   UNL     1       3.927   4.686  19.423  0.00  0.00    +0.000 C 
BRANCH  22  23
ATOM     23  O   UNL     1       2.938   5.305  18.611  0.00  0.00    +0.000 OA
BRANCH  23  24
ATOM     24  C   UNL     1       2.433   6.500  19.036  0.00  0.00    +0.000 A 
ATOM     25  C   UNL     1       1.993   6.792  20.328  0.00  0.00    +0.000 A 
ATOM     26  C   UNL     1       1.510   8.068  20.634  0.00  0.00    +0.000 A 
ATOM     27  C   UNL     1       1.463   9.052  19.647  0.00  0.00    +0.000 A 
ATOM     28 CL   UNL     1       0.865  10.618  20.030  0.00  0.00    +0.000 Cl
ATOM     29  C   UNL     1       1.898   8.771  18.356  0.00  0.00    +0.000 A 
ATOM     30  C   UNL     1       2.380   7.495  18.054  0.00  0.00    +0.000 A 
ENDBRANCH  23  24
ENDBRANCH  22  23
ENDBRANCH   6  22
TORSDOF 6
ENDMDL
MODEL 4
REMARK VINA RESULT:      -7.3      3.696      4.812
REMARK  Name = 
REMARK  7 active torsions:
REMARK  status: ('A' for Active; 'I' for Inactive)
REMARK    1  A    between atoms: C_1  and  C_2
REMARK    2  A    between atoms: C_7  and  C_9
REMARK    3  A    between atoms: C_9  and  S_10
REMARK    4  A    between atoms: S_10  and  C_11
REMARK    5  A    between atoms: C_16  and  C_18
REMARK    6  A    between atoms: C_18  and  O_19
REMARK    7  A    between atoms: O_19  and  C_20
REMARK                            x       y       z     vdW  Elec       q    Type
REMARK                         _______ _______ _______ _____ _____    ______ ____
ROOT
ATOM      1  C   UNL     1       3.183   5.921  18.757  0.00  0.00    +0.000 A 
ATOM      2  N   UNL     1       2.959   4.906  17.947  0.00  0.00    +0.000 NA
ATOM      3  N   UNL     1       4.131   4.187  17.689  0.00  0.00    +0.000 NA
ATOM      4  C   UNL     1       5.166   4.722  18.298  0.00  0.00    +0.000 A 
ATOM      5  N   UNL     1       6.457   4.289  18.342  0.00  0.00    +0.000 N 
ATOM      6  C   UNL     1       7.370   4.584  17.351  0.00  0.00    +0.000 C 
ATOM      7  O   UNL     1       8.449   3.991  17.341  0.00  0.00    +0.000 OA
ATOM      8  S   UNL     1       4.812   6.066  19.279  0.00  0.00    +0.000 S 
ATOM      9  H   UNL     1       6.665   3.453  18.865  0.00  0.00    +0.000 HD
ENDROOT
BRANCH   1  10
ATOM     10  S   UNL     1       1.977   7.087  19.245  0.00  0.00    +0.000 S 
BRANCH  10  11
ATOM     11  C   UNL     1       2.150   8.449  18.071  0.00  0.00    +0.000 C 
BRANCH  11  18
ATOM     12  C   UNL     1      -1.789  11.535  23.293  0.00  0.00    +0.000 C 
ATOM     13  C   UNL     1      -1.158  11.499  21.946  0.00  0.00    +0.000 A 
ATOM     14  C   UNL     1      -1.088  12.553  21.061  0.00  0.00    +0.000 A 
ATOM     15  S   UNL     1      -0.252  12.079  19.651  0.00  0.00    +0.000 S 
ATOM     16  C   UNL     1      -0.026  10.523  20.312  0.00  0.00    +0.000 A 
ATOM     17  N   UNL     1       0.633   9.528  19.630  0.00  0.00    +0.000 N 
ATOM     18  C   UNL     1       1.532   9.729  18.599  0.00  0.00    +0.000 C 
ATOM     19  O   UNL     1       1.870  10.806  18.122  0.00  0.00    +0.000 OA
ATOM     20  N   UNL     1      -0.573  10.321  21.490  0.00  0.00    +0.000 NA
ATOM     21  H   UNL     1       0.599   8.628  20.098  0.00  0.00    +0.000 HD
ENDBRANCH  11  18
ENDBRANCH  10  11
ENDBRANCH   1  10
BRANCH   6  22
ATOM     22  C   UNL     1       7.036   5.663  16.324  0.00  0.00    +0.000 C 
BRANCH  22  23
ATOM     23  O   UNL     1       7.756   5.365  15.134  0.00  0.00    +0.000 OA
BRANCH  23  24
ATOM     24  C   UNL     1       7.072   4.755  14.122  0.00  0.00    +0.000 A 
ATOM     25  C   UNL     1       7.544   4.540  12.826  0.00  0.00    +0.000 A 
ATOM     26  C   UNL     1       6.739   3.886  11.886  0.00  0.00    +0.000 A 
ATOM     27  C   UNL     1       5.463   3.452  12.240  0.00  0.00    +0.000 A 
ATOM     28 CL   UNL     1       4.479   2.652  11.079  0.00  0.00    +0.000 Cl
ATOM     29  C   UNL     1       4.983   3.664  13.529  0.00  0.00    +0.000 A 
ATOM     30  C   UNL     1       5.788   4.316  14.466  0.00  0.00    +0.000 A 
ENDBRANCH  23  24
ENDBRANCH  22  23
ENDBRANCH   6  22
TORSDOF 6
ENDMDL
MODEL 5
REMARK VINA RESULT:      -7.3      2.579      3.358
REMARK  Name = 
REMARK  7 active torsions:
REMARK  status: ('A' for Active; 'I' for Inactive)
REMARK    1  A    between atoms: C_1  and  C_2
REMARK    2  A    between atoms: C_7  and  C_9
REMARK    3  A    between atoms: C_9  and  S_10
REMARK    4  A    between atoms: S_10  and  C_11
REMARK    5  A    between atoms: C_16  and  C_18
REMARK    6  A    between atoms: C_18  and  O_19
REMARK    7  A    between atoms: O_19  and  C_20
REMARK                            x       y       z     vdW  Elec       q    Type
REMARK                         _______ _______ _______ _____ _____    ______ ____
ROOT
ATOM      1  C   UNL     1       1.820   7.318  20.038  0.00  0.00    +0.000 A 
ATOM      2  N   UNL     1       2.351   7.597  18.864  0.00  0.00    +0.000 NA
ATOM      3  N   UNL     1       2.668   6.435  18.154  0.00  0.00    +0.000 NA
ATOM      4  C   UNL     1       2.382   5.356  18.848  0.00  0.00    +0.000 A 
ATOM      5  N   UNL     1       2.489   4.047  18.487  0.00  0.00    +0.000 N 
ATOM      6  C   UNL     1       3.670   3.342  18.598  0.00  0.00    +0.000 C 
ATOM      7  O   UNL     1       3.757   2.239  18.060  0.00  0.00    +0.000 OA
ATOM      8  S   UNL     1       1.648   5.640  20.356  0.00  0.00    +0.000 S 
ATOM      9  H   UNL     1       1.854   3.687  17.792  0.00  0.00    +0.000 HD
ENDROOT
BRANCH   1  10
ATOM     10  S   UNL     1       1.367   8.509  21.232  0.00  0.00    +0.000 S 
BRANCH  10  11
ATOM     11  C   UNL     1       0.416   9.742  20.317  0.00  0.00    +0.000 C 
BRANCH  11  18
ATOM     12  C   UNL     1       3.363  15.625  17.314  0.00  0.00    +0.000 C 
ATOM     13  C   UNL     1       2.995  14.762  18.468  0.00  0.00    +0.000 A 
ATOM     14  C   UNL     1       3.113  15.102  19.798  0.00  0.00    +0.000 A 
ATOM     15  S   UNL     1       2.547  13.827  20.781  0.00  0.00    +0.000 S 
ATOM     16  C   UNL     1       2.172  12.922  19.385  0.00  0.00    +0.000 A 
ATOM     17  N   UNL     1       1.634  11.658  19.457  0.00  0.00    +0.000 N 
ATOM     18  C   UNL     1       0.948  11.144  20.542  0.00  0.00    +0.000 C 
ATOM     19  O   UNL     1       0.726  11.714  21.604  0.00  0.00    +0.000 OA
ATOM     20  N   UNL     1       2.485  13.487  18.240  0.00  0.00    +0.000 NA
ATOM     21  H   UNL     1       1.563  11.199  18.554  0.00  0.00    +0.000 HD
ENDBRANCH  11  18
ENDBRANCH  10  11
ENDBRANCH   1  10
BRANCH   6  22
ATOM     22  C   UNL     1       4.816   3.930  19.418  0.00  0.00    +0.000 C 
BRANCH  22  23
ATOM     23  O   UNL     1       5.961   3.993  18.577  0.00  0.00    +0.000 OA
BRANCH  23  24
ATOM     24  C   UNL     1       6.463   5.229  18.290  0.00  0.00    +0.000 A 
ATOM     25  C   UNL     1       5.948   6.126  17.352  0.00  0.00    +0.000 A 
ATOM     26  C   UNL     1       6.554   7.373  17.166  0.00  0.00    +0.000 A 
ATOM     27  C   UNL     1       7.677   7.722  17.914  0.00  0.00    +0.000 A 
ATOM     28 CL   UNL     1       8.419   9.255  17.679  0.00  0.00    +0.000 Cl
ATOM     29  C   UNL     1       8.199   6.835  18.850  0.00  0.00    +0.000 A 
ATOM     30  C   UNL     1       7.592   5.590  19.034  0.00  0.00    +0.000 A 
ENDBRANCH  23  24
ENDBRANCH  22  23
ENDBRANCH   6  22
TORSDOF 6
ENDMDL
MODEL 6
REMARK VINA RESULT:      -7.2      5.479      8.386
REMARK  Name = 
REMARK  7 active torsions:
REMARK  status: ('A' for Active; 'I' for Inactive)
REMARK    1  A    between atoms: C_1  and  C_2
REMARK    2  A    between atoms: C_7  and  C_9
REMARK    3  A    between atoms: C_9  and  S_10
REMARK    4  A    between atoms: S_10  and  C_11
REMARK    5  A    between atoms: C_16  and  C_18
REMARK    6  A    between atoms: C_18  and  O_19
REMARK    7  A    between atoms: O_19  and  C_20
REMARK                            x       y       z     vdW  Elec       q    Type
REMARK                         _______ _______ _______ _____ _____    ______ ____
ROOT
ATOM      1  C   UNL     1       7.417   6.734  18.163  0.00  0.00    +0.000 A 
ATOM      2  N   UNL     1       7.822   6.287  19.336  0.00  0.00    +0.000 NA
ATOM      3  N   UNL     1       7.157   5.111  19.695  0.00  0.00    +0.000 NA
ATOM      4  C   UNL     1       6.274   4.761  18.785  0.00  0.00    +0.000 A 
ATOM      5  N   UNL     1       5.475   3.659  18.739  0.00  0.00    +0.000 N 
ATOM      6  C   UNL     1       4.261   3.598  19.391  0.00  0.00    +0.000 C 
ATOM      7  O   UNL     1       3.692   2.511  19.488  0.00  0.00    +0.000 OA
ATOM      8  S   UNL     1       6.225   5.758  17.407  0.00  0.00    +0.000 S 
ATOM      9  H   UNL     1       5.903   2.762  18.572  0.00  0.00    +0.000 HD
ENDROOT
BRANCH   1  10
ATOM     10  S   UNL     1       7.966   8.217  17.422  0.00  0.00    +0.000 S 
BRANCH  10  11
ATOM     11  C   UNL     1       8.789   9.121  18.751  0.00  0.00    +0.000 C 
BRANCH  11  18
ATOM     12  C   UNL     1      12.330  15.340  19.791  0.00  0.00    +0.000 C 
ATOM     13  C   UNL     1      11.145  14.534  19.396  0.00  0.00    +0.000 A 
ATOM     14  C   UNL     1      10.004  15.019  18.794  0.00  0.00    +0.000 A 
ATOM     15  S   UNL     1       8.914  13.742  18.490  0.00  0.00    +0.000 S 
ATOM     16  C   UNL     1      10.027  12.636  19.159  0.00  0.00    +0.000 A 
ATOM     17  N   UNL     1       9.757  11.291  19.248  0.00  0.00    +0.000 N 
ATOM     18  C   UNL     1       8.834  10.611  18.475  0.00  0.00    +0.000 C 
ATOM     19  O   UNL     1       8.107  11.090  17.612  0.00  0.00    +0.000 OA
ATOM     20  N   UNL     1      11.134  13.162  19.636  0.00  0.00    +0.000 NA
ATOM     21  H   UNL     1      10.461  10.772  19.762  0.00  0.00    +0.000 HD
ENDBRANCH  11  18
ENDBRANCH  10  11
ENDBRANCH   1  10
BRANCH   6  22
ATOM     22  C   UNL     1       3.639   4.882  19.934  0.00  0.00    +0.000 C 
BRANCH  22  23
ATOM     23  O   UNL     1       3.022   5.558  18.845  0.00  0.00    +0.000 OA
BRANCH  23  24
ATOM     24  C   UNL     1       2.434   6.762  19.104  0.00  0.00    +0.000 A 
ATOM     25  C   UNL     1       1.886   7.162  20.324  0.00  0.00    +0.000 A 
ATOM     26  C   UNL     1       1.324   8.436  20.457  0.00  0.00    +0.000 A 
ATOM     27  C   UNL     1       1.307   9.309  19.370  0.00  0.00    +0.000 A 
ATOM     28 CL   UNL     1       0.613  10.873  19.540  0.00  0.00    +0.000 Cl
ATOM     29  C   UNL     1       1.849   8.920  18.150  0.00  0.00    +0.000 A 
ATOM     30  C   UNL     1       2.410   7.646  18.020  0.00  0.00    +0.000 A 
ENDBRANCH  23  24
ENDBRANCH  22  23
ENDBRANCH   6  22
TORSDOF 6
ENDMDL
MODEL 7
REMARK VINA RESULT:      -7.1      3.348      8.812
REMARK  Name = 
REMARK  7 active torsions:
REMARK  status: ('A' for Active; 'I' for Inactive)
REMARK    1  A    between atoms: C_1  and  C_2
REMARK    2  A    between atoms: C_7  and  C_9
REMARK    3  A    between atoms: C_9  and  S_10
REMARK    4  A    between atoms: S_10  and  C_11
REMARK    5  A    between atoms: C_16  and  C_18
REMARK    6  A    between atoms: C_18  and  O_19
REMARK    7  A    between atoms: O_19  and  C_20
REMARK                            x       y       z     vdW  Elec       q    Type
REMARK                         _______ _______ _______ _____ _____    ______ ____
ROOT
ATOM      1  C   UNL     1       1.920   5.503  18.768  0.00  0.00    +0.000 A 
ATOM      2  N   UNL     1       2.502   6.518  18.161  0.00  0.00    +0.000 NA
ATOM      3  N   UNL     1       2.608   7.629  19.004  0.00  0.00    +0.000 NA
ATOM      4  C   UNL     1       2.076   7.390  20.182  0.00  0.00    +0.000 A 
ATOM      5  N   UNL     1       2.031   8.188  21.285  0.00  0.00    +0.000 N 
ATOM      6  C   UNL     1       1.057   9.149  21.463  0.00  0.00    +0.000 C 
ATOM      7  O   UNL     1       1.194   9.974  22.366  0.00  0.00    +0.000 OA
ATOM      8  S   UNL     1       1.482   5.810  20.399  0.00  0.00    +0.000 S 
ATOM      9  H   UNL     1       2.889   8.367  21.783  0.00  0.00    +0.000 HD
ENDROOT
BRANCH   1  10
ATOM     10  S   UNL     1       1.548   3.974  18.011  0.00  0.00    +0.000 S 
BRANCH  10  11
ATOM     11  C   UNL     1       3.050   3.523  17.115  0.00  0.00    +0.000 C 
BRANCH  11  18
ATOM     12  C   UNL     1       8.000   8.771  17.626  0.00  0.00    +0.000 C 
ATOM     13  C   UNL     1       7.481   7.401  17.883  0.00  0.00    +0.000 A 
ATOM     14  C   UNL     1       8.052   6.467  18.721  0.00  0.00    +0.000 A 
ATOM     15  S   UNL     1       7.110   5.044  18.740  0.00  0.00    +0.000 S 
ATOM     16  C   UNL     1       6.007   5.764  17.656  0.00  0.00    +0.000 A 
ATOM     17  N   UNL     1       4.896   5.098  17.195  0.00  0.00    +0.000 N 
ATOM     18  C   UNL     1       4.296   4.020  17.820  0.00  0.00    +0.000 C 
ATOM     19  O   UNL     1       4.661   3.481  18.859  0.00  0.00    +0.000 OA
ATOM     20  N   UNL     1       6.320   6.973  17.245  0.00  0.00    +0.000 NA
ATOM     21  H   UNL     1       4.390   5.607  16.477  0.00  0.00    +0.000 HD
ENDBRANCH  11  18
ENDBRANCH  10  11
ENDBRANCH   1  10
BRANCH   6  22
ATOM     22  C   UNL     1      -0.179   9.135  20.568  0.00  0.00    +0.000 C 
BRANCH  22  23
ATOM     23  O   UNL     1      -0.291  10.418  19.964  0.00  0.00    +0.000 OA
BRANCH  23  24
ATOM     24  C   UNL     1      -1.363  10.638  19.149  0.00  0.00    +0.000 A 
ATOM     25  C   UNL     1      -1.690   9.906  18.007  0.00  0.00    +0.000 A 
ATOM     26  C   UNL     1      -2.831  10.231  17.267  0.00  0.00    +0.000 A 
ATOM     27  C   UNL     1      -3.645  11.290  17.667  0.00  0.00    +0.000 A 
ATOM     28 CL   UNL     1      -5.046  11.686  16.752  0.00  0.00    +0.000 Cl
ATOM     29  C   UNL     1      -3.327  12.027  18.803  0.00  0.00    +0.000 A 
ATOM     30  C   UNL     1      -2.186  11.700  19.541  0.00  0.00    +0.000 A 
ENDBRANCH  23  24
ENDBRANCH  22  23
ENDBRANCH   6  22
TORSDOF 6
ENDMDL
MODEL 8
REMARK VINA RESULT:      -7.0      4.925      7.876
REMARK  Name = 
REMARK  7 active torsions:
REMARK  status: ('A' for Active; 'I' for Inactive)
REMARK    1  A    between atoms: C_1  and  C_2
REMARK    2  A    between atoms: C_7  and  C_9
REMARK    3  A    between atoms: C_9  and  S_10
REMARK    4  A    between atoms: S_10  and  C_11
REMARK    5  A    between atoms: C_16  and  C_18
REMARK    6  A    between atoms: C_18  and  O_19
REMARK    7  A    between atoms: O_19  and  C_20
REMARK                            x       y       z     vdW  Elec       q    Type
REMARK                         _______ _______ _______ _____ _____    ______ ____
ROOT
ATOM      1  C   UNL     1       6.850   5.807  18.280  0.00  0.00    +0.000 A 
ATOM      2  N   UNL     1       6.769   4.578  18.749  0.00  0.00    +0.000 NA
ATOM      3  N   UNL     1       5.542   3.987  18.432  0.00  0.00    +0.000 NA
ATOM      4  C   UNL     1       4.767   4.816  17.769  0.00  0.00    +0.000 A 
ATOM      5  N   UNL     1       3.531   4.602  17.238  0.00  0.00    +0.000 N 
ATOM      6  C   UNL     1       2.375   4.719  17.981  0.00  0.00    +0.000 C 
ATOM      7  O   UNL     1       1.317   4.307  17.506  0.00  0.00    +0.000 OA
ATOM      8  S   UNL     1       5.465   6.326  17.408  0.00  0.00    +0.000 S 
ATOM      9  H   UNL     1       3.452   3.994  16.438  0.00  0.00    +0.000 HD
ENDROOT
BRANCH   1  10
ATOM     10  S   UNL     1       8.201   6.883  18.542  0.00  0.00    +0.000 S 
BRANCH  10  11
ATOM     11  C   UNL     1       7.734   8.420  17.718  0.00  0.00    +0.000 C 
BRANCH  11  18
ATOM     12  C   UNL     1       8.396  15.621  17.859  0.00  0.00    +0.000 C 
ATOM     13  C   UNL     1       8.881  14.235  18.095  0.00  0.00    +0.000 A 
ATOM     14  C   UNL     1      10.029  13.887  18.775  0.00  0.00    +0.000 A 
ATOM     15  S   UNL     1      10.182  12.189  18.835  0.00  0.00    +0.000 S 
ATOM     16  C   UNL     1       8.718  12.029  17.974  0.00  0.00    +0.000 A 
ATOM     17  N   UNL     1       8.200  10.801  17.635  0.00  0.00    +0.000 N 
ATOM     18  C   UNL     1       8.499   9.608  18.266  0.00  0.00    +0.000 C 
ATOM     19  O   UNL     1       9.275   9.450  19.202  0.00  0.00    +0.000 OA
ATOM     20  N   UNL     1       8.150  13.156  17.605  0.00  0.00    +0.000 NA
ATOM     21  H   UNL     1       7.384  10.861  17.034  0.00  0.00    +0.000 HD
ENDBRANCH  11  18
ENDBRANCH  10  11
ENDBRANCH   1  10
BRANCH   6  22
ATOM     22  C   UNL     1       2.432   5.392  19.350  0.00  0.00    +0.000 C 
BRANCH  22  23
ATOM     23  O   UNL     1       2.982   6.692  19.170  0.00  0.00    +0.000 OA
BRANCH  23  24
ATOM     24  C   UNL     1       2.130   7.753  19.269  0.00  0.00    +0.000 A 
ATOM     25  C   UNL     1       1.496   8.191  20.433  0.00  0.00    +0.000 A 
ATOM     26  C   UNL     1       0.654   9.308  20.396  0.00  0.00    +0.000 A 
ATOM     27  C   UNL     1       0.443   9.984  19.196  0.00  0.00    +0.000 A 
ATOM     28 CL   UNL     1      -0.594  11.355  19.159  0.00  0.00    +0.000 Cl
ATOM     29  C   UNL     1       1.069   9.556  18.031  0.00  0.00    +0.000 A 
ATOM     30  C   UNL     1       1.910   8.440  18.070  0.00  0.00    +0.000 A 
ENDBRANCH  23  24
ENDBRANCH  22  23
ENDBRANCH   6  22
TORSDOF 6
ENDMDL
MODEL 9
REMARK VINA RESULT:      -7.0      3.658      8.967
REMARK  Name = 
REMARK  7 active torsions:
REMARK  status: ('A' for Active; 'I' for Inactive)
REMARK    1  A    between atoms: C_1  and  C_2
REMARK    2  A    between atoms: C_7  and  C_9
REMARK    3  A    between atoms: C_9  and  S_10
REMARK    4  A    between atoms: S_10  and  C_11
REMARK    5  A    between atoms: C_16  and  C_18
REMARK    6  A    between atoms: C_18  and  O_19
REMARK    7  A    between atoms: O_19  and  C_20
REMARK                            x       y       z     vdW  Elec       q    Type
REMARK                         _______ _______ _______ _____ _____    ______ ____
ROOT
ATOM      1  C   UNL     1       1.910   5.368  19.147  0.00  0.00    +0.000 A 
ATOM      2  N   UNL     1       2.465   6.305  18.404  0.00  0.00    +0.000 NA
ATOM      3  N   UNL     1       2.547   7.522  19.089  0.00  0.00    +0.000 NA
ATOM      4  C   UNL     1       2.025   7.431  20.292  0.00  0.00    +0.000 A 
ATOM      5  N   UNL     1       1.964   8.370  21.277  0.00  0.00    +0.000 N 
ATOM      6  C   UNL     1       0.968   9.323  21.331  0.00  0.00    +0.000 C 
ATOM      7  O   UNL     1       1.088  10.265  22.113  0.00  0.00    +0.000 OA
ATOM      8  S   UNL     1       1.470   5.882  20.724  0.00  0.00    +0.000 S 
ATOM      9  H   UNL     1       2.820   8.635  21.740  0.00  0.00    +0.000 HD
ENDROOT
BRANCH   1  10
ATOM     10  S   UNL     1       1.572   3.742  18.605  0.00  0.00    +0.000 S 
BRANCH  10  11
ATOM     11  C   UNL     1       3.079   2.813  18.962  0.00  0.00    +0.000 C 
BRANCH  11  18
ATOM     12  C   UNL     1       6.962   4.867  13.217  0.00  0.00    +0.000 C 
ATOM     13  C   UNL     1       6.766   4.614  14.670  0.00  0.00    +0.000 A 
ATOM     14  C   UNL     1       7.644   4.961  15.674  0.00  0.00    +0.000 A 
ATOM     15  S   UNL     1       7.006   4.510  17.191  0.00  0.00    +0.000 S 
ATOM     16  C   UNL     1       5.610   3.905  16.421  0.00  0.00    +0.000 A 
ATOM     17  N   UNL     1       4.579   3.328  17.124  0.00  0.00    +0.000 N 
ATOM     18  C   UNL     1       4.316   3.535  18.466  0.00  0.00    +0.000 C 
ATOM     19  O   UNL     1       4.957   4.240  19.237  0.00  0.00    +0.000 OA
ATOM     20  N   UNL     1       5.611   3.973  15.108  0.00  0.00    +0.000 NA
ATOM     21  H   UNL     1       3.866   2.918  16.530  0.00  0.00    +0.000 HD
ENDBRANCH  11  18
ENDBRANCH  10  11
ENDBRANCH   1  10
BRANCH   6  22
ATOM     22  C   UNL     1      -0.271   9.159  20.454  0.00  0.00    +0.000 C 
BRANCH  22  23
ATOM     23  O   UNL     1      -0.157  10.072  19.370  0.00  0.00    +0.000 OA
BRANCH  23  24
ATOM     24  C   UNL     1      -1.306  10.428  18.725  0.00  0.00    +0.000 A 
ATOM     25  C   UNL     1      -1.812   9.838  17.566  0.00  0.00    +0.000 A 
ATOM     26  C   UNL     1      -3.015  10.294  17.014  0.00  0.00    +0.000 A 
ATOM     27  C   UNL     1      -3.708  11.341  17.619  0.00  0.00    +0.000 A 
ATOM     28 CL   UNL     1      -5.184  11.897  16.935  0.00  0.00    +0.000 Cl
ATOM     29  C   UNL     1      -3.211  11.936  18.774  0.00  0.00    +0.000 A 
ATOM     30  C   UNL     1      -2.010  11.479  19.323  0.00  0.00    +0.000 A 
ENDBRANCH  23  24
ENDBRANCH  22  23
ENDBRANCH   6  22
TORSDOF 6
ENDMDL
