MODEL 1
REMARK VINA RESULT:      -8.5      0.000      0.000
REMARK  Name = 
REMARK  9 active torsions:
REMARK  status: ('A' for Active; 'I' for Inactive)
REMARK    1  A    between atoms: C_1  and  C_2
REMARK    2  A    between atoms: C_4  and  C_5
REMARK    3  A    between atoms: N_8  and  C_9
REMARK    4  A    between atoms: C_9  and  C_10
REMARK    5  A    between atoms: C_13  and  C_14
REMARK    6  A    between atoms: C_14  and  O_16
REMARK    7  A    between atoms: C_21  and  C_22
REMARK    8  A    between atoms: N_24  and  C_25
REMARK    9  A    between atoms: C_25  and  C_26
REMARK                            x       y       z     vdW  Elec       q    Type
REMARK                         _______ _______ _______ _____ _____    ______ ____
ROOT
ATOM      1  C   UNL     1       1.229   3.282  21.122  0.00  0.00    +0.000 C 
ATOM      2  C   UNL     1       1.975   4.438  20.527  0.00  0.00    +0.000 A 
ATOM      3  C   UNL     1       1.456   5.728  20.586  0.00  0.00    +0.000 A 
ATOM      4  C   UNL     1       2.180   6.788  20.028  0.00  0.00    +0.000 A 
ATOM      5  C   UNL     1       3.411   6.513  19.424  0.00  0.00    +0.000 A 
ATOM      6  C   UNL     1       3.863   5.199  19.419  0.00  0.00    +0.000 A 
ATOM      7  N   UNL     1       3.167   4.157  19.952  0.00  0.00    +0.000 NA
ENDROOT
BRANCH   4   8
ATOM      8  C   UNL     1       1.652   8.146  20.084  0.00  0.00    +0.000 A 
ATOM      9  N   UNL     1       1.323   8.774  21.266  0.00  0.00    +0.000 NA
ATOM     10  N   UNL     1       0.841   9.967  20.951  0.00  0.00    +0.000 NA
ATOM     11  N   UNL     1       0.915  10.025  19.609  0.00  0.00    +0.000 N 
ATOM     12  N   UNL     1       1.400   8.915  19.010  0.00  0.00    +0.000 NA
BRANCH  11  13
ATOM     13  C   UNL     1       0.239  11.067  18.858  0.00  0.00    +0.000 C 
BRANCH  13  14
ATOM     14  C   UNL     1       1.000  12.371  18.839  0.00  0.00    +0.000 A 
ATOM     15  C   UNL     1       2.316  12.418  18.360  0.00  0.00    +0.000 A 
ATOM     16  C   UNL     1       2.986  13.639  18.244  0.00  0.00    +0.000 A 
ATOM     17  C   UNL     1       2.358  14.833  18.616  0.00  0.00    +0.000 A 
ATOM     18  C   UNL     1       1.052  14.793  19.124  0.00  0.00    +0.000 A 
ATOM     19  C   UNL     1       0.385  13.566  19.246  0.00  0.00    +0.000 A 
BRANCH  17  20
ATOM     20  C   UNL     1       3.092  16.106  18.376  0.00  0.00    +0.000 C 
ATOM     21  O   UNL     1       2.630  17.193  18.675  0.00  0.00    +0.000 OA
BRANCH  20  22
ATOM     22  O   UNL     1       4.296  15.964  17.788  0.00  0.00    +0.000 OA
ATOM     23  H   UNL     1       4.875  15.279  18.167  0.00  0.00    +0.000 HD
ENDBRANCH  20  22
ENDBRANCH  17  20
ENDBRANCH  13  14
ENDBRANCH  11  13
ENDBRANCH   4   8
BRANCH   6  24
ATOM     24  C   UNL     1       5.204   4.858  18.828  0.00  0.00    +0.000 C 
ATOM     25  O   UNL     1       5.877   3.933  19.268  0.00  0.00    +0.000 OA
ATOM     26  N   UNL     1       5.588   5.654  17.768  0.00  0.00    +0.000 N 
ATOM     27  H   UNL     1       4.956   6.409  17.517  0.00  0.00    +0.000 HD
BRANCH  26  28
ATOM     28  C   UNL     1       6.843   5.502  17.068  0.00  0.00    +0.000 C 
BRANCH  28  29
ATOM     29  C   UNL     1       6.663   4.982  15.658  0.00  0.00    +0.000 A 
ATOM     30  C   UNL     1       5.724   3.971  15.388  0.00  0.00    +0.000 A 
ATOM     31  C   UNL     1       5.599   3.432  14.102  0.00  0.00    +0.000 A 
ATOM     32  C   UNL     1       6.417   3.901  13.079  0.00  0.00    +0.000 A 
ATOM     33  F   UNL     1       6.304   3.373  11.853  0.00  0.00    +0.000 F 
ATOM     34  C   UNL     1       7.347   4.898  13.331  0.00  0.00    +0.000 A 
ATOM     35  F   UNL     1       8.143   5.341  12.347  0.00  0.00    +0.000 F 
ATOM     36  C   UNL     1       7.476   5.443  14.610  0.00  0.00    +0.000 A 
ENDBRANCH  28  29
ENDBRANCH  26  28
ENDBRANCH   6  24
TORSDOF 8
ENDMDL
MODEL 2
REMARK VINA RESULT:      -8.5      5.702      7.337
REMARK  Name = 
REMARK  9 active torsions:
REMARK  status: ('A' for Active; 'I' for Inactive)
REMARK    1  A    between atoms: C_1  and  C_2
REMARK    2  A    between atoms: C_4  and  C_5
REMARK    3  A    between atoms: N_8  and  C_9
REMARK    4  A    between atoms: C_9  and  C_10
REMARK    5  A    between atoms: C_13  and  C_14
REMARK    6  A    between atoms: C_14  and  O_16
REMARK    7  A    between atoms: C_21  and  C_22
REMARK    8  A    between atoms: N_24  and  C_25
REMARK    9  A    between atoms: C_25  and  C_26
REMARK                            x       y       z     vdW  Elec       q    Type
REMARK                         _______ _______ _______ _____ _____    ______ ____
ROOT
ATOM      1  C   UNL     1      -0.419  10.014  22.329  0.00  0.00    +0.000 C 
ATOM      2  C   UNL     1      -0.480  10.057  20.832  0.00  0.00    +0.000 A 
ATOM      3  C   UNL     1      -1.628  10.492  20.177  0.00  0.00    +0.000 A 
ATOM      4  C   UNL     1      -1.650  10.528  18.777  0.00  0.00    +0.000 A 
ATOM      5  C   UNL     1      -0.509  10.122  18.079  0.00  0.00    +0.000 A 
ATOM      6  C   UNL     1       0.599   9.714  18.809  0.00  0.00    +0.000 A 
ATOM      7  N   UNL     1       0.635   9.667  20.170  0.00  0.00    +0.000 NA
ENDROOT
BRANCH   4   8
ATOM      8  C   UNL     1      -2.844  10.985  18.075  0.00  0.00    +0.000 A 
ATOM      9  N   UNL     1      -2.864  11.247  16.722  0.00  0.00    +0.000 NA
ATOM     10  N   UNL     1      -4.081  11.678  16.427  0.00  0.00    +0.000 NA
ATOM     11  N   UNL     1      -4.751  11.641  17.593  0.00  0.00    +0.000 N 
ATOM     12  N   UNL     1      -4.030  11.230  18.659  0.00  0.00    +0.000 NA
BRANCH  11  13
ATOM     13  C   UNL     1      -6.043  12.285  17.744  0.00  0.00    +0.000 C 
BRANCH  13  14
ATOM     14  C   UNL     1      -6.535  12.296  19.171  0.00  0.00    +0.000 A 
ATOM     15  C   UNL     1      -7.401  11.295  19.632  0.00  0.00    +0.000 A 
ATOM     16  C   UNL     1      -7.775  11.244  20.978  0.00  0.00    +0.000 A 
ATOM     17  C   UNL     1      -7.301  12.199  21.885  0.00  0.00    +0.000 A 
ATOM     18  C   UNL     1      -6.459  13.221  21.427  0.00  0.00    +0.000 A 
ATOM     19  C   UNL     1      -6.090  13.274  20.076  0.00  0.00    +0.000 A 
BRANCH  17  20
ATOM     20  C   UNL     1      -7.660  12.029  23.320  0.00  0.00    +0.000 C 
ATOM     21  O   UNL     1      -7.916  12.974  24.045  0.00  0.00    +0.000 OA
BRANCH  20  22
ATOM     22  O   UNL     1      -7.662  10.755  23.757  0.00  0.00    +0.000 OA
ATOM     23  H   UNL     1      -7.496  10.632  24.708  0.00  0.00    +0.000 HD
ENDBRANCH  20  22
ENDBRANCH  17  20
ENDBRANCH  13  14
ENDBRANCH  11  13
ENDBRANCH   4   8
BRANCH   6  24
ATOM     24  C   UNL     1       1.869   9.316  18.107  0.00  0.00    +0.000 C 
ATOM     25  O   UNL     1       2.438  10.082  17.338  0.00  0.00    +0.000 OA
ATOM     26  N   UNL     1       2.326   8.050  18.412  0.00  0.00    +0.000 N 
ATOM     27  H   UNL     1       1.748   7.500  19.041  0.00  0.00    +0.000 HD
BRANCH  26  28
ATOM     28  C   UNL     1       3.520   7.472  17.838  0.00  0.00    +0.000 C 
BRANCH  28  29
ATOM     29  C   UNL     1       3.413   5.973  17.664  0.00  0.00    +0.000 A 
ATOM     30  C   UNL     1       2.332   5.267  18.220  0.00  0.00    +0.000 A 
ATOM     31  C   UNL     1       2.260   3.872  18.127  0.00  0.00    +0.000 A 
ATOM     32  C   UNL     1       3.274   3.175  17.479  0.00  0.00    +0.000 A 
ATOM     33  F   UNL     1       3.209   1.838  17.405  0.00  0.00    +0.000 F 
ATOM     34  C   UNL     1       4.347   3.857  16.925  0.00  0.00    +0.000 A 
ATOM     35  F   UNL     1       5.329   3.183  16.311  0.00  0.00    +0.000 F 
ATOM     36  C   UNL     1       4.424   5.249  17.011  0.00  0.00    +0.000 A 
ENDBRANCH  28  29
ENDBRANCH  26  28
ENDBRANCH   6  24
TORSDOF 8
ENDMDL
MODEL 3
REMARK VINA RESULT:      -8.3      3.157      3.882
REMARK  Name = 
REMARK  9 active torsions:
REMARK  status: ('A' for Active; 'I' for Inactive)
REMARK    1  A    between atoms: C_1  and  C_2
REMARK    2  A    between atoms: C_4  and  C_5
REMARK    3  A    between atoms: N_8  and  C_9
REMARK    4  A    between atoms: C_9  and  C_10
REMARK    5  A    between atoms: C_13  and  C_14
REMARK    6  A    between atoms: C_14  and  O_16
REMARK    7  A    between atoms: C_21  and  C_22
REMARK    8  A    between atoms: N_24  and  C_25
REMARK    9  A    between atoms: C_25  and  C_26
REMARK                            x       y       z     vdW  Elec       q    Type
REMARK                         _______ _______ _______ _____ _____    ______ ____
ROOT
ATOM      1  C   UNL     1       1.782   3.718  21.457  0.00  0.00    +0.000 C 
ATOM      2  C   UNL     1       2.356   4.818  20.616  0.00  0.00    +0.000 A 
ATOM      3  C   UNL     1       1.729   6.057  20.539  0.00  0.00    +0.000 A 
ATOM      4  C   UNL     1       2.294   7.067  19.750  0.00  0.00    +0.000 A 
ATOM      5  C   UNL     1       3.480   6.794  19.062  0.00  0.00    +0.000 A 
ATOM      6  C   UNL     1       4.049   5.534  19.204  0.00  0.00    +0.000 A 
ATOM      7  N   UNL     1       3.508   4.540  19.961  0.00  0.00    +0.000 NA
ENDROOT
BRANCH   4   8
ATOM      8  C   UNL     1       1.651   8.373  19.660  0.00  0.00    +0.000 A 
ATOM      9  N   UNL     1       1.119   8.867  18.489  0.00  0.00    +0.000 NA
ATOM     10  N   UNL     1       0.659  10.081  18.753  0.00  0.00    +0.000 NA
ATOM     11  N   UNL     1       0.906  10.265  20.062  0.00  0.00    +0.000 N 
ATOM     12  N   UNL     1       1.535   9.242  20.680  0.00  0.00    +0.000 NA
BRANCH  11  13
ATOM     13  C   UNL     1       0.789  11.575  20.677  0.00  0.00    +0.000 C 
BRANCH  13  14
ATOM     14  C   UNL     1      -0.554  11.805  21.328  0.00  0.00    +0.000 A 
ATOM     15  C   UNL     1      -0.806  11.332  22.623  0.00  0.00    +0.000 A 
ATOM     16  C   UNL     1      -2.009  11.633  23.267  0.00  0.00    +0.000 A 
ATOM     17  C   UNL     1      -2.987  12.401  22.625  0.00  0.00    +0.000 A 
ATOM     18  C   UNL     1      -2.756  12.854  21.319  0.00  0.00    +0.000 A 
ATOM     19  C   UNL     1      -1.551  12.546  20.673  0.00  0.00    +0.000 A 
BRANCH  17  20
ATOM     20  C   UNL     1      -4.202  12.766  23.405  0.00  0.00    +0.000 C 
ATOM     21  O   UNL     1      -4.688  12.026  24.242  0.00  0.00    +0.000 OA
BRANCH  20  22
ATOM     22  O   UNL     1      -4.731  13.967  23.101  0.00  0.00    +0.000 OA
ATOM     23  H   UNL     1      -4.106  14.713  23.078  0.00  0.00    +0.000 HD
ENDBRANCH  20  22
ENDBRANCH  17  20
ENDBRANCH  13  14
ENDBRANCH  11  13
ENDBRANCH   4   8
BRANCH   6  24
ATOM     24  C   UNL     1       5.351   5.207  18.527  0.00  0.00    +0.000 C 
ATOM     25  O   UNL     1       6.118   4.370  18.991  0.00  0.00    +0.000 OA
ATOM     26  N   UNL     1       5.589   5.907  17.361  0.00  0.00    +0.000 N 
ATOM     27  H   UNL     1       4.891   6.596  17.097  0.00  0.00    +0.000 HD
BRANCH  26  28
ATOM     28  C   UNL     1       6.785   5.750  16.564  0.00  0.00    +0.000 C 
BRANCH  28  29
ATOM     29  C   UNL     1       6.515   5.075  15.238  0.00  0.00    +0.000 A 
ATOM     30  C   UNL     1       5.431   4.189  15.098  0.00  0.00    +0.000 A 
ATOM     31  C   UNL     1       5.214   3.504  13.897  0.00  0.00    +0.000 A 
ATOM     32  C   UNL     1       6.083   3.698  12.830  0.00  0.00    +0.000 A 
ATOM     33  F   UNL     1       5.881   3.029  11.686  0.00  0.00    +0.000 F 
ATOM     34  C   UNL     1       7.157   4.568  12.952  0.00  0.00    +0.000 A 
ATOM     35  F   UNL     1       8.001   4.745  11.927  0.00  0.00    +0.000 F 
ATOM     36  C   UNL     1       7.379   5.258  14.146  0.00  0.00    +0.000 A 
ENDBRANCH  28  29
ENDBRANCH  26  28
ENDBRANCH   6  24
TORSDOF 8
ENDMDL
MODEL 4
REMARK VINA RESULT:      -8.2      0.731      1.061
REMARK  Name = 
REMARK  9 active torsions:
REMARK  status: ('A' for Active; 'I' for Inactive)
REMARK    1  A    between atoms: C_1  and  C_2
REMARK    2  A    between atoms: C_4  and  C_5
REMARK    3  A    between atoms: N_8  and  C_9
REMARK    4  A    between atoms: C_9  and  C_10
REMARK    5  A    between atoms: C_13  and  C_14
REMARK    6  A    between atoms: C_14  and  O_16
REMARK    7  A    between atoms: C_21  and  C_22
REMARK    8  A    between atoms: N_24  and  C_25
REMARK    9  A    between atoms: C_25  and  C_26
REMARK                            x       y       z     vdW  Elec       q    Type
REMARK                         _______ _______ _______ _____ _____    ______ ____
ROOT
ATOM      1  C   UNL     1       0.935   3.107  20.542  0.00  0.00    +0.000 C 
ATOM      2  C   UNL     1       1.766   4.305  20.193  0.00  0.00    +0.000 A 
ATOM      3  C   UNL     1       1.299   5.593  20.438  0.00  0.00    +0.000 A 
ATOM      4  C   UNL     1       2.102   6.691  20.108  0.00  0.00    +0.000 A 
ATOM      5  C   UNL     1       3.358   6.455  19.539  0.00  0.00    +0.000 A 
ATOM      6  C   UNL     1       3.754   5.139  19.340  0.00  0.00    +0.000 A 
ATOM      7  N   UNL     1       2.981   4.061  19.649  0.00  0.00    +0.000 NA
ENDROOT
BRANCH   4   8
ATOM      8  C   UNL     1       1.629   8.047  20.360  0.00  0.00    +0.000 A 
ATOM      9  N   UNL     1       1.372   8.528  21.626  0.00  0.00    +0.000 NA
ATOM     10  N   UNL     1       0.923   9.766  21.488  0.00  0.00    +0.000 NA
ATOM     11  N   UNL     1       0.945   9.994  20.162  0.00  0.00    +0.000 N 
ATOM     12  N   UNL     1       1.363   8.956  19.405  0.00  0.00    +0.000 NA
BRANCH  11  13
ATOM     13  C   UNL     1       0.280  11.146  19.581  0.00  0.00    +0.000 C 
BRANCH  13  14
ATOM     14  C   UNL     1       1.190  12.342  19.430  0.00  0.00    +0.000 A 
ATOM     15  C   UNL     1       1.170  13.373  20.379  0.00  0.00    +0.000 A 
ATOM     16  C   UNL     1       2.083  14.429  20.299  0.00  0.00    +0.000 A 
ATOM     17  C   UNL     1       3.023  14.479  19.263  0.00  0.00    +0.000 A 
ATOM     18  C   UNL     1       3.031  13.467  18.294  0.00  0.00    +0.000 A 
ATOM     19  C   UNL     1       2.111  12.413  18.372  0.00  0.00    +0.000 A 
BRANCH  17  20
ATOM     20  C   UNL     1       4.028  15.578  19.293  0.00  0.00    +0.000 C 
ATOM     21  O   UNL     1       3.972  16.534  18.541  0.00  0.00    +0.000 OA
BRANCH  20  22
ATOM     22  O   UNL     1       5.010  15.424  20.202  0.00  0.00    +0.000 OA
ATOM     23  H   UNL     1       4.877  15.878  21.052  0.00  0.00    +0.000 HD
ENDBRANCH  20  22
ENDBRANCH  17  20
ENDBRANCH  13  14
ENDBRANCH  11  13
ENDBRANCH   4   8
BRANCH   6  24
ATOM     24  C   UNL     1       5.115   4.830  18.779  0.00  0.00    +0.000 C 
ATOM     25  O   UNL     1       5.801   3.923  19.237  0.00  0.00    +0.000 OA
ATOM     26  N   UNL     1       5.502   5.633  17.725  0.00  0.00    +0.000 N 
ATOM     27  H   UNL     1       4.857   6.371  17.459  0.00  0.00    +0.000 HD
BRANCH  26  28
ATOM     28  C   UNL     1       6.775   5.510  17.053  0.00  0.00    +0.000 C 
BRANCH  28  29
ATOM     29  C   UNL     1       6.636   5.013  15.631  0.00  0.00    +0.000 A 
ATOM     30  C   UNL     1       5.690   4.023  15.312  0.00  0.00    +0.000 A 
ATOM     31  C   UNL     1       5.600   3.505  14.016  0.00  0.00    +0.000 A 
ATOM     32  C   UNL     1       6.462   3.972  13.029  0.00  0.00    +0.000 A 
ATOM     33  F   UNL     1       6.384   3.463  11.792  0.00  0.00    +0.000 F 
ATOM     34  C   UNL     1       7.401   4.949  13.328  0.00  0.00    +0.000 A 
ATOM     35  F   UNL     1       8.238   5.391  12.379  0.00  0.00    +0.000 F 
ATOM     36  C   UNL     1       7.494   5.474  14.618  0.00  0.00    +0.000 A 
ENDBRANCH  28  29
ENDBRANCH  26  28
ENDBRANCH   6  24
TORSDOF 8
ENDMDL
MODEL 5
REMARK VINA RESULT:      -8.1      3.337      4.122
REMARK  Name = 
REMARK  9 active torsions:
REMARK  status: ('A' for Active; 'I' for Inactive)
REMARK    1  A    between atoms: C_1  and  C_2
REMARK    2  A    between atoms: C_4  and  C_5
REMARK    3  A    between atoms: N_8  and  C_9
REMARK    4  A    between atoms: C_9  and  C_10
REMARK    5  A    between atoms: C_13  and  C_14
REMARK    6  A    between atoms: C_14  and  O_16
REMARK    7  A    between atoms: C_21  and  C_22
REMARK    8  A    between atoms: N_24  and  C_25
REMARK    9  A    between atoms: C_25  and  C_26
REMARK                            x       y       z     vdW  Elec       q    Type
REMARK                         _______ _______ _______ _____ _____    ______ ____
ROOT
ATOM      1  C   UNL     1       3.002   2.686  18.778  0.00  0.00    +0.000 C 
ATOM      2  C   UNL     1       3.197   4.139  18.467  0.00  0.00    +0.000 A 
ATOM      3  C   UNL     1       2.522   5.119  19.189  0.00  0.00    +0.000 A 
ATOM      4  C   UNL     1       2.731   6.468  18.879  0.00  0.00    +0.000 A 
ATOM      5  C   UNL     1       3.619   6.788  17.847  0.00  0.00    +0.000 A 
ATOM      6  C   UNL     1       4.261   5.750  17.185  0.00  0.00    +0.000 A 
ATOM      7  N   UNL     1       4.063   4.433  17.470  0.00  0.00    +0.000 NA
ENDROOT
BRANCH   4   8
ATOM      8  C   UNL     1       2.035   7.509  19.627  0.00  0.00    +0.000 A 
ATOM      9  N   UNL     1       1.346   7.259  20.794  0.00  0.00    +0.000 NA
ATOM     10  N   UNL     1       0.805   8.405  21.180  0.00  0.00    +0.000 NA
ATOM     11  N   UNL     1       1.200   9.299  20.256  0.00  0.00    +0.000 N 
ATOM     12  N   UNL     1       1.957   8.798  19.255  0.00  0.00    +0.000 NA
BRANCH  11  13
ATOM     13  C   UNL     1       0.601  10.619  20.176  0.00  0.00    +0.000 C 
BRANCH  13  14
ATOM     14  C   UNL     1      -0.599  10.670  19.261  0.00  0.00    +0.000 A 
ATOM     15  C   UNL     1      -1.684  11.506  19.559  0.00  0.00    +0.000 A 
ATOM     16  C   UNL     1      -2.749  11.634  18.662  0.00  0.00    +0.000 A 
ATOM     17  C   UNL     1      -2.754  10.921  17.458  0.00  0.00    +0.000 A 
ATOM     18  C   UNL     1      -1.687  10.061  17.165  0.00  0.00    +0.000 A 
ATOM     19  C   UNL     1      -0.624   9.929  18.069  0.00  0.00    +0.000 A 
BRANCH  17  20
ATOM     20  C   UNL     1      -3.870  11.178  16.506  0.00  0.00    +0.000 C 
ATOM     21  O   UNL     1      -4.101  10.447  15.559  0.00  0.00    +0.000 OA
BRANCH  20  22
ATOM     22  O   UNL     1      -4.590  12.287  16.763  0.00  0.00    +0.000 OA
ATOM     23  H   UNL     1      -4.438  12.700  17.631  0.00  0.00    +0.000 HD
ENDBRANCH  20  22
ENDBRANCH  17  20
ENDBRANCH  13  14
ENDBRANCH  11  13
ENDBRANCH   4   8
BRANCH   6  24
ATOM     24  C   UNL     1       5.264   6.042  16.103  0.00  0.00    +0.000 C 
ATOM     25  O   UNL     1       5.612   7.190  15.850  0.00  0.00    +0.000 OA
ATOM     26  N   UNL     1       5.750   4.928  15.448  0.00  0.00    +0.000 N 
ATOM     27  H   UNL     1       5.359   4.033  15.729  0.00  0.00    +0.000 HD
BRANCH  26  28
ATOM     28  C   UNL     1       6.710   4.990  14.370  0.00  0.00    +0.000 C 
BRANCH  28  29
ATOM     29  C   UNL     1       6.376   4.043  13.239  0.00  0.00    +0.000 A 
ATOM     30  C   UNL     1       5.039   3.698  12.972  0.00  0.00    +0.000 A 
ATOM     31  C   UNL     1       4.723   2.768  11.975  0.00  0.00    +0.000 A 
ATOM     32  C   UNL     1       5.744   2.174  11.241  0.00  0.00    +0.000 A 
ATOM     33  F   UNL     1       5.438   1.273  10.298  0.00  0.00    +0.000 F 
ATOM     34  C   UNL     1       7.068   2.504  11.493  0.00  0.00    +0.000 A 
ATOM     35  F   UNL     1       8.052   1.923  10.794  0.00  0.00    +0.000 F 
ATOM     36  C   UNL     1       7.391   3.434  12.484  0.00  0.00    +0.000 A 
ENDBRANCH  28  29
ENDBRANCH  26  28
ENDBRANCH   6  24
TORSDOF 8
ENDMDL
MODEL 6
REMARK VINA RESULT:      -8.0      5.596     10.854
REMARK  Name = 
REMARK  9 active torsions:
REMARK  status: ('A' for Active; 'I' for Inactive)
REMARK    1  A    between atoms: C_1  and  C_2
REMARK    2  A    between atoms: C_4  and  C_5
REMARK    3  A    between atoms: N_8  and  C_9
REMARK    4  A    between atoms: C_9  and  C_10
REMARK    5  A    between atoms: C_13  and  C_14
REMARK    6  A    between atoms: C_14  and  O_16
REMARK    7  A    between atoms: C_21  and  C_22
REMARK    8  A    between atoms: N_24  and  C_25
REMARK    9  A    between atoms: C_25  and  C_26
REMARK                            x       y       z     vdW  Elec       q    Type
REMARK                         _______ _______ _______ _____ _____    ______ ____
ROOT
ATOM      1  C   UNL     1       1.582  10.534  18.038  0.00  0.00    +0.000 C 
ATOM      2  C   UNL     1       1.388   9.656  19.238  0.00  0.00    +0.000 A 
ATOM      3  C   UNL     1       1.821   8.334  19.231  0.00  0.00    +0.000 A 
ATOM      4  C   UNL     1       1.632   7.542  20.371  0.00  0.00    +0.000 A 
ATOM      5  C   UNL     1       1.011   8.112  21.487  0.00  0.00    +0.000 A 
ATOM      6  C   UNL     1       0.622   9.443  21.415  0.00  0.00    +0.000 A 
ATOM      7  N   UNL     1       0.791  10.224  20.312  0.00  0.00    +0.000 NA
ENDROOT
BRANCH   4   8
ATOM      8  C   UNL     1       2.082   6.155  20.382  0.00  0.00    +0.000 A 
ATOM      9  N   UNL     1       1.521   5.192  21.192  0.00  0.00    +0.000 NA
ATOM     10  N   UNL     1       2.190   4.068  20.981  0.00  0.00    +0.000 NA
ATOM     11  N   UNL     1       3.106   4.383  20.047  0.00  0.00    +0.000 N 
ATOM     12  N   UNL     1       3.097   5.673  19.644  0.00  0.00    +0.000 NA
BRANCH  11  13
ATOM     13  C   UNL     1       4.207   3.490  19.736  0.00  0.00    +0.000 C 
BRANCH  13  14
ATOM     14  C   UNL     1       4.939   3.872  18.471  0.00  0.00    +0.000 A 
ATOM     15  C   UNL     1       4.394   3.567  17.216  0.00  0.00    +0.000 A 
ATOM     16  C   UNL     1       5.016   4.010  16.046  0.00  0.00    +0.000 A 
ATOM     17  C   UNL     1       6.200   4.755  16.107  0.00  0.00    +0.000 A 
ATOM     18  C   UNL     1       6.768   5.039  17.357  0.00  0.00    +0.000 A 
ATOM     19  C   UNL     1       6.145   4.588  18.529  0.00  0.00    +0.000 A 
BRANCH  17  20
ATOM     20  C   UNL     1       6.756   5.277  14.829  0.00  0.00    +0.000 C 
ATOM     21  O   UNL     1       7.933   5.162  14.533  0.00  0.00    +0.000 OA
BRANCH  20  22
ATOM     22  O   UNL     1       5.864   5.902  14.035  0.00  0.00    +0.000 OA
ATOM     23  H   UNL     1       6.055   6.834  13.833  0.00  0.00    +0.000 HD
ENDBRANCH  20  22
ENDBRANCH  17  20
ENDBRANCH  13  14
ENDBRANCH  11  13
ENDBRANCH   4   8
BRANCH   6  24
ATOM     24  C   UNL     1      -0.004  10.118  22.605  0.00  0.00    +0.000 C 
ATOM     25  O   UNL     1       0.164   9.690  23.741  0.00  0.00    +0.000 OA
ATOM     26  N   UNL     1      -0.752  11.239  22.307  0.00  0.00    +0.000 N 
ATOM     27  H   UNL     1      -0.841  11.474  21.322  0.00  0.00    +0.000 HD
BRANCH  26  28
ATOM     28  C   UNL     1      -1.445  12.025  23.302  0.00  0.00    +0.000 C 
BRANCH  28  29
ATOM     29  C   UNL     1      -2.829  12.441  22.854  0.00  0.00    +0.000 A 
ATOM     30  C   UNL     1      -3.858  12.621  23.795  0.00  0.00    +0.000 A 
ATOM     31  C   UNL     1      -5.159  12.935  23.386  0.00  0.00    +0.000 A 
ATOM     32  C   UNL     1      -5.439  13.068  22.030  0.00  0.00    +0.000 A 
ATOM     33  F   UNL     1      -6.689  13.354  21.642  0.00  0.00    +0.000 F 
ATOM     34  C   UNL     1      -4.434  12.893  21.090  0.00  0.00    +0.000 A 
ATOM     35  F   UNL     1      -4.707  13.009  19.783  0.00  0.00    +0.000 F 
ATOM     36  C   UNL     1      -3.133  12.583  21.490  0.00  0.00    +0.000 A 
ENDBRANCH  28  29
ENDBRANCH  26  28
ENDBRANCH   6  24
TORSDOF 8
ENDMDL
MODEL 7
REMARK VINA RESULT:      -8.0      3.134      3.926
REMARK  Name = 
REMARK  9 active torsions:
REMARK  status: ('A' for Active; 'I' for Inactive)
REMARK    1  A    between atoms: C_1  and  C_2
REMARK    2  A    between atoms: C_4  and  C_5
REMARK    3  A    between atoms: N_8  and  C_9
REMARK    4  A    between atoms: C_9  and  C_10
REMARK    5  A    between atoms: C_13  and  C_14
REMARK    6  A    between atoms: C_14  and  O_16
REMARK    7  A    between atoms: C_21  and  C_22
REMARK    8  A    between atoms: N_24  and  C_25
REMARK    9  A    between atoms: C_25  and  C_26
REMARK                            x       y       z     vdW  Elec       q    Type
REMARK                         _______ _______ _______ _____ _____    ______ ____
ROOT
ATOM      1  C   UNL     1       1.763   3.088  21.458  0.00  0.00    +0.000 C 
ATOM      2  C   UNL     1       2.346   4.245  20.705  0.00  0.00    +0.000 A 
ATOM      3  C   UNL     1       1.714   5.485  20.704  0.00  0.00    +0.000 A 
ATOM      4  C   UNL     1       2.288   6.549  19.997  0.00  0.00    +0.000 A 
ATOM      5  C   UNL     1       3.487   6.328  19.312  0.00  0.00    +0.000 A 
ATOM      6  C   UNL     1       4.058   5.064  19.375  0.00  0.00    +0.000 A 
ATOM      7  N   UNL     1       3.509   4.018  20.052  0.00  0.00    +0.000 NA
ENDROOT
BRANCH   4   8
ATOM      8  C   UNL     1       1.641   7.856  19.988  0.00  0.00    +0.000 A 
ATOM      9  N   UNL     1       0.734   8.251  20.947  0.00  0.00    +0.000 NA
ATOM     10  N   UNL     1       0.317   9.463  20.613  0.00  0.00    +0.000 NA
ATOM     11  N   UNL     1       0.995   9.762  19.491  0.00  0.00    +0.000 N 
ATOM     12  N   UNL     1       1.826   8.795  19.044  0.00  0.00    +0.000 NA
BRANCH  11  13
ATOM     13  C   UNL     1       0.626  10.898  18.665  0.00  0.00    +0.000 C 
BRANCH  13  14
ATOM     14  C   UNL     1      -0.867  11.074  18.533  0.00  0.00    +0.000 A 
ATOM     15  C   UNL     1      -1.619  10.193  17.743  0.00  0.00    +0.000 A 
ATOM     16  C   UNL     1      -3.013  10.290  17.702  0.00  0.00    +0.000 A 
ATOM     17  C   UNL     1      -3.680  11.275  18.439  0.00  0.00    +0.000 A 
ATOM     18  C   UNL     1      -2.934  12.179  19.209  0.00  0.00    +0.000 A 
ATOM     19  C   UNL     1      -1.536  12.084  19.243  0.00  0.00    +0.000 A 
BRANCH  17  20
ATOM     20  C   UNL     1      -5.169  11.260  18.427  0.00  0.00    +0.000 C 
ATOM     21  O   UNL     1      -5.812  11.193  17.395  0.00  0.00    +0.000 OA
BRANCH  20  22
ATOM     22  O   UNL     1      -5.746  11.344  19.641  0.00  0.00    +0.000 OA
ATOM     23  H   UNL     1      -5.139  11.342  20.402  0.00  0.00    +0.000 HD
ENDBRANCH  20  22
ENDBRANCH  17  20
ENDBRANCH  13  14
ENDBRANCH  11  13
ENDBRANCH   4   8
BRANCH   6  24
ATOM     24  C   UNL     1       5.373   4.789  18.698  0.00  0.00    +0.000 C 
ATOM     25  O   UNL     1       6.002   3.761  18.923  0.00  0.00    +0.000 OA
ATOM     26  N   UNL     1       5.786   5.768  17.817  0.00  0.00    +0.000 N 
ATOM     27  H   UNL     1       5.191   6.588  17.741  0.00  0.00    +0.000 HD
BRANCH  26  28
ATOM     28  C   UNL     1       7.024   5.703  17.074  0.00  0.00    +0.000 C 
BRANCH  28  29
ATOM     29  C   UNL     1       6.837   5.143  15.681  0.00  0.00    +0.000 A 
ATOM     30  C   UNL     1       7.855   5.272  14.720  0.00  0.00    +0.000 A 
ATOM     31  C   UNL     1       7.666   4.821  13.408  0.00  0.00    +0.000 A 
ATOM     32  C   UNL     1       6.453   4.242  13.050  0.00  0.00    +0.000 A 
ATOM     33  F   UNL     1       6.270   3.825  11.790  0.00  0.00    +0.000 F 
ATOM     34  C   UNL     1       5.440   4.107  13.988  0.00  0.00    +0.000 A 
ATOM     35  F   UNL     1       4.267   3.559  13.639  0.00  0.00    +0.000 F 
ATOM     36  C   UNL     1       5.622   4.551  15.299  0.00  0.00    +0.000 A 
ENDBRANCH  28  29
ENDBRANCH  26  28
ENDBRANCH   6  24
TORSDOF 8
ENDMDL
MODEL 8
REMARK VINA RESULT:      -7.9      2.199      2.668
REMARK  Name = 
REMARK  9 active torsions:
REMARK  status: ('A' for Active; 'I' for Inactive)
REMARK    1  A    between atoms: C_1  and  C_2
REMARK    2  A    between atoms: C_4  and  C_5
REMARK    3  A    between atoms: N_8  and  C_9
REMARK    4  A    between atoms: C_9  and  C_10
REMARK    5  A    between atoms: C_13  and  C_14
REMARK    6  A    between atoms: C_14  and  O_16
REMARK    7  A    between atoms: C_21  and  C_22
REMARK    8  A    between atoms: N_24  and  C_25
REMARK    9  A    between atoms: C_25  and  C_26
REMARK                            x       y       z     vdW  Elec       q    Type
REMARK                         _______ _______ _______ _____ _____    ______ ____
ROOT
ATOM      1  C   UNL     1       1.183   2.880  20.487  0.00  0.00    +0.000 C 
ATOM      2  C   UNL     1       1.947   4.132  20.181  0.00  0.00    +0.000 A 
ATOM      3  C   UNL     1       1.416   5.383  20.483  0.00  0.00    +0.000 A 
ATOM      4  C   UNL     1       2.159   6.534  20.192  0.00  0.00    +0.000 A 
ATOM      5  C   UNL     1       3.419   6.387  19.605  0.00  0.00    +0.000 A 
ATOM      6  C   UNL     1       3.881   5.102  19.349  0.00  0.00    +0.000 A 
ATOM      7  N   UNL     1       3.168   3.974  19.619  0.00  0.00    +0.000 NA
ENDROOT
BRANCH   4   8
ATOM      8  C   UNL     1       1.619   7.852  20.504  0.00  0.00    +0.000 A 
ATOM      9  N   UNL     1       1.370   8.275  21.792  0.00  0.00    +0.000 NA
ATOM     10  N   UNL     1       0.850   9.490  21.709  0.00  0.00    +0.000 NA
ATOM     11  N   UNL     1       0.825   9.764  20.392  0.00  0.00    +0.000 N 
ATOM     12  N   UNL     1       1.278   8.776  19.589  0.00  0.00    +0.000 NA
BRANCH  11  13
ATOM     13  C   UNL     1       0.082  10.896  19.869  0.00  0.00    +0.000 C 
BRANCH  13  14
ATOM     14  C   UNL     1      -0.095  12.005  20.878  0.00  0.00    +0.000 A 
ATOM     15  C   UNL     1       0.825  13.060  20.943  0.00  0.00    +0.000 A 
ATOM     16  C   UNL     1       0.608  14.140  21.803  0.00  0.00    +0.000 A 
ATOM     17  C   UNL     1      -0.525  14.179  22.623  0.00  0.00    +0.000 A 
ATOM     18  C   UNL     1      -1.436  13.115  22.586  0.00  0.00    +0.000 A 
ATOM     19  C   UNL     1      -1.213  12.030  21.728  0.00  0.00    +0.000 A 
BRANCH  17  20
ATOM     20  C   UNL     1      -0.745  15.403  23.443  0.00  0.00    +0.000 C 
ATOM     21  O   UNL     1      -0.951  16.495  22.944  0.00  0.00    +0.000 OA
BRANCH  20  22
ATOM     22  O   UNL     1      -0.680  15.212  24.775  0.00  0.00    +0.000 OA
ATOM     23  H   UNL     1      -0.788  14.293  25.078  0.00  0.00    +0.000 HD
ENDBRANCH  20  22
ENDBRANCH  17  20
ENDBRANCH  13  14
ENDBRANCH  11  13
ENDBRANCH   4   8
BRANCH   6  24
ATOM     24  C   UNL     1       5.251   4.887  18.766  0.00  0.00    +0.000 C 
ATOM     25  O   UNL     1       6.040   4.095  19.268  0.00  0.00    +0.000 OA
ATOM     26  N   UNL     1       5.523   5.636  17.638  0.00  0.00    +0.000 N 
ATOM     27  H   UNL     1       4.798   6.281  17.338  0.00  0.00    +0.000 HD
BRANCH  26  28
ATOM     28  C   UNL     1       6.783   5.588  16.932  0.00  0.00    +0.000 C 
BRANCH  28  29
ATOM     29  C   UNL     1       6.642   5.043  15.528  0.00  0.00    +0.000 A 
ATOM     30  C   UNL     1       5.707   4.031  15.248  0.00  0.00    +0.000 A 
ATOM     31  C   UNL     1       5.616   3.469  13.970  0.00  0.00    +0.000 A 
ATOM     32  C   UNL     1       6.467   3.915  12.963  0.00  0.00    +0.000 A 
ATOM     33  F   UNL     1       6.388   3.364  11.744  0.00  0.00    +0.000 F 
ATOM     34  C   UNL     1       7.395   4.912  13.224  0.00  0.00    +0.000 A 
ATOM     35  F   UNL     1       8.222   5.333  12.256  0.00  0.00    +0.000 F 
ATOM     36  C   UNL     1       7.489   5.480  14.496  0.00  0.00    +0.000 A 
ENDBRANCH  28  29
ENDBRANCH  26  28
ENDBRANCH   6  24
TORSDOF 8
ENDMDL
MODEL 9
REMARK VINA RESULT:      -7.9      4.245      9.379
REMARK  Name = 
REMARK  9 active torsions:
REMARK  status: ('A' for Active; 'I' for Inactive)
REMARK    1  A    between atoms: C_1  and  C_2
REMARK    2  A    between atoms: C_4  and  C_5
REMARK    3  A    between atoms: N_8  and  C_9
REMARK    4  A    between atoms: C_9  and  C_10
REMARK    5  A    between atoms: C_13  and  C_14
REMARK    6  A    between atoms: C_14  and  O_16
REMARK    7  A    between atoms: C_21  and  C_22
REMARK    8  A    between atoms: N_24  and  C_25
REMARK    9  A    between atoms: C_25  and  C_26
REMARK                            x       y       z     vdW  Elec       q    Type
REMARK                         _______ _______ _______ _____ _____    ______ ____
ROOT
ATOM      1  C   UNL     1       0.818  17.910  17.793  0.00  0.00    +0.000 C 
ATOM      2  C   UNL     1       1.695  16.886  18.447  0.00  0.00    +0.000 A 
ATOM      3  C   UNL     1       1.170  15.674  18.885  0.00  0.00    +0.000 A 
ATOM      4  C   UNL     1       2.017  14.734  19.486  0.00  0.00    +0.000 A 
ATOM      5  C   UNL     1       3.373  15.047  19.626  0.00  0.00    +0.000 A 
ATOM      6  C   UNL     1       3.818  16.274  19.150  0.00  0.00    +0.000 A 
ATOM      7  N   UNL     1       3.006  17.201  18.570  0.00  0.00    +0.000 NA
ENDROOT
BRANCH   4   8
ATOM      8  C   UNL     1       1.485  13.457  19.948  0.00  0.00    +0.000 A 
ATOM      9  N   UNL     1       1.792  12.919  21.179  0.00  0.00    +0.000 NA
ATOM     10  N   UNL     1       1.179  11.747  21.255  0.00  0.00    +0.000 NA
ATOM     11  N   UNL     1       0.514  11.631  20.091  0.00  0.00    +0.000 N 
ATOM     12  N   UNL     1       0.676  12.659  19.229  0.00  0.00    +0.000 NA
BRANCH  11  13
ATOM     13  C   UNL     1      -0.070  10.368  19.675  0.00  0.00    +0.000 C 
BRANCH  13  14
ATOM     14  C   UNL     1       0.964   9.335  19.297  0.00  0.00    +0.000 A 
ATOM     15  C   UNL     1       1.346   8.345  20.212  0.00  0.00    +0.000 A 
ATOM     16  C   UNL     1       2.224   7.326  19.831  0.00  0.00    +0.000 A 
ATOM     17  C   UNL     1       2.744   7.285  18.532  0.00  0.00    +0.000 A 
ATOM     18  C   UNL     1       2.390   8.287  17.619  0.00  0.00    +0.000 A 
ATOM     19  C   UNL     1       1.515   9.311  18.006  0.00  0.00    +0.000 A 
BRANCH  17  20
ATOM     20  C   UNL     1       3.595   6.119  18.164  0.00  0.00    +0.000 C 
ATOM     21  O   UNL     1       3.335   4.983  18.520  0.00  0.00    +0.000 OA
BRANCH  20  22
ATOM     22  O   UNL     1       4.679   6.420  17.423  0.00  0.00    +0.000 OA
ATOM     23  H   UNL     1       5.434   6.797  17.909  0.00  0.00    +0.000 HD
ENDBRANCH  20  22
ENDBRANCH  17  20
ENDBRANCH  13  14
ENDBRANCH  11  13
ENDBRANCH   4   8
BRANCH   6  24
ATOM     24  C   UNL     1       5.275  16.638  19.229  0.00  0.00    +0.000 C 
ATOM     25  O   UNL     1       5.716  17.628  18.657  0.00  0.00    +0.000 OA
ATOM     26  N   UNL     1       6.044  15.784  19.994  0.00  0.00    +0.000 N 
ATOM     27  H   UNL     1       5.566  14.980  20.391  0.00  0.00    +0.000 HD
BRANCH  26  28
ATOM     28  C   UNL     1       7.466  15.947  20.189  0.00  0.00    +0.000 C 
BRANCH  28  29
ATOM     29  C   UNL     1       8.273  14.852  19.528  0.00  0.00    +0.000 A 
ATOM     30  C   UNL     1       9.606  14.619  19.911  0.00  0.00    +0.000 A 
ATOM     31  C   UNL     1      10.384  13.657  19.258  0.00  0.00    +0.000 A 
ATOM     32  C   UNL     1       9.833  12.923  18.213  0.00  0.00    +0.000 A 
ATOM     33  F   UNL     1      10.586  12.013  17.579  0.00  0.00    +0.000 F 
ATOM     34  C   UNL     1       8.520  13.141  17.823  0.00  0.00    +0.000 A 
ATOM     35  F   UNL     1       7.994  12.442  16.808  0.00  0.00    +0.000 F 
ATOM     36  C   UNL     1       7.736  14.097  18.472  0.00  0.00    +0.000 A 
ENDBRANCH  28  29
ENDBRANCH  26  28
ENDBRANCH   6  24
TORSDOF 8
ENDMDL
