MODEL 1
REMARK VINA RESULT:      -6.9      0.000      0.000
REMARK  Name = 
REMARK  14 active torsions:
REMARK  status: ('A' for Active; 'I' for Inactive)
REMARK    1  A    between atoms: C_1  and  C_2
REMARK    2  A    between atoms: C_2  and  C_3
REMARK    3  A    between atoms: C_3  and  C_4
REMARK    4  A    between atoms: C_3  and  C_6
REMARK    5  A    between atoms: C_4  and  C_5
REMARK    6  A    between atoms: C_6  and  C_7
REMARK    7  A    between atoms: C_10  and  O_11
REMARK    8  A    between atoms: O_11  and  C_12
REMARK    9  A    between atoms: C_12  and  C_13
REMARK   10  A    between atoms: C_13  and  C_14
REMARK   11  A    between atoms: N_15  and  O_16
REMARK   12  A    between atoms: O_16  and  C_17
REMARK   13  A    between atoms: C_17  and  C_18
REMARK   14  A    between atoms: C_17  and  C_19
REMARK                            x       y       z     vdW  Elec       q    Type
REMARK                         _______ _______ _______ _____ _____    ______ ____
ROOT
ATOM      1  C   UNL     1       2.856   5.763  19.607  0.00  0.00    +0.000 A 
ATOM      2  C   UNL     1       2.641   6.643  18.544  0.00  0.00    +0.000 A 
ATOM      3  C   UNL     1       3.647   6.897  17.616  0.00  0.00    +0.000 A 
ATOM      4  C   UNL     1       4.902   6.297  17.736  0.00  0.00    +0.000 A 
ATOM      5  C   UNL     1       5.127   5.417  18.798  0.00  0.00    +0.000 A 
ATOM      6  C   UNL     1       4.112   5.153  19.728  0.00  0.00    +0.000 A 
ENDROOT
BRANCH   1   7
ATOM      7  C   UNL     1       1.746   5.488  20.594  0.00  0.00    +0.000 C 
BRANCH   7   8
ATOM      8  C   UNL     1       1.006   4.146  20.356  0.00  0.00    +0.000 C 
BRANCH   8  10
ATOM      9  C   UNL     1       0.714   2.220  18.674  0.00  0.00    +0.000 C 
ATOM     10  C   UNL     1       1.296   3.601  18.938  0.00  0.00    +0.000 C 
ENDBRANCH   8  10
BRANCH   8  11
ATOM     11  C   UNL     1       1.308   3.140  21.488  0.00  0.00    +0.000 C 
ATOM     12  C   UNL     1       2.719   2.568  21.487  0.00  0.00    +0.000 C 
ENDBRANCH   8  11
ENDBRANCH   7   8
ENDBRANCH   1   7
BRANCH   4  13
ATOM     13  O   UNL     1       5.960   6.504  16.880  0.00  0.00    +0.000 OA
BRANCH  13  14
ATOM     14  C   UNL     1       7.187   5.912  17.318  0.00  0.00    +0.000 C 
BRANCH  14  15
ATOM     15  C   UNL     1       7.566   4.721  16.458  0.00  0.00    +0.000 C 
BRANCH  15  16
ATOM     16  C   UNL     1       6.432   4.351  15.534  0.00  0.00    +0.000 C 
ATOM     17  N   UNL     1       6.501   4.568  14.258  0.00  0.00    +0.000 NA
BRANCH  17  18
ATOM     18  O   UNL     1       5.325   4.112  13.646  0.00  0.00    +0.000 OA
BRANCH  18  19
ATOM     19  C   UNL     1       5.669   3.269  12.537  0.00  0.00    +0.000 C 
ATOM     20  C   UNL     1       4.523   3.261  11.533  0.00  0.00    +0.000 C 
ATOM     21  C   UNL     1       6.937   3.829  11.905  0.00  0.00    +0.000 C 
ENDBRANCH  18  19
ENDBRANCH  17  18
ENDBRANCH  15  16
ENDBRANCH  14  15
ENDBRANCH  13  14
ENDBRANCH   4  13
TORSDOF 10
ENDMDL
MODEL 2
REMARK VINA RESULT:      -6.9      2.366      7.007
REMARK  Name = 
REMARK  14 active torsions:
REMARK  status: ('A' for Active; 'I' for Inactive)
REMARK    1  A    between atoms: C_1  and  C_2
REMARK    2  A    between atoms: C_2  and  C_3
REMARK    3  A    between atoms: C_3  and  C_4
REMARK    4  A    between atoms: C_3  and  C_6
REMARK    5  A    between atoms: C_4  and  C_5
REMARK    6  A    between atoms: C_6  and  C_7
REMARK    7  A    between atoms: C_10  and  O_11
REMARK    8  A    between atoms: O_11  and  C_12
REMARK    9  A    between atoms: C_12  and  C_13
REMARK   10  A    between atoms: C_13  and  C_14
REMARK   11  A    between atoms: N_15  and  O_16
REMARK   12  A    between atoms: O_16  and  C_17
REMARK   13  A    between atoms: C_17  and  C_18
REMARK   14  A    between atoms: C_17  and  C_19
REMARK                            x       y       z     vdW  Elec       q    Type
REMARK                         _______ _______ _______ _____ _____    ______ ____
ROOT
ATOM      1  C   UNL     1       5.839   4.192  14.332  0.00  0.00    +0.000 A 
ATOM      2  C   UNL     1       5.620   5.557  14.537  0.00  0.00    +0.000 A 
ATOM      3  C   UNL     1       5.186   6.029  15.772  0.00  0.00    +0.000 A 
ATOM      4  C   UNL     1       4.937   5.151  16.829  0.00  0.00    +0.000 A 
ATOM      5  C   UNL     1       5.150   3.784  16.631  0.00  0.00    +0.000 A 
ATOM      6  C   UNL     1       5.596   3.308  15.391  0.00  0.00    +0.000 A 
ENDROOT
BRANCH   1   7
ATOM      7  C   UNL     1       6.326   3.702  12.989  0.00  0.00    +0.000 C 
BRANCH   7   8
ATOM      8  C   UNL     1       5.272   2.891  12.190  0.00  0.00    +0.000 C 
BRANCH   8  10
ATOM      9  C   UNL     1       3.304   3.115  10.547  0.00  0.00    +0.000 C 
ATOM     10  C   UNL     1       4.429   3.823  11.290  0.00  0.00    +0.000 C 
ENDBRANCH   8  10
BRANCH   8  11
ATOM     11  C   UNL     1       5.933   1.718  11.434  0.00  0.00    +0.000 C 
ATOM     12  C   UNL     1       7.375   1.953  11.007  0.00  0.00    +0.000 C 
ENDBRANCH   8  11
ENDBRANCH   7   8
ENDBRANCH   1   7
BRANCH   4  13
ATOM     13  O   UNL     1       4.488   5.525  18.076  0.00  0.00    +0.000 OA
BRANCH  13  14
ATOM     14  C   UNL     1       3.780   6.769  18.090  0.00  0.00    +0.000 C 
BRANCH  14  15
ATOM     15  C   UNL     1       2.279   6.552  18.060  0.00  0.00    +0.000 C 
BRANCH  15  16
ATOM     16  C   UNL     1       1.941   5.123  18.403  0.00  0.00    +0.000 C 
ATOM     17  N   UNL     1       1.463   4.309  17.515  0.00  0.00    +0.000 NA
BRANCH  17  18
ATOM     18  O   UNL     1       1.261   3.051  18.100  0.00  0.00    +0.000 OA
BRANCH  18  19
ATOM     19  C   UNL     1       2.294   2.810  19.066  0.00  0.00    +0.000 C 
ATOM     20  C   UNL     1       1.661   2.428  20.399  0.00  0.00    +0.000 C 
ATOM     21  C   UNL     1       3.168   1.679  18.539  0.00  0.00    +0.000 C 
ENDBRANCH  18  19
ENDBRANCH  17  18
ENDBRANCH  15  16
ENDBRANCH  14  15
ENDBRANCH  13  14
ENDBRANCH   4  13
TORSDOF 10
ENDMDL
MODEL 3
REMARK VINA RESULT:      -6.8      3.015      5.311
REMARK  Name = 
REMARK  14 active torsions:
REMARK  status: ('A' for Active; 'I' for Inactive)
REMARK    1  A    between atoms: C_1  and  C_2
REMARK    2  A    between atoms: C_2  and  C_3
REMARK    3  A    between atoms: C_3  and  C_4
REMARK    4  A    between atoms: C_3  and  C_6
REMARK    5  A    between atoms: C_4  and  C_5
REMARK    6  A    between atoms: C_6  and  C_7
REMARK    7  A    between atoms: C_10  and  O_11
REMARK    8  A    between atoms: O_11  and  C_12
REMARK    9  A    between atoms: C_12  and  C_13
REMARK   10  A    between atoms: C_13  and  C_14
REMARK   11  A    between atoms: N_15  and  O_16
REMARK   12  A    between atoms: O_16  and  C_17
REMARK   13  A    between atoms: C_17  and  C_18
REMARK   14  A    between atoms: C_17  and  C_19
REMARK                            x       y       z     vdW  Elec       q    Type
REMARK                         _______ _______ _______ _____ _____    ______ ____
ROOT
ATOM      1  C   UNL     1       1.839   7.423  20.302  0.00  0.00    +0.000 A 
ATOM      2  C   UNL     1       1.647   6.097  20.697  0.00  0.00    +0.000 A 
ATOM      3  C   UNL     1       1.926   5.049  19.825  0.00  0.00    +0.000 A 
ATOM      4  C   UNL     1       2.381   5.296  18.528  0.00  0.00    +0.000 A 
ATOM      5  C   UNL     1       2.572   6.619  18.124  0.00  0.00    +0.000 A 
ATOM      6  C   UNL     1       2.302   7.676  19.004  0.00  0.00    +0.000 A 
ENDROOT
BRANCH   1   7
ATOM      7  C   UNL     1       1.547   8.546  21.270  0.00  0.00    +0.000 C 
BRANCH   7   8
ATOM      8  C   UNL     1       0.041   8.895  21.398  0.00  0.00    +0.000 C 
BRANCH   8  10
ATOM      9  C   UNL     1      -1.023  10.663  22.936  0.00  0.00    +0.000 C 
ATOM     10  C   UNL     1      -0.303   9.325  22.843  0.00  0.00    +0.000 C 
ENDBRANCH   8  10
BRANCH   8  11
ATOM     11  C   UNL     1      -0.384   9.918  20.322  0.00  0.00    +0.000 C 
ATOM     12  C   UNL     1       0.716  10.861  19.856  0.00  0.00    +0.000 C 
ENDBRANCH   8  11
ENDBRANCH   7   8
ENDBRANCH   1   7
BRANCH   4  13
ATOM     13  O   UNL     1       2.662   4.325  17.593  0.00  0.00    +0.000 OA
BRANCH  13  14
ATOM     14  C   UNL     1       4.047   3.969  17.522  0.00  0.00    +0.000 C 
BRANCH  14  15
ATOM     15  C   UNL     1       4.625   4.268  16.152  0.00  0.00    +0.000 C 
BRANCH  15  16
ATOM     16  C   UNL     1       5.608   5.410  16.227  0.00  0.00    +0.000 C 
ATOM     17  N   UNL     1       6.853   5.212  16.528  0.00  0.00    +0.000 NA
BRANCH  17  18
ATOM     18  O   UNL     1       7.536   6.437  16.507  0.00  0.00    +0.000 OA
BRANCH  18  19
ATOM     19  C   UNL     1       7.350   7.100  17.766  0.00  0.00    +0.000 C 
ATOM     20  C   UNL     1       8.031   6.295  18.867  0.00  0.00    +0.000 C 
ATOM     21  C   UNL     1       7.965   8.490  17.653  0.00  0.00    +0.000 C 
ENDBRANCH  18  19
ENDBRANCH  17  18
ENDBRANCH  15  16
ENDBRANCH  14  15
ENDBRANCH  13  14
ENDBRANCH   4  13
TORSDOF 10
ENDMDL
MODEL 4
REMARK VINA RESULT:      -6.7      2.293      7.373
REMARK  Name = 
REMARK  14 active torsions:
REMARK  status: ('A' for Active; 'I' for Inactive)
REMARK    1  A    between atoms: C_1  and  C_2
REMARK    2  A    between atoms: C_2  and  C_3
REMARK    3  A    between atoms: C_3  and  C_4
REMARK    4  A    between atoms: C_3  and  C_6
REMARK    5  A    between atoms: C_4  and  C_5
REMARK    6  A    between atoms: C_6  and  C_7
REMARK    7  A    between atoms: C_10  and  O_11
REMARK    8  A    between atoms: O_11  and  C_12
REMARK    9  A    between atoms: C_12  and  C_13
REMARK   10  A    between atoms: C_13  and  C_14
REMARK   11  A    between atoms: N_15  and  O_16
REMARK   12  A    between atoms: O_16  and  C_17
REMARK   13  A    between atoms: C_17  and  C_18
REMARK   14  A    between atoms: C_17  and  C_19
REMARK                            x       y       z     vdW  Elec       q    Type
REMARK                         _______ _______ _______ _____ _____    ______ ____
ROOT
ATOM      1  C   UNL     1       6.189   4.083  14.223  0.00  0.00    +0.000 A 
ATOM      2  C   UNL     1       5.069   3.549  14.864  0.00  0.00    +0.000 A 
ATOM      3  C   UNL     1       4.905   3.684  16.239  0.00  0.00    +0.000 A 
ATOM      4  C   UNL     1       5.865   4.335  17.017  0.00  0.00    +0.000 A 
ATOM      5  C   UNL     1       6.990   4.869  16.384  0.00  0.00    +0.000 A 
ATOM      6  C   UNL     1       7.153   4.743  14.998  0.00  0.00    +0.000 A 
ENDROOT
BRANCH   1   7
ATOM      7  C   UNL     1       6.341   3.941  12.727  0.00  0.00    +0.000 C 
BRANCH   7   8
ATOM      8  C   UNL     1       5.268   3.037  12.066  0.00  0.00    +0.000 C 
BRANCH   8  10
ATOM      9  C   UNL     1       3.218   3.081  10.511  0.00  0.00    +0.000 C 
ATOM     10  C   UNL     1       4.421   3.840  11.051  0.00  0.00    +0.000 C 
ENDBRANCH   8  10
BRANCH   8  11
ATOM     11  C   UNL     1       5.908   1.760  11.477  0.00  0.00    +0.000 C 
ATOM     12  C   UNL     1       7.341   1.919  10.992  0.00  0.00    +0.000 C 
ENDBRANCH   8  11
ENDBRANCH   7   8
ENDBRANCH   1   7
BRANCH   4  13
ATOM     13  O   UNL     1       5.796   4.497  18.382  0.00  0.00    +0.000 OA
BRANCH  13  14
ATOM     14  C   UNL     1       5.491   5.833  18.794  0.00  0.00    +0.000 C 
BRANCH  14  15
ATOM     15  C   UNL     1       4.146   6.284  18.256  0.00  0.00    +0.000 C 
BRANCH  15  16
ATOM     16  C   UNL     1       3.053   6.014  19.261  0.00  0.00    +0.000 C 
ATOM     17  N   UNL     1       2.281   4.978  19.158  0.00  0.00    +0.000 NA
BRANCH  17  18
ATOM     18  O   UNL     1       1.376   4.967  20.229  0.00  0.00    +0.000 OA
BRANCH  18  19
ATOM     19  C   UNL     1       0.970   3.615  20.487  0.00  0.00    +0.000 C 
ATOM     20  C   UNL     1       1.120   2.790  19.214  0.00  0.00    +0.000 C 
ATOM     21  C   UNL     1       1.862   3.067  21.594  0.00  0.00    +0.000 C 
ENDBRANCH  18  19
ENDBRANCH  17  18
ENDBRANCH  15  16
ENDBRANCH  14  15
ENDBRANCH  13  14
ENDBRANCH   4  13
TORSDOF 10
ENDMDL
MODEL 5
REMARK VINA RESULT:      -6.6      4.313      6.539
REMARK  Name = 
REMARK  14 active torsions:
REMARK  status: ('A' for Active; 'I' for Inactive)
REMARK    1  A    between atoms: C_1  and  C_2
REMARK    2  A    between atoms: C_2  and  C_3
REMARK    3  A    between atoms: C_3  and  C_4
REMARK    4  A    between atoms: C_3  and  C_6
REMARK    5  A    between atoms: C_4  and  C_5
REMARK    6  A    between atoms: C_6  and  C_7
REMARK    7  A    between atoms: C_10  and  O_11
REMARK    8  A    between atoms: O_11  and  C_12
REMARK    9  A    between atoms: C_12  and  C_13
REMARK   10  A    between atoms: C_13  and  C_14
REMARK   11  A    between atoms: N_15  and  O_16
REMARK   12  A    between atoms: O_16  and  C_17
REMARK   13  A    between atoms: C_17  and  C_18
REMARK   14  A    between atoms: C_17  and  C_19
REMARK                            x       y       z     vdW  Elec       q    Type
REMARK                         _______ _______ _______ _____ _____    ______ ____
ROOT
ATOM      1  C   UNL     1       3.660   5.316  18.301  0.00  0.00    +0.000 A 
ATOM      2  C   UNL     1       4.706   5.083  19.197  0.00  0.00    +0.000 A 
ATOM      3  C   UNL     1       5.992   5.542  18.924  0.00  0.00    +0.000 A 
ATOM      4  C   UNL     1       6.273   6.225  17.738  0.00  0.00    +0.000 A 
ATOM      5  C   UNL     1       5.233   6.458  16.835  0.00  0.00    +0.000 A 
ATOM      6  C   UNL     1       3.936   6.006  17.114  0.00  0.00    +0.000 A 
ENDROOT
BRANCH   1   7
ATOM      7  C   UNL     1       2.269   4.824  18.625  0.00  0.00    +0.000 C 
BRANCH   7   8
ATOM      8  C   UNL     1       2.236   3.476  19.392  0.00  0.00    +0.000 C 
BRANCH   8  10
ATOM      9  C   UNL     1       1.492   2.665  21.717  0.00  0.00    +0.000 C 
ATOM     10  C   UNL     1       1.148   3.495  20.490  0.00  0.00    +0.000 C 
ENDBRANCH   8  10
BRANCH   8  11
ATOM     11  C   UNL     1       2.119   2.286  18.414  0.00  0.00    +0.000 C 
ATOM     12  C   UNL     1       3.426   1.568  18.110  0.00  0.00    +0.000 C 
ENDBRANCH   8  11
ENDBRANCH   7   8
ENDBRANCH   1   7
BRANCH   4  13
ATOM     13  O   UNL     1       7.515   6.696  17.376  0.00  0.00    +0.000 OA
BRANCH  13  14
ATOM     14  C   UNL     1       8.162   7.469  18.391  0.00  0.00    +0.000 C 
BRANCH  14  15
ATOM     15  C   UNL     1       8.211   8.939  18.021  0.00  0.00    +0.000 C 
BRANCH  15  16
ATOM     16  C   UNL     1       9.107   9.697  18.967  0.00  0.00    +0.000 C 
ATOM     17  N   UNL     1       9.322  10.967  18.823  0.00  0.00    +0.000 NA
BRANCH  17  18
ATOM     18  O   UNL     1      10.173  11.412  19.846  0.00  0.00    +0.000 OA
BRANCH  18  19
ATOM     19  C   UNL     1       9.665  12.646  20.376  0.00  0.00    +0.000 C 
ATOM     20  C   UNL     1       9.363  12.473  21.859  0.00  0.00    +0.000 C 
ATOM     21  C   UNL     1      10.729  13.715  20.161  0.00  0.00    +0.000 C 
ENDBRANCH  18  19
ENDBRANCH  17  18
ENDBRANCH  15  16
ENDBRANCH  14  15
ENDBRANCH  13  14
ENDBRANCH   4  13
TORSDOF 10
ENDMDL
MODEL 6
REMARK VINA RESULT:      -6.6      2.854      6.755
REMARK  Name = 
REMARK  14 active torsions:
REMARK  status: ('A' for Active; 'I' for Inactive)
REMARK    1  A    between atoms: C_1  and  C_2
REMARK    2  A    between atoms: C_2  and  C_3
REMARK    3  A    between atoms: C_3  and  C_4
REMARK    4  A    between atoms: C_3  and  C_6
REMARK    5  A    between atoms: C_4  and  C_5
REMARK    6  A    between atoms: C_6  and  C_7
REMARK    7  A    between atoms: C_10  and  O_11
REMARK    8  A    between atoms: O_11  and  C_12
REMARK    9  A    between atoms: C_12  and  C_13
REMARK   10  A    between atoms: C_13  and  C_14
REMARK   11  A    between atoms: N_15  and  O_16
REMARK   12  A    between atoms: O_16  and  C_17
REMARK   13  A    between atoms: C_17  and  C_18
REMARK   14  A    between atoms: C_17  and  C_19
REMARK                            x       y       z     vdW  Elec       q    Type
REMARK                         _______ _______ _______ _____ _____    ______ ____
ROOT
ATOM      1  C   UNL     1       5.268   3.901  17.886  0.00  0.00    +0.000 A 
ATOM      2  C   UNL     1       5.140   3.465  19.207  0.00  0.00    +0.000 A 
ATOM      3  C   UNL     1       3.934   2.946  19.670  0.00  0.00    +0.000 A 
ATOM      4  C   UNL     1       2.817   2.868  18.835  0.00  0.00    +0.000 A 
ATOM      5  C   UNL     1       2.936   3.305  17.514  0.00  0.00    +0.000 A 
ATOM      6  C   UNL     1       4.152   3.820  17.042  0.00  0.00    +0.000 A 
ENDROOT
BRANCH   1   7
ATOM      7  C   UNL     1       6.589   4.446  17.398  0.00  0.00    +0.000 C 
BRANCH   7   8
ATOM      8  C   UNL     1       6.460   5.510  16.276  0.00  0.00    +0.000 C 
BRANCH   8  10
ATOM      9  C   UNL     1       7.713   6.831  18.093  0.00  0.00    +0.000 C 
ATOM     10  C   UNL     1       6.996   6.879  16.751  0.00  0.00    +0.000 C 
ENDBRANCH   8  10
BRANCH   8  11
ATOM     11  C   UNL     1       7.099   5.007  14.963  0.00  0.00    +0.000 C 
ATOM     12  C   UNL     1       6.177   4.197  14.062  0.00  0.00    +0.000 C 
ENDBRANCH   8  11
ENDBRANCH   7   8
ENDBRANCH   1   7
BRANCH   4  13
ATOM     13  O   UNL     1       1.583   2.389  19.212  0.00  0.00    +0.000 OA
BRANCH  13  14
ATOM     14  C   UNL     1       0.691   3.397  19.696  0.00  0.00    +0.000 C 
BRANCH  14  15
ATOM     15  C   UNL     1       1.327   4.211  20.807  0.00  0.00    +0.000 C 
BRANCH  15  16
ATOM     16  C   UNL     1       1.394   5.669  20.427  0.00  0.00    +0.000 C 
ATOM     17  N   UNL     1       2.489   6.203  19.984  0.00  0.00    +0.000 NA
BRANCH  17  18
ATOM     18  O   UNL     1       2.261   7.555  19.693  0.00  0.00    +0.000 OA
BRANCH  18  19
ATOM     19  C   UNL     1       2.141   7.717  18.272  0.00  0.00    +0.000 C 
ATOM     20  C   UNL     1       1.691   9.140  17.961  0.00  0.00    +0.000 C 
ATOM     21  C   UNL     1       3.505   7.434  17.656  0.00  0.00    +0.000 C 
ENDBRANCH  18  19
ENDBRANCH  17  18
ENDBRANCH  15  16
ENDBRANCH  14  15
ENDBRANCH  13  14
ENDBRANCH   4  13
TORSDOF 10
ENDMDL
MODEL 7
REMARK VINA RESULT:      -6.5      2.492      6.945
REMARK  Name = 
REMARK  14 active torsions:
REMARK  status: ('A' for Active; 'I' for Inactive)
REMARK    1  A    between atoms: C_1  and  C_2
REMARK    2  A    between atoms: C_2  and  C_3
REMARK    3  A    between atoms: C_3  and  C_4
REMARK    4  A    between atoms: C_3  and  C_6
REMARK    5  A    between atoms: C_4  and  C_5
REMARK    6  A    between atoms: C_6  and  C_7
REMARK    7  A    between atoms: C_10  and  O_11
REMARK    8  A    between atoms: O_11  and  C_12
REMARK    9  A    between atoms: C_12  and  C_13
REMARK   10  A    between atoms: C_13  and  C_14
REMARK   11  A    between atoms: N_15  and  O_16
REMARK   12  A    between atoms: O_16  and  C_17
REMARK   13  A    between atoms: C_17  and  C_18
REMARK   14  A    between atoms: C_17  and  C_19
REMARK                            x       y       z     vdW  Elec       q    Type
REMARK                         _______ _______ _______ _____ _____    ______ ____
ROOT
ATOM      1  C   UNL     1       6.030   4.597  14.660  0.00  0.00    +0.000 A 
ATOM      2  C   UNL     1       5.624   5.924  14.817  0.00  0.00    +0.000 A 
ATOM      3  C   UNL     1       5.088   6.365  16.024  0.00  0.00    +0.000 A 
ATOM      4  C   UNL     1       4.922   5.489  17.099  0.00  0.00    +0.000 A 
ATOM      5  C   UNL     1       5.323   4.159  16.948  0.00  0.00    +0.000 A 
ATOM      6  C   UNL     1       5.871   3.715  15.737  0.00  0.00    +0.000 A 
ENDROOT
BRANCH   1   7
ATOM      7  C   UNL     1       6.623   4.142  13.347  0.00  0.00    +0.000 C 
BRANCH   7   8
ATOM      8  C   UNL     1       5.764   3.094  12.593  0.00  0.00    +0.000 C 
BRANCH   8  10
ATOM      9  C   UNL     1       3.885   3.196  10.838  0.00  0.00    +0.000 C 
ATOM     10  C   UNL     1       4.401   3.695  12.180  0.00  0.00    +0.000 C 
ENDBRANCH   8  10
BRANCH   8  11
ATOM     11  C   UNL     1       6.555   2.470  11.423  0.00  0.00    +0.000 C 
ATOM     12  C   UNL     1       6.392   0.965  11.260  0.00  0.00    +0.000 C 
ENDBRANCH   8  11
ENDBRANCH   7   8
ENDBRANCH   1   7
BRANCH   4  13
ATOM     13  O   UNL     1       4.385   5.831  18.319  0.00  0.00    +0.000 OA
BRANCH  13  14
ATOM     14  C   UNL     1       3.175   6.589  18.230  0.00  0.00    +0.000 C 
BRANCH  14  15
ATOM     15  C   UNL     1       2.446   6.628  19.560  0.00  0.00    +0.000 C 
BRANCH  15  16
ATOM     16  C   UNL     1       2.137   5.232  20.038  0.00  0.00    +0.000 C 
ATOM     17  N   UNL     1       1.795   4.294  19.212  0.00  0.00    +0.000 NA
BRANCH  17  18
ATOM     18  O   UNL     1       1.587   3.103  19.922  0.00  0.00    +0.000 OA
BRANCH  18  19
ATOM     19  C   UNL     1       2.393   2.065  19.345  0.00  0.00    +0.000 C 
ATOM     20  C   UNL     1       2.326   2.157  17.826  0.00  0.00    +0.000 C 
ATOM     21  C   UNL     1       3.822   2.261  19.836  0.00  0.00    +0.000 C 
ENDBRANCH  18  19
ENDBRANCH  17  18
ENDBRANCH  15  16
ENDBRANCH  14  15
ENDBRANCH  13  14
ENDBRANCH   4  13
TORSDOF 10
ENDMDL
MODEL 8
REMARK VINA RESULT:      -6.5      3.998      6.102
REMARK  Name = 
REMARK  14 active torsions:
REMARK  status: ('A' for Active; 'I' for Inactive)
REMARK    1  A    between atoms: C_1  and  C_2
REMARK    2  A    between atoms: C_2  and  C_3
REMARK    3  A    between atoms: C_3  and  C_4
REMARK    4  A    between atoms: C_3  and  C_6
REMARK    5  A    between atoms: C_4  and  C_5
REMARK    6  A    between atoms: C_6  and  C_7
REMARK    7  A    between atoms: C_10  and  O_11
REMARK    8  A    between atoms: O_11  and  C_12
REMARK    9  A    between atoms: C_12  and  C_13
REMARK   10  A    between atoms: C_13  and  C_14
REMARK   11  A    between atoms: N_15  and  O_16
REMARK   12  A    between atoms: O_16  and  C_17
REMARK   13  A    between atoms: C_17  and  C_18
REMARK   14  A    between atoms: C_17  and  C_19
REMARK                            x       y       z     vdW  Elec       q    Type
REMARK                         _______ _______ _______ _____ _____    ______ ____
ROOT
ATOM      1  C   UNL     1       3.538   4.540  17.426  0.00  0.00    +0.000 A 
ATOM      2  C   UNL     1       4.292   4.209  16.298  0.00  0.00    +0.000 A 
ATOM      3  C   UNL     1       5.501   4.847  16.039  0.00  0.00    +0.000 A 
ATOM      4  C   UNL     1       5.980   5.850  16.885  0.00  0.00    +0.000 A 
ATOM      5  C   UNL     1       5.229   6.190  18.013  0.00  0.00    +0.000 A 
ATOM      6  C   UNL     1       4.016   5.541  18.281  0.00  0.00    +0.000 A 
ENDROOT
BRANCH   1   7
ATOM      7  C   UNL     1       2.236   3.824  17.698  0.00  0.00    +0.000 C 
BRANCH   7   8
ATOM      8  C   UNL     1       2.294   2.841  18.897  0.00  0.00    +0.000 C 
BRANCH   8  10
ATOM      9  C   UNL     1       4.522   2.189  20.007  0.00  0.00    +0.000 C 
ATOM     10  C   UNL     1       3.573   1.974  18.837  0.00  0.00    +0.000 C 
ENDBRANCH   8  10
BRANCH   8  11
ATOM     11  C   UNL     1       2.107   3.590  20.235  0.00  0.00    +0.000 C 
ATOM     12  C   UNL     1       1.187   2.908  21.236  0.00  0.00    +0.000 C 
ENDBRANCH   8  11
ENDBRANCH   7   8
ENDBRANCH   1   7
BRANCH   4  13
ATOM     13  O   UNL     1       7.151   6.548  16.697  0.00  0.00    +0.000 OA
BRANCH  13  14
ATOM     14  C   UNL     1       7.646   7.184  17.880  0.00  0.00    +0.000 C 
BRANCH  14  15
ATOM     15  C   UNL     1       8.027   8.628  17.613  0.00  0.00    +0.000 C 
BRANCH  15  16
ATOM     16  C   UNL     1       8.791   9.200  18.781  0.00  0.00    +0.000 C 
ATOM     17  N   UNL     1       9.143  10.447  18.813  0.00  0.00    +0.000 NA
BRANCH  17  18
ATOM     18  O   UNL     1       9.819  10.708  20.013  0.00  0.00    +0.000 OA
BRANCH  18  19
ATOM     19  C   UNL     1      10.691  11.832  19.827  0.00  0.00    +0.000 C 
ATOM     20  C   UNL     1      11.669  11.533  18.697  0.00  0.00    +0.000 C 
ATOM     21  C   UNL     1       9.826  13.039  19.488  0.00  0.00    +0.000 C 
ENDBRANCH  18  19
ENDBRANCH  17  18
ENDBRANCH  15  16
ENDBRANCH  14  15
ENDBRANCH  13  14
ENDBRANCH   4  13
TORSDOF 10
ENDMDL
MODEL 9
REMARK VINA RESULT:      -6.5      4.242      6.402
REMARK  Name = 
REMARK  14 active torsions:
REMARK  status: ('A' for Active; 'I' for Inactive)
REMARK    1  A    between atoms: C_1  and  C_2
REMARK    2  A    between atoms: C_2  and  C_3
REMARK    3  A    between atoms: C_3  and  C_4
REMARK    4  A    between atoms: C_3  and  C_6
REMARK    5  A    between atoms: C_4  and  C_5
REMARK    6  A    between atoms: C_6  and  C_7
REMARK    7  A    between atoms: C_10  and  O_11
REMARK    8  A    between atoms: O_11  and  C_12
REMARK    9  A    between atoms: C_12  and  C_13
REMARK   10  A    between atoms: C_13  and  C_14
REMARK   11  A    between atoms: N_15  and  O_16
REMARK   12  A    between atoms: O_16  and  C_17
REMARK   13  A    between atoms: C_17  and  C_18
REMARK   14  A    between atoms: C_17  and  C_19
REMARK                            x       y       z     vdW  Elec       q    Type
REMARK                         _______ _______ _______ _____ _____    ______ ____
ROOT
ATOM      1  C   UNL     1       4.653   4.036  17.597  0.00  0.00    +0.000 A 
ATOM      2  C   UNL     1       5.502   4.396  18.646  0.00  0.00    +0.000 A 
ATOM      3  C   UNL     1       6.499   5.349  18.458  0.00  0.00    +0.000 A 
ATOM      4  C   UNL     1       6.691   5.951  17.212  0.00  0.00    +0.000 A 
ATOM      5  C   UNL     1       5.848   5.593  16.157  0.00  0.00    +0.000 A 
ATOM      6  C   UNL     1       4.837   4.641  16.347  0.00  0.00    +0.000 A 
ENDROOT
BRANCH   1   7
ATOM      7  C   UNL     1       3.566   3.012  17.827  0.00  0.00    +0.000 C 
BRANCH   7   8
ATOM      8  C   UNL     1       2.293   3.581  18.506  0.00  0.00    +0.000 C 
BRANCH   8  10
ATOM      9  C   UNL     1       1.254   2.838  20.740  0.00  0.00    +0.000 C 
ATOM     10  C   UNL     1       2.421   3.526  20.046  0.00  0.00    +0.000 C 
ENDBRANCH   8  10
BRANCH   8  11
ATOM     11  C   UNL     1       1.953   4.983  17.955  0.00  0.00    +0.000 C 
ATOM     12  C   UNL     1       2.259   6.140  18.895  0.00  0.00    +0.000 C 
ENDBRANCH   8  11
ENDBRANCH   7   8
ENDBRANCH   1   7
BRANCH   4  13
ATOM     13  O   UNL     1       7.662   6.885  16.929  0.00  0.00    +0.000 OA
BRANCH  13  14
ATOM     14  C   UNL     1       8.064   7.666  18.059  0.00  0.00    +0.000 C 
BRANCH  14  15
ATOM     15  C   UNL     1       7.994   9.151  17.758  0.00  0.00    +0.000 C 
BRANCH  15  16
ATOM     16  C   UNL     1       8.988   9.912  18.599  0.00  0.00    +0.000 C 
ATOM     17  N   UNL     1       9.665  10.904  18.113  0.00  0.00    +0.000 NA
BRANCH  17  18
ATOM     18  O   UNL     1      10.494  11.434  19.113  0.00  0.00    +0.000 OA
BRANCH  18  19
ATOM     19  C   UNL     1      10.692  12.834  18.866  0.00  0.00    +0.000 C 
ATOM     20  C   UNL     1      10.710  13.085  17.363  0.00  0.00    +0.000 C 
ATOM     21  C   UNL     1       9.546  13.589  19.527  0.00  0.00    +0.000 C 
ENDBRANCH  18  19
ENDBRANCH  17  18
ENDBRANCH  15  16
ENDBRANCH  14  15
ENDBRANCH  13  14
ENDBRANCH   4  13
TORSDOF 10
ENDMDL
