MODEL 1
REMARK VINA RESULT:      -8.2      0.000      0.000
REMARK  Name = 
REMARK  8 active torsions:
REMARK  status: ('A' for Active; 'I' for Inactive)
REMARK    1  A    between atoms: C_1  and  C_2
REMARK    2  A    between atoms: C_2  and  C_4
REMARK    3  A    between atoms: C_4  and  C_5
REMARK    4  A    between atoms: C_5  and  C_6
REMARK    5  A    between atoms: N_11  and  C_12
REMARK    6  A    between atoms: C_12  and  C_13
REMARK    7  A    between atoms: C_20  and  C_21
REMARK    8  A    between atoms: C_25  and  C_26
REMARK                            x       y       z     vdW  Elec       q    Type
REMARK                         _______ _______ _______ _____ _____    ______ ____
ROOT
ATOM      1  C   UNL     1      -1.030  11.304  18.577  0.00  0.00    +0.000 A 
ATOM      2  N   UNL     1      -0.168  10.371  18.285  0.00  0.00    +0.000 NA
ATOM      3  C   UNL     1       0.410   9.661  19.335  0.00  0.00    +0.000 A 
ATOM      4  C   UNL     1       1.369   8.559  18.954  0.00  0.00    +0.000 A 
ATOM      5  O   UNL     1       1.622   8.338  17.768  0.00  0.00    +0.000 OA
ATOM      6  N   UNL     1       1.937   7.847  20.000  0.00  0.00    +0.000 N 
ATOM      7  N   UNL     1       1.682   8.081  21.322  0.00  0.00    +0.000 NA
ATOM      8  C   UNL     1       0.856   9.030  21.628  0.00  0.00    +0.000 A 
ATOM      9  C   UNL     1       0.613   9.229  23.107  0.00  0.00    +0.000 C 
ATOM     10  C   UNL     1       0.160   9.898  20.640  0.00  0.00    +0.000 A 
ATOM     11  C   UNL     1      -0.748  10.944  20.969  0.00  0.00    +0.000 A 
ATOM     12  C   UNL     1      -1.265  11.533  22.096  0.00  0.00    +0.000 A 
ATOM     13  C   UNL     1      -2.159  12.541  21.645  0.00  0.00    +0.000 A 
ATOM     14  N   UNL     1      -2.204  12.570  20.302  0.00  0.00    +0.000 NA
ATOM     15  N   UNL     1      -1.328  11.615  19.911  0.00  0.00    +0.000 N 
ENDROOT
BRANCH  13  16
ATOM     16  C   UNL     1      -2.955  13.410  22.513  0.00  0.00    +0.000 A 
ATOM     17  C   UNL     1      -4.355  13.440  22.378  0.00  0.00    +0.000 A 
ATOM     18  C   UNL     1      -5.126  14.329  23.127  0.00  0.00    +0.000 A 
ATOM     19  C   UNL     1      -4.509  15.197  24.023  0.00  0.00    +0.000 A 
ATOM     20  C   UNL     1      -3.124  15.163  24.179  0.00  0.00    +0.000 A 
ATOM     21  C   UNL     1      -2.348  14.271  23.433  0.00  0.00    +0.000 A 
ENDBRANCH  13  16
BRANCH   1  22
ATOM     22  C   UNL     1      -1.710  12.120  17.508  0.00  0.00    +0.000 C 
BRANCH  22  23
ATOM     23  C   UNL     1      -2.571  11.214  16.624  0.00  0.00    +0.000 C 
BRANCH  23  25
ATOM     24  C   UNL     1      -4.887  11.317  17.715  0.00  0.00    +0.000 C 
ATOM     25  C   UNL     1      -3.664  10.499  17.389  0.00  0.00    +0.000 C 
ATOM     26  O   UNL     1      -3.574   9.320  17.722  0.00  0.00    +0.000 OA
ENDBRANCH  23  25
ENDBRANCH  22  23
ENDBRANCH   1  22
BRANCH   6  27
ATOM     27  C   UNL     1       2.887   6.776  19.708  0.00  0.00    +0.000 C 
BRANCH  27  28
ATOM     28  C   UNL     1       2.237   5.421  19.564  0.00  0.00    +0.000 A 
ATOM     29  C   UNL     1       1.765   4.735  20.693  0.00  0.00    +0.000 A 
ATOM     30  C   UNL     1       1.113   3.509  20.557  0.00  0.00    +0.000 A 
ATOM     31  C   UNL     1       0.933   2.950  19.293  0.00  0.00    +0.000 A 
ATOM     32  C   UNL     1       1.423   3.608  18.166  0.00  0.00    +0.000 A 
ATOM     33  C   UNL     1       2.078   4.834  18.301  0.00  0.00    +0.000 A 
ENDBRANCH  27  28
ENDBRANCH   6  27
TORSDOF 6
ENDMDL
MODEL 2
REMARK VINA RESULT:      -8.1      0.215      1.207
REMARK  Name = 
REMARK  8 active torsions:
REMARK  status: ('A' for Active; 'I' for Inactive)
REMARK    1  A    between atoms: C_1  and  C_2
REMARK    2  A    between atoms: C_2  and  C_4
REMARK    3  A    between atoms: C_4  and  C_5
REMARK    4  A    between atoms: C_5  and  C_6
REMARK    5  A    between atoms: N_11  and  C_12
REMARK    6  A    between atoms: C_12  and  C_13
REMARK    7  A    between atoms: C_20  and  C_21
REMARK    8  A    between atoms: C_25  and  C_26
REMARK                            x       y       z     vdW  Elec       q    Type
REMARK                         _______ _______ _______ _____ _____    ______ ____
ROOT
ATOM      1  C   UNL     1      -0.958  11.311  18.541  0.00  0.00    +0.000 A 
ATOM      2  N   UNL     1      -0.118  10.357  18.258  0.00  0.00    +0.000 NA
ATOM      3  C   UNL     1       0.447   9.646  19.316  0.00  0.00    +0.000 A 
ATOM      4  C   UNL     1       1.381   8.519  18.947  0.00  0.00    +0.000 A 
ATOM      5  O   UNL     1       1.627   8.279  17.763  0.00  0.00    +0.000 OA
ATOM      6  N   UNL     1       1.935   7.807  20.000  0.00  0.00    +0.000 N 
ATOM      7  N   UNL     1       1.688   8.063  21.319  0.00  0.00    +0.000 NA
ATOM      8  C   UNL     1       0.883   9.033  21.615  0.00  0.00    +0.000 A 
ATOM      9  C   UNL     1       0.647   9.255  23.093  0.00  0.00    +0.000 C 
ATOM     10  C   UNL     1       0.205   9.904  20.618  0.00  0.00    +0.000 A 
ATOM     11  C   UNL     1      -0.680  10.974  20.937  0.00  0.00    +0.000 A 
ATOM     12  C   UNL     1      -1.182  11.587  22.057  0.00  0.00    +0.000 A 
ATOM     13  C   UNL     1      -2.055  12.608  21.595  0.00  0.00    +0.000 A 
ATOM     14  N   UNL     1      -2.101  12.623  20.253  0.00  0.00    +0.000 NA
ATOM     15  N   UNL     1      -1.247  11.644  19.871  0.00  0.00    +0.000 N 
ENDROOT
BRANCH  13  16
ATOM     16  C   UNL     1      -2.830  13.505  22.454  0.00  0.00    +0.000 A 
ATOM     17  C   UNL     1      -2.179  14.254  23.451  0.00  0.00    +0.000 A 
ATOM     18  C   UNL     1      -2.908  15.042  24.343  0.00  0.00    +0.000 A 
ATOM     19  C   UNL     1      -4.296  15.094  24.248  0.00  0.00    +0.000 A 
ATOM     20  C   UNL     1      -4.950  14.370  23.252  0.00  0.00    +0.000 A 
ATOM     21  C   UNL     1      -4.223  13.583  22.354  0.00  0.00    +0.000 A 
ENDBRANCH  13  16
BRANCH   1  22
ATOM     22  C   UNL     1      -1.623  12.129  17.463  0.00  0.00    +0.000 C 
BRANCH  22  23
ATOM     23  C   UNL     1      -2.478  11.226  16.571  0.00  0.00    +0.000 C 
BRANCH  23  25
ATOM     24  C   UNL     1      -4.938  11.744  17.067  0.00  0.00    +0.000 C 
ATOM     25  C   UNL     1      -3.775  10.798  17.224  0.00  0.00    +0.000 C 
ATOM     26  O   UNL     1      -3.887   9.742  17.842  0.00  0.00    +0.000 OA
ENDBRANCH  23  25
ENDBRANCH  22  23
ENDBRANCH   1  22
BRANCH   6  27
ATOM     27  C   UNL     1       2.861   6.713  19.719  0.00  0.00    +0.000 C 
BRANCH  27  28
ATOM     28  C   UNL     1       2.177   5.378  19.546  0.00  0.00    +0.000 A 
ATOM     29  C   UNL     1       2.042   4.806  18.272  0.00  0.00    +0.000 A 
ATOM     30  C   UNL     1       1.461   3.547  18.117  0.00  0.00    +0.000 A 
ATOM     31  C   UNL     1       1.001   2.849  19.232  0.00  0.00    +0.000 A 
ATOM     32  C   UNL     1       1.102   3.418  20.500  0.00  0.00    +0.000 A 
ATOM     33  C   UNL     1       1.681   4.680  20.657  0.00  0.00    +0.000 A 
ENDBRANCH  27  28
ENDBRANCH   6  27
TORSDOF 6
ENDMDL
MODEL 3
REMARK VINA RESULT:      -8.0      2.834      9.469
REMARK  Name = 
REMARK  8 active torsions:
REMARK  status: ('A' for Active; 'I' for Inactive)
REMARK    1  A    between atoms: C_1  and  C_2
REMARK    2  A    between atoms: C_2  and  C_4
REMARK    3  A    between atoms: C_4  and  C_5
REMARK    4  A    between atoms: C_5  and  C_6
REMARK    5  A    between atoms: N_11  and  C_12
REMARK    6  A    between atoms: C_12  and  C_13
REMARK    7  A    between atoms: C_20  and  C_21
REMARK    8  A    between atoms: C_25  and  C_26
REMARK                            x       y       z     vdW  Elec       q    Type
REMARK                         _______ _______ _______ _____ _____    ______ ____
ROOT
ATOM      1  C   UNL     1       1.851   5.915  20.432  0.00  0.00    +0.000 A 
ATOM      2  N   UNL     1       1.120   6.833  20.997  0.00  0.00    +0.000 NA
ATOM      3  C   UNL     1       1.117   8.108  20.433  0.00  0.00    +0.000 A 
ATOM      4  C   UNL     1       0.224   9.132  21.089  0.00  0.00    +0.000 A 
ATOM      5  O   UNL     1      -0.440   8.831  22.083  0.00  0.00    +0.000 OA
ATOM      6  N   UNL     1       0.215  10.397  20.521  0.00  0.00    +0.000 N 
ATOM      7  N   UNL     1       0.951  10.758  19.429  0.00  0.00    +0.000 NA
ATOM      8  C   UNL     1       1.711   9.865  18.879  0.00  0.00    +0.000 A 
ATOM      9  C   UNL     1       2.490  10.328  17.669  0.00  0.00    +0.000 C 
ATOM     10  C   UNL     1       1.849   8.462  19.356  0.00  0.00    +0.000 A 
ATOM     11  C   UNL     1       2.684   7.475  18.758  0.00  0.00    +0.000 A 
ATOM     12  C   UNL     1       3.576   7.383  17.719  0.00  0.00    +0.000 A 
ATOM     13  C   UNL     1       4.029   6.037  17.701  0.00  0.00    +0.000 A 
ATOM     14  N   UNL     1       3.440   5.324  18.676  0.00  0.00    +0.000 NA
ATOM     15  N   UNL     1       2.648   6.214  19.319  0.00  0.00    +0.000 N 
ENDROOT
BRANCH  13  16
ATOM     16  C   UNL     1       4.980   5.481  16.737  0.00  0.00    +0.000 A 
ATOM     17  C   UNL     1       6.255   6.060  16.599  0.00  0.00    +0.000 A 
ATOM     18  C   UNL     1       7.142   5.609  15.621  0.00  0.00    +0.000 A 
ATOM     19  C   UNL     1       6.769   4.573  14.771  0.00  0.00    +0.000 A 
ATOM     20  C   UNL     1       5.515   3.979  14.910  0.00  0.00    +0.000 A 
ATOM     21  C   UNL     1       4.625   4.425  15.892  0.00  0.00    +0.000 A 
ENDBRANCH  13  16
BRANCH   1  22
ATOM     22  C   UNL     1       1.912   4.507  20.968  0.00  0.00    +0.000 C 
BRANCH  22  23
ATOM     23  C   UNL     1       0.723   3.696  20.448  0.00  0.00    +0.000 C 
BRANCH  23  25
ATOM     24  C   UNL     1       2.521   2.154  19.470  0.00  0.00    +0.000 C 
ATOM     25  C   UNL     1       1.109   2.677  19.397  0.00  0.00    +0.000 C 
ATOM     26  O   UNL     1       0.326   2.287  18.535  0.00  0.00    +0.000 OA
ENDBRANCH  23  25
ENDBRANCH  22  23
ENDBRANCH   1  22
BRANCH   6  27
ATOM     27  C   UNL     1      -0.614  11.444  21.114  0.00  0.00    +0.000 C 
BRANCH  27  28
ATOM     28  C   UNL     1      -1.870  11.731  20.327  0.00  0.00    +0.000 A 
ATOM     29  C   UNL     1      -2.024  11.231  19.025  0.00  0.00    +0.000 A 
ATOM     30  C   UNL     1      -3.208  11.447  18.318  0.00  0.00    +0.000 A 
ATOM     31  C   UNL     1      -4.247  12.171  18.899  0.00  0.00    +0.000 A 
ATOM     32  C   UNL     1      -4.095  12.698  20.181  0.00  0.00    +0.000 A 
ATOM     33  C   UNL     1      -2.910  12.485  20.889  0.00  0.00    +0.000 A 
ENDBRANCH  27  28
ENDBRANCH   6  27
TORSDOF 6
ENDMDL
MODEL 4
REMARK VINA RESULT:      -8.0      3.048      9.661
REMARK  Name = 
REMARK  8 active torsions:
REMARK  status: ('A' for Active; 'I' for Inactive)
REMARK    1  A    between atoms: C_1  and  C_2
REMARK    2  A    between atoms: C_2  and  C_4
REMARK    3  A    between atoms: C_4  and  C_5
REMARK    4  A    between atoms: C_5  and  C_6
REMARK    5  A    between atoms: N_11  and  C_12
REMARK    6  A    between atoms: C_12  and  C_13
REMARK    7  A    between atoms: C_20  and  C_21
REMARK    8  A    between atoms: C_25  and  C_26
REMARK                            x       y       z     vdW  Elec       q    Type
REMARK                         _______ _______ _______ _____ _____    ______ ____
ROOT
ATOM      1  C   UNL     1       1.987   5.754  20.531  0.00  0.00    +0.000 A 
ATOM      2  N   UNL     1       1.204   6.635  21.086  0.00  0.00    +0.000 NA
ATOM      3  C   UNL     1       1.106   7.891  20.490  0.00  0.00    +0.000 A 
ATOM      4  C   UNL     1       0.155   8.869  21.136  0.00  0.00    +0.000 A 
ATOM      5  O   UNL     1      -0.471   8.550  22.149  0.00  0.00    +0.000 OA
ATOM      6  N   UNL     1       0.052  10.116  20.537  0.00  0.00    +0.000 N 
ATOM      7  N   UNL     1       0.744  10.497  19.423  0.00  0.00    +0.000 NA
ATOM      8  C   UNL     1       1.554   9.643  18.882  0.00  0.00    +0.000 A 
ATOM      9  C   UNL     1       2.280  10.126  17.647  0.00  0.00    +0.000 C 
ATOM     10  C   UNL     1       1.795   8.266  19.392  0.00  0.00    +0.000 A 
ATOM     11  C   UNL     1       2.685   7.322  18.804  0.00  0.00    +0.000 A 
ATOM     12  C   UNL     1       3.564   7.263  17.751  0.00  0.00    +0.000 A 
ATOM     13  C   UNL     1       4.108   5.951  17.759  0.00  0.00    +0.000 A 
ATOM     14  N   UNL     1       3.584   5.226  18.762  0.00  0.00    +0.000 NA
ATOM     15  N   UNL     1       2.744   6.077  19.397  0.00  0.00    +0.000 N 
ENDROOT
BRANCH  13  16
ATOM     16  C   UNL     1       5.078   5.436  16.793  0.00  0.00    +0.000 A 
ATOM     17  C   UNL     1       6.299   6.110  16.601  0.00  0.00    +0.000 A 
ATOM     18  C   UNL     1       7.198   5.693  15.618  0.00  0.00    +0.000 A 
ATOM     19  C   UNL     1       6.891   4.597  14.817  0.00  0.00    +0.000 A 
ATOM     20  C   UNL     1       5.693   3.911  15.011  0.00  0.00    +0.000 A 
ATOM     21  C   UNL     1       4.792   4.322  15.997  0.00  0.00    +0.000 A 
ENDBRANCH  13  16
BRANCH   1  22
ATOM     22  C   UNL     1       2.153   4.368  21.100  0.00  0.00    +0.000 C 
BRANCH  22  23
ATOM     23  C   UNL     1       0.941   3.504  20.740  0.00  0.00    +0.000 C 
BRANCH  23  25
ATOM     24  C   UNL     1       2.595   2.114  19.364  0.00  0.00    +0.000 C 
ATOM     25  C   UNL     1       1.182   2.606  19.546  0.00  0.00    +0.000 C 
ATOM     26  O   UNL     1       0.287   2.284  18.769  0.00  0.00    +0.000 OA
ENDBRANCH  23  25
ENDBRANCH  22  23
ENDBRANCH   1  22
BRANCH   6  27
ATOM     27  C   UNL     1      -0.837  11.120  21.118  0.00  0.00    +0.000 C 
BRANCH  27  28
ATOM     28  C   UNL     1      -0.449  12.536  20.771  0.00  0.00    +0.000 A 
ATOM     29  C   UNL     1       0.435  13.254  21.591  0.00  0.00    +0.000 A 
ATOM     30  C   UNL     1       0.840  14.543  21.241  0.00  0.00    +0.000 A 
ATOM     31  C   UNL     1       0.361  15.132  20.073  0.00  0.00    +0.000 A 
ATOM     32  C   UNL     1      -0.541  14.442  19.265  0.00  0.00    +0.000 A 
ATOM     33  C   UNL     1      -0.949  13.153  19.614  0.00  0.00    +0.000 A 
ENDBRANCH  27  28
ENDBRANCH   6  27
TORSDOF 6
ENDMDL
MODEL 5
REMARK VINA RESULT:      -8.0      2.751      9.382
REMARK  Name = 
REMARK  8 active torsions:
REMARK  status: ('A' for Active; 'I' for Inactive)
REMARK    1  A    between atoms: C_1  and  C_2
REMARK    2  A    between atoms: C_2  and  C_4
REMARK    3  A    between atoms: C_4  and  C_5
REMARK    4  A    between atoms: C_5  and  C_6
REMARK    5  A    between atoms: N_11  and  C_12
REMARK    6  A    between atoms: C_12  and  C_13
REMARK    7  A    between atoms: C_20  and  C_21
REMARK    8  A    between atoms: C_25  and  C_26
REMARK                            x       y       z     vdW  Elec       q    Type
REMARK                         _______ _______ _______ _____ _____    ______ ____
ROOT
ATOM      1  C   UNL     1       1.823   6.216  20.617  0.00  0.00    +0.000 A 
ATOM      2  N   UNL     1       1.162   7.172  21.205  0.00  0.00    +0.000 NA
ATOM      3  C   UNL     1       1.127   8.421  20.586  0.00  0.00    +0.000 A 
ATOM      4  C   UNL     1       0.314   9.490  21.274  0.00  0.00    +0.000 A 
ATOM      5  O   UNL     1      -0.260   9.246  22.338  0.00  0.00    +0.000 OA
ATOM      6  N   UNL     1       0.274  10.729  20.653  0.00  0.00    +0.000 N 
ATOM      7  N   UNL     1       0.911  11.028  19.483  0.00  0.00    +0.000 NA
ATOM      8  C   UNL     1       1.603  10.097  18.907  0.00  0.00    +0.000 A 
ATOM      9  C   UNL     1       2.275  10.492  17.611  0.00  0.00    +0.000 C 
ATOM     10  C   UNL     1       1.762   8.714  19.432  0.00  0.00    +0.000 A 
ATOM     11  C   UNL     1       2.523   7.685  18.805  0.00  0.00    +0.000 A 
ATOM     12  C   UNL     1       3.313   7.530  17.694  0.00  0.00    +0.000 A 
ATOM     13  C   UNL     1       3.742   6.176  17.696  0.00  0.00    +0.000 A 
ATOM     14  N   UNL     1       3.234   5.518  18.751  0.00  0.00    +0.000 NA
ATOM     15  N   UNL     1       2.519   6.451  19.423  0.00  0.00    +0.000 N 
ENDROOT
BRANCH  13  16
ATOM     16  C   UNL     1       4.591   5.560  16.674  0.00  0.00    +0.000 A 
ATOM     17  C   UNL     1       4.797   4.169  16.683  0.00  0.00    +0.000 A 
ATOM     18  C   UNL     1       5.677   3.572  15.779  0.00  0.00    +0.000 A 
ATOM     19  C   UNL     1       6.358   4.357  14.853  0.00  0.00    +0.000 A 
ATOM     20  C   UNL     1       6.147   5.734  14.823  0.00  0.00    +0.000 A 
ATOM     21  C   UNL     1       5.263   6.335  15.724  0.00  0.00    +0.000 A 
ENDBRANCH  13  16
BRANCH   1  22
ATOM     22  C   UNL     1       1.911   4.832  21.208  0.00  0.00    +0.000 C 
BRANCH  22  23
ATOM     23  C   UNL     1       0.897   3.907  20.531  0.00  0.00    +0.000 C 
BRANCH  23  25
ATOM     24  C   UNL     1       0.755   2.176  18.647  0.00  0.00    +0.000 C 
ATOM     25  C   UNL     1       1.541   2.749  19.799  0.00  0.00    +0.000 C 
ATOM     26  O   UNL     1       2.640   2.299  20.111  0.00  0.00    +0.000 OA
ENDBRANCH  23  25
ENDBRANCH  22  23
ENDBRANCH   1  22
BRANCH   6  27
ATOM     27  C   UNL     1      -0.481  11.818  21.271  0.00  0.00    +0.000 C 
BRANCH  27  28
ATOM     28  C   UNL     1      -1.859  12.001  20.682  0.00  0.00    +0.000 A 
ATOM     29  C   UNL     1      -2.890  12.569  21.446  0.00  0.00    +0.000 A 
ATOM     30  C   UNL     1      -4.148  12.792  20.885  0.00  0.00    +0.000 A 
ATOM     31  C   UNL     1      -4.393  12.442  19.559  0.00  0.00    +0.000 A 
ATOM     32  C   UNL     1      -3.386  11.850  18.799  0.00  0.00    +0.000 A 
ATOM     33  C   UNL     1      -2.127  11.624  19.358  0.00  0.00    +0.000 A 
ENDBRANCH  27  28
ENDBRANCH   6  27
TORSDOF 6
ENDMDL
MODEL 6
REMARK VINA RESULT:      -8.0      3.011      9.632
REMARK  Name = 
REMARK  8 active torsions:
REMARK  status: ('A' for Active; 'I' for Inactive)
REMARK    1  A    between atoms: C_1  and  C_2
REMARK    2  A    between atoms: C_2  and  C_4
REMARK    3  A    between atoms: C_4  and  C_5
REMARK    4  A    between atoms: C_5  and  C_6
REMARK    5  A    between atoms: N_11  and  C_12
REMARK    6  A    between atoms: C_12  and  C_13
REMARK    7  A    between atoms: C_20  and  C_21
REMARK    8  A    between atoms: C_25  and  C_26
REMARK                            x       y       z     vdW  Elec       q    Type
REMARK                         _______ _______ _______ _____ _____    ______ ____
ROOT
ATOM      1  C   UNL     1       1.903   5.775  20.498  0.00  0.00    +0.000 A 
ATOM      2  N   UNL     1       1.130   6.643  21.085  0.00  0.00    +0.000 NA
ATOM      3  C   UNL     1       1.037   7.919  20.531  0.00  0.00    +0.000 A 
ATOM      4  C   UNL     1       0.096   8.882  21.214  0.00  0.00    +0.000 A 
ATOM      5  O   UNL     1      -0.527   8.534  22.218  0.00  0.00    +0.000 OA
ATOM      6  N   UNL     1      -0.001  10.148  20.656  0.00  0.00    +0.000 N 
ATOM      7  N   UNL     1       0.689  10.560  19.552  0.00  0.00    +0.000 NA
ATOM      8  C   UNL     1       1.490   9.719  18.980  0.00  0.00    +0.000 A 
ATOM      9  C   UNL     1       2.215  10.238  17.758  0.00  0.00    +0.000 C 
ATOM     10  C   UNL     1       1.724   8.325  19.443  0.00  0.00    +0.000 A 
ATOM     11  C   UNL     1       2.605   7.395  18.820  0.00  0.00    +0.000 A 
ATOM     12  C   UNL     1       3.479   7.364  17.762  0.00  0.00    +0.000 A 
ATOM     13  C   UNL     1       4.013   6.048  17.725  0.00  0.00    +0.000 A 
ATOM     14  N   UNL     1       3.489   5.294  18.705  0.00  0.00    +0.000 NA
ATOM     15  N   UNL     1       2.658   6.130  19.371  0.00  0.00    +0.000 N 
ENDROOT
BRANCH  13  16
ATOM     16  C   UNL     1       4.976   5.559  16.737  0.00  0.00    +0.000 A 
ATOM     17  C   UNL     1       4.708   4.375  16.027  0.00  0.00    +0.000 A 
ATOM     18  C   UNL     1       5.652   3.838  15.150  0.00  0.00    +0.000 A 
ATOM     19  C   UNL     1       6.874   4.479  14.970  0.00  0.00    +0.000 A 
ATOM     20  C   UNL     1       7.143   5.663  15.655  0.00  0.00    +0.000 A 
ATOM     21  C   UNL     1       6.198   6.206  16.530  0.00  0.00    +0.000 A 
ENDBRANCH  13  16
BRANCH   1  22
ATOM     22  C   UNL     1       2.062   4.370  21.021  0.00  0.00    +0.000 C 
BRANCH  22  23
ATOM     23  C   UNL     1       0.869   3.513  20.591  0.00  0.00    +0.000 C 
BRANCH  23  25
ATOM     24  C   UNL     1       2.580   2.113  19.296  0.00  0.00    +0.000 C 
ATOM     25  C   UNL     1       1.168   2.630  19.399  0.00  0.00    +0.000 C 
ATOM     26  O   UNL     1       0.316   2.339  18.562  0.00  0.00    +0.000 OA
ENDBRANCH  23  25
ENDBRANCH  22  23
ENDBRANCH   1  22
BRANCH   6  27
ATOM     27  C   UNL     1      -0.881  11.139  21.273  0.00  0.00    +0.000 C 
BRANCH  27  28
ATOM     28  C   UNL     1      -0.508  12.562  20.936  0.00  0.00    +0.000 A 
ATOM     29  C   UNL     1      -1.235  13.280  19.975  0.00  0.00    +0.000 A 
ATOM     30  C   UNL     1      -0.929  14.614  19.703  0.00  0.00    +0.000 A 
ATOM     31  C   UNL     1       0.112  15.244  20.384  0.00  0.00    +0.000 A 
ATOM     32  C   UNL     1       0.860  14.533  21.320  0.00  0.00    +0.000 A 
ATOM     33  C   UNL     1       0.557  13.197  21.591  0.00  0.00    +0.000 A 
ENDBRANCH  27  28
ENDBRANCH   6  27
TORSDOF 6
ENDMDL
MODEL 7
REMARK VINA RESULT:      -7.9      0.720      1.186
REMARK  Name = 
REMARK  8 active torsions:
REMARK  status: ('A' for Active; 'I' for Inactive)
REMARK    1  A    between atoms: C_1  and  C_2
REMARK    2  A    between atoms: C_2  and  C_4
REMARK    3  A    between atoms: C_4  and  C_5
REMARK    4  A    between atoms: C_5  and  C_6
REMARK    5  A    between atoms: N_11  and  C_12
REMARK    6  A    between atoms: C_12  and  C_13
REMARK    7  A    between atoms: C_20  and  C_21
REMARK    8  A    between atoms: C_25  and  C_26
REMARK                            x       y       z     vdW  Elec       q    Type
REMARK                         _______ _______ _______ _____ _____    ______ ____
ROOT
ATOM      1  C   UNL     1      -1.272  11.217  18.617  0.00  0.00    +0.000 A 
ATOM      2  N   UNL     1      -0.398  10.299  18.316  0.00  0.00    +0.000 NA
ATOM      3  C   UNL     1       0.252   9.644  19.361  0.00  0.00    +0.000 A 
ATOM      4  C   UNL     1       1.223   8.556  18.973  0.00  0.00    +0.000 A 
ATOM      5  O   UNL     1       1.425   8.299  17.785  0.00  0.00    +0.000 OA
ATOM      6  N   UNL     1       1.862   7.900  20.014  0.00  0.00    +0.000 N 
ATOM      7  N   UNL     1       1.665   8.176  21.337  0.00  0.00    +0.000 NA
ATOM      8  C   UNL     1       0.827   9.112  21.650  0.00  0.00    +0.000 A 
ATOM      9  C   UNL     1       0.650   9.359  23.132  0.00  0.00    +0.000 C 
ATOM     10  C   UNL     1       0.058   9.923  20.667  0.00  0.00    +0.000 A 
ATOM     11  C   UNL     1      -0.864  10.955  21.004  0.00  0.00    +0.000 A 
ATOM     12  C   UNL     1      -1.343  11.571  22.133  0.00  0.00    +0.000 A 
ATOM     13  C   UNL     1      -2.287  12.535  21.691  0.00  0.00    +0.000 A 
ATOM     14  N   UNL     1      -2.398  12.513  20.352  0.00  0.00    +0.000 NA
ATOM     15  N   UNL     1      -1.514  11.569  19.952  0.00  0.00    +0.000 N 
ENDROOT
BRANCH  13  16
ATOM     16  C   UNL     1      -3.066  13.413  22.566  0.00  0.00    +0.000 A 
ATOM     17  C   UNL     1      -4.471  13.393  22.506  0.00  0.00    +0.000 A 
ATOM     18  C   UNL     1      -5.232  14.287  23.260  0.00  0.00    +0.000 A 
ATOM     19  C   UNL     1      -4.598  15.210  24.087  0.00  0.00    +0.000 A 
ATOM     20  C   UNL     1      -3.206  15.227  24.169  0.00  0.00    +0.000 A 
ATOM     21  C   UNL     1      -2.441  14.330  23.418  0.00  0.00    +0.000 A 
ENDBRANCH  13  16
BRANCH   1  22
ATOM     22  C   UNL     1      -2.027  11.974  17.555  0.00  0.00    +0.000 C 
BRANCH  22  23
ATOM     23  C   UNL     1      -2.188  11.104  16.306  0.00  0.00    +0.000 C 
BRANCH  23  25
ATOM     24  C   UNL     1      -3.849  10.186  14.585  0.00  0.00    +0.000 C 
ATOM     25  C   UNL     1      -3.625  10.980  15.846  0.00  0.00    +0.000 C 
ATOM     26  O   UNL     1      -4.561  11.487  16.459  0.00  0.00    +0.000 OA
ENDBRANCH  23  25
ENDBRANCH  22  23
ENDBRANCH   1  22
BRANCH   6  27
ATOM     27  C   UNL     1       2.828   6.846  19.713  0.00  0.00    +0.000 C 
BRANCH  27  28
ATOM     28  C   UNL     1       2.191   5.498  19.477  0.00  0.00    +0.000 A 
ATOM     29  C   UNL     1       2.195   4.922  18.197  0.00  0.00    +0.000 A 
ATOM     30  C   UNL     1       1.658   3.652  17.989  0.00  0.00    +0.000 A 
ATOM     31  C   UNL     1       1.102   2.946  19.053  0.00  0.00    +0.000 A 
ATOM     32  C   UNL     1       1.064   3.518  20.324  0.00  0.00    +0.000 A 
ATOM     33  C   UNL     1       1.599   4.791  20.534  0.00  0.00    +0.000 A 
ENDBRANCH  27  28
ENDBRANCH   6  27
TORSDOF 6
ENDMDL
MODEL 8
REMARK VINA RESULT:      -7.9      3.032      9.691
REMARK  Name = 
REMARK  8 active torsions:
REMARK  status: ('A' for Active; 'I' for Inactive)
REMARK    1  A    between atoms: C_1  and  C_2
REMARK    2  A    between atoms: C_2  and  C_4
REMARK    3  A    between atoms: C_4  and  C_5
REMARK    4  A    between atoms: C_5  and  C_6
REMARK    5  A    between atoms: N_11  and  C_12
REMARK    6  A    between atoms: C_12  and  C_13
REMARK    7  A    between atoms: C_20  and  C_21
REMARK    8  A    between atoms: C_25  and  C_26
REMARK                            x       y       z     vdW  Elec       q    Type
REMARK                         _______ _______ _______ _____ _____    ______ ____
ROOT
ATOM      1  C   UNL     1       1.993   5.883  20.676  0.00  0.00    +0.000 A 
ATOM      2  N   UNL     1       1.197   6.770  21.201  0.00  0.00    +0.000 NA
ATOM      3  C   UNL     1       1.062   7.996  20.552  0.00  0.00    +0.000 A 
ATOM      4  C   UNL     1       0.096   8.979  21.166  0.00  0.00    +0.000 A 
ATOM      5  O   UNL     1      -0.510   8.692  22.200  0.00  0.00    +0.000 OA
ATOM      6  N   UNL     1      -0.044  10.195  20.514  0.00  0.00    +0.000 N 
ATOM      7  N   UNL     1       0.626  10.542  19.375  0.00  0.00    +0.000 NA
ATOM      8  C   UNL     1       1.450   9.684  18.863  0.00  0.00    +0.000 A 
ATOM      9  C   UNL     1       2.150  10.129  17.598  0.00  0.00    +0.000 C 
ATOM     10  C   UNL     1       1.729   8.337  19.429  0.00  0.00    +0.000 A 
ATOM     11  C   UNL     1       2.634   7.389  18.872  0.00  0.00    +0.000 A 
ATOM     12  C   UNL     1       3.502   7.303  17.812  0.00  0.00    +0.000 A 
ATOM     13  C   UNL     1       4.077   6.006  17.872  0.00  0.00    +0.000 A 
ATOM     14  N   UNL     1       3.582   5.314  18.912  0.00  0.00    +0.000 NA
ATOM     15  N   UNL     1       2.730   6.173  19.519  0.00  0.00    +0.000 N 
ENDROOT
BRANCH  13  16
ATOM     16  C   UNL     1       5.048   5.471  16.916  0.00  0.00    +0.000 A 
ATOM     17  C   UNL     1       6.281   6.123  16.734  0.00  0.00    +0.000 A 
ATOM     18  C   UNL     1       7.182   5.687  15.761  0.00  0.00    +0.000 A 
ATOM     19  C   UNL     1       6.864   4.594  14.962  0.00  0.00    +0.000 A 
ATOM     20  C   UNL     1       5.653   3.928  15.146  0.00  0.00    +0.000 A 
ATOM     21  C   UNL     1       4.750   4.359  16.122  0.00  0.00    +0.000 A 
ENDBRANCH  13  16
BRANCH   1  22
ATOM     22  C   UNL     1       2.199   4.528  21.304  0.00  0.00    +0.000 C 
BRANCH  22  23
ATOM     23  C   UNL     1       1.130   3.552  20.806  0.00  0.00    +0.000 C 
BRANCH  23  25
ATOM     24  C   UNL     1       0.694   2.260  18.637  0.00  0.00    +0.000 C 
ATOM     25  C   UNL     1       1.645   2.586  19.760  0.00  0.00    +0.000 C 
ATOM     26  O   UNL     1       2.770   2.096  19.810  0.00  0.00    +0.000 OA
ENDBRANCH  23  25
ENDBRANCH  22  23
ENDBRANCH   1  22
BRANCH   6  27
ATOM     27  C   UNL     1      -0.949  11.204  21.061  0.00  0.00    +0.000 C 
BRANCH  27  28
ATOM     28  C   UNL     1      -0.503  12.620  20.789  0.00  0.00    +0.000 A 
ATOM     29  C   UNL     1      -1.008  13.327  19.688  0.00  0.00    +0.000 A 
ATOM     30  C   UNL     1      -0.641  14.655  19.468  0.00  0.00    +0.000 A 
ATOM     31  C   UNL     1       0.241  15.289  20.341  0.00  0.00    +0.000 A 
ATOM     32  C   UNL     1       0.773  14.589  21.422  0.00  0.00    +0.000 A 
ATOM     33  C   UNL     1       0.409  13.259  21.642  0.00  0.00    +0.000 A 
ENDBRANCH  27  28
ENDBRANCH   6  27
TORSDOF 6
ENDMDL
MODEL 9
REMARK VINA RESULT:      -7.9      2.783      9.375
REMARK  Name = 
REMARK  8 active torsions:
REMARK  status: ('A' for Active; 'I' for Inactive)
REMARK    1  A    between atoms: C_1  and  C_2
REMARK    2  A    between atoms: C_2  and  C_4
REMARK    3  A    between atoms: C_4  and  C_5
REMARK    4  A    between atoms: C_5  and  C_6
REMARK    5  A    between atoms: N_11  and  C_12
REMARK    6  A    between atoms: C_12  and  C_13
REMARK    7  A    between atoms: C_20  and  C_21
REMARK    8  A    between atoms: C_25  and  C_26
REMARK                            x       y       z     vdW  Elec       q    Type
REMARK                         _______ _______ _______ _____ _____    ______ ____
ROOT
ATOM      1  C   UNL     1       1.949   6.028  20.446  0.00  0.00    +0.000 A 
ATOM      2  N   UNL     1       1.157   6.919  20.970  0.00  0.00    +0.000 NA
ATOM      3  C   UNL     1       1.115   8.184  20.386  0.00  0.00    +0.000 A 
ATOM      4  C   UNL     1       0.152   9.174  20.994  0.00  0.00    +0.000 A 
ATOM      5  O   UNL     1      -0.533   8.856  21.968  0.00  0.00    +0.000 OA
ATOM      6  N   UNL     1       0.105  10.429  20.406  0.00  0.00    +0.000 N 
ATOM      7  N   UNL     1       0.863  10.808  19.334  0.00  0.00    +0.000 NA
ATOM      8  C   UNL     1       1.683   9.944  18.827  0.00  0.00    +0.000 A 
ATOM      9  C   UNL     1       2.483  10.427  17.638  0.00  0.00    +0.000 C 
ATOM     10  C   UNL     1       1.869   8.557  19.331  0.00  0.00    +0.000 A 
ATOM     11  C   UNL     1       2.770   7.602  18.778  0.00  0.00    +0.000 A 
ATOM     12  C   UNL     1       3.702   7.537  17.773  0.00  0.00    +0.000 A 
ATOM     13  C   UNL     1       4.218   6.213  17.793  0.00  0.00    +0.000 A 
ATOM     14  N   UNL     1       3.627   5.487  18.757  0.00  0.00    +0.000 NA
ATOM     15  N   UNL     1       2.772   6.349  19.358  0.00  0.00    +0.000 N 
ENDROOT
BRANCH  13  16
ATOM     16  C   UNL     1       5.228   5.690  16.872  0.00  0.00    +0.000 A 
ATOM     17  C   UNL     1       5.012   5.762  15.484  0.00  0.00    +0.000 A 
ATOM     18  C   UNL     1       5.915   5.185  14.590  0.00  0.00    +0.000 A 
ATOM     19  C   UNL     1       7.046   4.532  15.071  0.00  0.00    +0.000 A 
ATOM     20  C   UNL     1       7.279   4.470  16.445  0.00  0.00    +0.000 A 
ATOM     21  C   UNL     1       6.379   5.051  17.343  0.00  0.00    +0.000 A 
ENDBRANCH  13  16
BRANCH   1  22
ATOM     22  C   UNL     1       2.057   4.633  21.006  0.00  0.00    +0.000 C 
BRANCH  22  23
ATOM     23  C   UNL     1       0.938   3.754  20.442  0.00  0.00    +0.000 C 
BRANCH  23  25
ATOM     24  C   UNL     1       2.151   1.871  19.198  0.00  0.00    +0.000 C 
ATOM     25  C   UNL     1       1.294   3.109  19.120  0.00  0.00    +0.000 C 
ATOM     26  O   UNL     1       0.908   3.555  18.042  0.00  0.00    +0.000 OA
ENDBRANCH  23  25
ENDBRANCH  22  23
ENDBRANCH   1  22
BRANCH   6  27
ATOM     27  C   UNL     1      -0.793  11.445  20.951  0.00  0.00    +0.000 C 
BRANCH  27  28
ATOM     28  C   UNL     1      -2.051  11.632  20.138  0.00  0.00    +0.000 A 
ATOM     29  C   UNL     1      -3.101  12.426  20.622  0.00  0.00    +0.000 A 
ATOM     30  C   UNL     1      -4.240  12.647  19.847  0.00  0.00    +0.000 A 
ATOM     31  C   UNL     1      -4.346  12.069  18.583  0.00  0.00    +0.000 A 
ATOM     32  C   UNL     1      -3.323  11.254  18.102  0.00  0.00    +0.000 A 
ATOM     33  C   UNL     1      -2.184  11.030  18.878  0.00  0.00    +0.000 A 
ENDBRANCH  27  28
ENDBRANCH   6  27
TORSDOF 6
ENDMDL
