MODEL 1
REMARK VINA RESULT:      -8.4      0.000      0.000
REMARK  Name = 
REMARK  5 active torsions:
REMARK  status: ('A' for Active; 'I' for Inactive)
REMARK    1  A    between atoms: C_1  and  C_2
REMARK    2  A    between atoms: C_2  and  N_3
REMARK    3  A    between atoms: N_3  and  C_4
REMARK    4  A    between atoms: C_4  and  C_5
REMARK    5  A    between atoms: C_10  and  C_12
REMARK                            x       y       z     vdW  Elec       q    Type
REMARK                         _______ _______ _______ _____ _____    ______ ____
ROOT
ATOM      1  C   UNL     1       4.938   3.850  19.161  0.00  0.00    +0.000 C 
ATOM      2  C   UNL     1       4.256   2.460  19.386  0.00  0.00    +0.000 C 
ATOM      3  C   UNL     1       2.785   2.602  19.389  0.00  0.00    +0.000 A 
ATOM      4  N   UNL     1       1.851   1.619  19.246  0.00  0.00    +0.000 N 
ATOM      5  C   UNL     1       0.627   2.235  19.243  0.00  0.00    +0.000 A 
ATOM      6  N   UNL     1       0.735   3.541  19.361  0.00  0.00    +0.000 NA
ATOM      7  C   UNL     1       2.085   3.786  19.407  0.00  0.00    +0.000 A 
ATOM      8  C   UNL     1       2.728   5.146  19.257  0.00  0.00    +0.000 C 
ATOM      9  C   UNL     1       2.622   5.570  17.781  0.00  0.00    +0.000 C 
ATOM     10  C   UNL     1       3.256   6.930  17.553  0.00  0.00    +0.000 C 
ATOM     11  C   UNL     1       2.388   7.973  18.226  0.00  0.00    +0.000 C 
ATOM     12  C   UNL     1       2.257   7.701  19.724  0.00  0.00    +0.000 C 
ATOM     13  C   UNL     1       1.984   6.230  20.106  0.00  0.00    +0.000 C 
ATOM     14  N   UNL     1       4.167   5.038  19.705  0.00  0.00    +0.000 NA
ATOM     15  H   UNL     1       2.021   0.636  19.092  0.00  0.00    +0.000 HD
ATOM     16  H   UNL     1       4.121   4.895  20.717  0.00  0.00    +0.000 HD
ENDROOT
BRANCH   1  18
ATOM     17  N   UNL     1       6.458   4.775  17.318  0.00  0.00    +0.000 N 
ATOM     18  C   UNL     1       5.348   4.006  17.662  0.00  0.00    +0.000 C 
ATOM     19  O   UNL     1       4.702   3.421  16.784  0.00  0.00    +0.000 OA
BRANCH  17  21
ATOM     20  C   UNL     1       5.657   5.537  15.071  0.00  0.00    +0.000 C 
ATOM     21  C   UNL     1       6.790   4.938  15.890  0.00  0.00    +0.000 C 
ENDBRANCH  17  21
BRANCH  17  22
ATOM     22  C   UNL     1       7.440   5.254  18.286  0.00  0.00    +0.000 C 
BRANCH  22  23
ATOM     23  C   UNL     1       7.649   6.726  18.128  0.00  0.00    +0.000 A 
ATOM     24  C   UNL     1       7.077   7.708  17.337  0.00  0.00    +0.000 A 
ATOM     25  C   UNL     1       7.701   8.926  17.682  0.00  0.00    +0.000 A 
ATOM     26  C   UNL     1       8.620   8.621  18.656  0.00  0.00    +0.000 A 
ATOM     27  O   UNL     1       8.593   7.290  18.935  0.00  0.00    +0.000 OA
ENDBRANCH  22  23
ENDBRANCH  17  22
ENDBRANCH   1  18
TORSDOF 4
ENDMDL
MODEL 2
REMARK VINA RESULT:      -8.3      0.934      1.114
REMARK  Name = 
REMARK  5 active torsions:
REMARK  status: ('A' for Active; 'I' for Inactive)
REMARK    1  A    between atoms: C_1  and  C_2
REMARK    2  A    between atoms: C_2  and  N_3
REMARK    3  A    between atoms: N_3  and  C_4
REMARK    4  A    between atoms: C_4  and  C_5
REMARK    5  A    between atoms: C_10  and  C_12
REMARK                            x       y       z     vdW  Elec       q    Type
REMARK                         _______ _______ _______ _____ _____    ______ ____
ROOT
ATOM      1  C   UNL     1       4.696   3.866  18.481  0.00  0.00    +0.000 C 
ATOM      2  C   UNL     1       4.093   2.434  18.659  0.00  0.00    +0.000 C 
ATOM      3  C   UNL     1       2.666   2.518  19.033  0.00  0.00    +0.000 A 
ATOM      4  N   UNL     1       1.729   1.530  18.976  0.00  0.00    +0.000 N 
ATOM      5  C   UNL     1       0.538   2.093  19.354  0.00  0.00    +0.000 A 
ATOM      6  N   UNL     1       0.667   3.372  19.630  0.00  0.00    +0.000 NA
ATOM      7  C   UNL     1       1.987   3.660  19.389  0.00  0.00    +0.000 A 
ATOM      8  C   UNL     1       2.571   5.051  19.288  0.00  0.00    +0.000 C 
ATOM      9  C   UNL     1       2.110   5.673  17.957  0.00  0.00    +0.000 C 
ATOM     10  C   UNL     1       2.666   7.074  17.784  0.00  0.00    +0.000 C 
ATOM     11  C   UNL     1       1.982   7.979  18.788  0.00  0.00    +0.000 C 
ATOM     12  C   UNL     1       2.218   7.496  20.218  0.00  0.00    +0.000 C 
ATOM     13  C   UNL     1       2.050   5.977  20.437  0.00  0.00    +0.000 C 
ATOM     14  N   UNL     1       4.076   4.936  19.359  0.00  0.00    +0.000 NA
ATOM     15  H   UNL     1       1.860   0.584  18.645  0.00  0.00    +0.000 HD
ATOM     16  H   UNL     1       4.276   4.651  20.321  0.00  0.00    +0.000 HD
ENDROOT
BRANCH   1  18
ATOM     17  N   UNL     1       5.908   4.726  16.394  0.00  0.00    +0.000 N 
ATOM     18  C   UNL     1       4.732   4.246  16.967  0.00  0.00    +0.000 C 
ATOM     19  O   UNL     1       3.721   4.089  16.270  0.00  0.00    +0.000 OA
BRANCH  17  21
ATOM     20  C   UNL     1       6.338   4.007  14.034  0.00  0.00    +0.000 C 
ATOM     21  C   UNL     1       5.893   5.118  14.972  0.00  0.00    +0.000 C 
ENDBRANCH  17  21
BRANCH  17  22
ATOM     22  C   UNL     1       7.210   4.668  17.053  0.00  0.00    +0.000 C 
BRANCH  22  23
ATOM     23  C   UNL     1       7.568   6.007  17.613  0.00  0.00    +0.000 A 
ATOM     24  C   UNL     1       8.042   6.451  18.835  0.00  0.00    +0.000 A 
ATOM     25  C   UNL     1       8.209   7.849  18.724  0.00  0.00    +0.000 A 
ATOM     26  C   UNL     1       7.822   8.179  17.449  0.00  0.00    +0.000 A 
ATOM     27  O   UNL     1       7.435   7.069  16.766  0.00  0.00    +0.000 OA
ENDBRANCH  22  23
ENDBRANCH  17  22
ENDBRANCH   1  18
TORSDOF 4
ENDMDL
MODEL 3
REMARK VINA RESULT:      -7.1      2.392      5.795
REMARK  Name = 
REMARK  5 active torsions:
REMARK  status: ('A' for Active; 'I' for Inactive)
REMARK    1  A    between atoms: C_1  and  C_2
REMARK    2  A    between atoms: C_2  and  N_3
REMARK    3  A    between atoms: N_3  and  C_4
REMARK    4  A    between atoms: C_4  and  C_5
REMARK    5  A    between atoms: C_10  and  C_12
REMARK                            x       y       z     vdW  Elec       q    Type
REMARK                         _______ _______ _______ _____ _____    ______ ____
ROOT
ATOM      1  C   UNL     1       4.961   6.211  18.389  0.00  0.00    +0.000 C 
ATOM      2  C   UNL     1       6.203   6.575  17.511  0.00  0.00    +0.000 C 
ATOM      3  C   UNL     1       6.456   5.517  16.511  0.00  0.00    +0.000 A 
ATOM      4  N   UNL     1       7.226   5.595  15.389  0.00  0.00    +0.000 N 
ATOM      5  C   UNL     1       7.100   4.396  14.739  0.00  0.00    +0.000 A 
ATOM      6  N   UNL     1       6.291   3.577  15.375  0.00  0.00    +0.000 NA
ATOM      7  C   UNL     1       5.846   4.285  16.463  0.00  0.00    +0.000 A 
ATOM      8  C   UNL     1       4.685   3.886  17.345  0.00  0.00    +0.000 C 
ATOM      9  C   UNL     1       3.380   4.116  16.561  0.00  0.00    +0.000 C 
ATOM     10  C   UNL     1       2.167   3.742  17.392  0.00  0.00    +0.000 C 
ATOM     11  C   UNL     1       2.155   2.236  17.555  0.00  0.00    +0.000 C 
ATOM     12  C   UNL     1       3.429   1.743  18.238  0.00  0.00    +0.000 C 
ATOM     13  C   UNL     1       4.741   2.367  17.716  0.00  0.00    +0.000 C 
ATOM     14  N   UNL     1       4.738   4.726  18.601  0.00  0.00    +0.000 NA
ATOM     15  H   UNL     1       7.730   6.403  15.052  0.00  0.00    +0.000 HD
ATOM     16  H   UNL     1       5.563   4.394  19.109  0.00  0.00    +0.000 HD
ENDROOT
BRANCH   1  18
ATOM     17  N   UNL     1       2.597   7.149  18.696  0.00  0.00    +0.000 N 
ATOM     18  C   UNL     1       3.697   6.962  17.862  0.00  0.00    +0.000 C 
ATOM     19  O   UNL     1       3.689   7.418  16.712  0.00  0.00    +0.000 OA
BRANCH  17  21
ATOM     20  C   UNL     1       1.393   9.324  18.393  0.00  0.00    +0.000 C 
ATOM     21  C   UNL     1       1.403   7.823  18.151  0.00  0.00    +0.000 C 
ENDBRANCH  17  21
BRANCH  17  22
ATOM     22  C   UNL     1       2.625   6.912  20.136  0.00  0.00    +0.000 C 
BRANCH  22  23
ATOM     23  C   UNL     1       2.101   5.547  20.448  0.00  0.00    +0.000 A 
ATOM     24  C   UNL     1       0.862   4.939  20.353  0.00  0.00    +0.000 A 
ATOM     25  C   UNL     1       1.027   3.604  20.784  0.00  0.00    +0.000 A 
ATOM     26  C   UNL     1       2.351   3.475  21.124  0.00  0.00    +0.000 A 
ATOM     27  O   UNL     1       3.012   4.646  20.920  0.00  0.00    +0.000 OA
ENDBRANCH  22  23
ENDBRANCH  17  22
ENDBRANCH   1  18
TORSDOF 4
ENDMDL
MODEL 4
REMARK VINA RESULT:      -6.8      2.092      4.442
REMARK  Name = 
REMARK  5 active torsions:
REMARK  status: ('A' for Active; 'I' for Inactive)
REMARK    1  A    between atoms: C_1  and  C_2
REMARK    2  A    between atoms: C_2  and  N_3
REMARK    3  A    between atoms: N_3  and  C_4
REMARK    4  A    between atoms: C_4  and  C_5
REMARK    5  A    between atoms: C_10  and  C_12
REMARK                            x       y       z     vdW  Elec       q    Type
REMARK                         _______ _______ _______ _____ _____    ______ ____
ROOT
ATOM      1  C   UNL     1       3.890   5.991  16.890  0.00  0.00    +0.000 C 
ATOM      2  C   UNL     1       3.274   7.383  17.251  0.00  0.00    +0.000 C 
ATOM      3  C   UNL     1       2.583   7.319  18.556  0.00  0.00    +0.000 A 
ATOM      4  N   UNL     1       2.199   8.359  19.349  0.00  0.00    +0.000 N 
ATOM      5  C   UNL     1       1.664   7.813  20.485  0.00  0.00    +0.000 A 
ATOM      6  N   UNL     1       1.702   6.498  20.461  0.00  0.00    +0.000 NA
ATOM      7  C   UNL     1       2.317   6.178  19.277  0.00  0.00    +0.000 A 
ATOM      8  C   UNL     1       2.847   4.810  18.913  0.00  0.00    +0.000 C 
ATOM      9  C   UNL     1       4.121   4.551  19.736  0.00  0.00    +0.000 C 
ATOM     10  C   UNL     1       4.715   3.191  19.416  0.00  0.00    +0.000 C 
ATOM     11  C   UNL     1       3.784   2.130  19.966  0.00  0.00    +0.000 C 
ATOM     12  C   UNL     1       2.389   2.249  19.355  0.00  0.00    +0.000 C 
ATOM     13  C   UNL     1       1.824   3.683  19.275  0.00  0.00    +0.000 C 
ATOM     14  N   UNL     1       3.128   4.795  17.428  0.00  0.00    +0.000 NA
ATOM     15  H   UNL     1       2.347   9.344  19.176  0.00  0.00    +0.000 HD
ATOM     16  H   UNL     1       2.208   4.832  16.982  0.00  0.00    +0.000 HD
ENDROOT
BRANCH   1  18
ATOM     17  N   UNL     1       6.202   4.887  16.875  0.00  0.00    +0.000 N 
ATOM     18  C   UNL     1       5.411   5.973  17.244  0.00  0.00    +0.000 C 
ATOM     19  O   UNL     1       5.918   6.940  17.827  0.00  0.00    +0.000 OA
BRANCH  17  21
ATOM     20  C   UNL     1       7.844   5.131  18.750  0.00  0.00    +0.000 C 
ATOM     21  C   UNL     1       7.624   4.883  17.266  0.00  0.00    +0.000 C 
ENDBRANCH  17  21
BRANCH  17  22
ATOM     22  C   UNL     1       5.767   3.851  15.943  0.00  0.00    +0.000 C 
BRANCH  22  23
ATOM     23  C   UNL     1       6.330   4.108  14.582  0.00  0.00    +0.000 A 
ATOM     24  C   UNL     1       6.055   3.631  13.313  0.00  0.00    +0.000 A 
ATOM     25  C   UNL     1       6.932   4.295  12.428  0.00  0.00    +0.000 A 
ATOM     26  C   UNL     1       7.695   5.131  13.204  0.00  0.00    +0.000 A 
ATOM     27  O   UNL     1       7.335   5.028  14.511  0.00  0.00    +0.000 OA
ENDBRANCH  22  23
ENDBRANCH  17  22
ENDBRANCH   1  18
TORSDOF 4
ENDMDL
MODEL 5
REMARK VINA RESULT:      -6.7      1.948      4.321
REMARK  Name = 
REMARK  5 active torsions:
REMARK  status: ('A' for Active; 'I' for Inactive)
REMARK    1  A    between atoms: C_1  and  C_2
REMARK    2  A    between atoms: C_2  and  N_3
REMARK    3  A    between atoms: N_3  and  C_4
REMARK    4  A    between atoms: C_4  and  C_5
REMARK    5  A    between atoms: C_10  and  C_12
REMARK                            x       y       z     vdW  Elec       q    Type
REMARK                         _______ _______ _______ _____ _____    ______ ____
ROOT
ATOM      1  C   UNL     1       3.855   5.845  17.626  0.00  0.00    +0.000 C 
ATOM      2  C   UNL     1       3.437   7.221  18.241  0.00  0.00    +0.000 C 
ATOM      3  C   UNL     1       2.468   7.022  19.339  0.00  0.00    +0.000 A 
ATOM      4  N   UNL     1       2.109   7.912  20.307  0.00  0.00    +0.000 N 
ATOM      5  C   UNL     1       1.239   7.260  21.140  0.00  0.00    +0.000 A 
ATOM      6  N   UNL     1       1.042   6.015  20.765  0.00  0.00    +0.000 NA
ATOM      7  C   UNL     1       1.842   5.841  19.663  0.00  0.00    +0.000 A 
ATOM      8  C   UNL     1       2.183   4.509  19.036  0.00  0.00    +0.000 C 
ATOM      9  C   UNL     1       3.168   3.776  19.965  0.00  0.00    +0.000 C 
ATOM     10  C   UNL     1       3.562   2.426  19.394  0.00  0.00    +0.000 C 
ATOM     11  C   UNL     1       2.353   1.515  19.462  0.00  0.00    +0.000 C 
ATOM     12  C   UNL     1       1.179   2.094  18.675  0.00  0.00    +0.000 C 
ATOM     13  C   UNL     1       0.917   3.600  18.893  0.00  0.00    +0.000 C 
ATOM     14  N   UNL     1       2.787   4.769  17.675  0.00  0.00    +0.000 NA
ATOM     15  H   UNL     1       2.468   8.847  20.438  0.00  0.00    +0.000 HD
ATOM     16  H   UNL     1       2.015   5.123  17.104  0.00  0.00    +0.000 HD
ENDROOT
BRANCH   1  18
ATOM     17  N   UNL     1       6.384   5.473  17.448  0.00  0.00    +0.000 N 
ATOM     18  C   UNL     1       5.226   5.390  18.219  0.00  0.00    +0.000 C 
ATOM     19  O   UNL     1       5.286   4.985  19.387  0.00  0.00    +0.000 OA
BRANCH  17  21
ATOM     20  C   UNL     1       8.171   5.865  19.158  0.00  0.00    +0.000 C 
ATOM     21  C   UNL     1       7.653   4.992  18.025  0.00  0.00    +0.000 C 
ENDBRANCH  17  21
BRANCH  17  22
ATOM     22  C   UNL     1       6.462   6.201  16.185  0.00  0.00    +0.000 C 
BRANCH  22  23
ATOM     23  C   UNL     1       6.449   5.246  15.034  0.00  0.00    +0.000 A 
ATOM     24  C   UNL     1       5.610   4.221  14.634  0.00  0.00    +0.000 A 
ATOM     25  C   UNL     1       6.136   3.711  13.426  0.00  0.00    +0.000 A 
ATOM     26  C   UNL     1       7.265   4.445  13.162  0.00  0.00    +0.000 A 
ATOM     27  O   UNL     1       7.462   5.381  14.129  0.00  0.00    +0.000 OA
ENDBRANCH  22  23
ENDBRANCH  17  22
ENDBRANCH   1  18
TORSDOF 4
ENDMDL
MODEL 6
REMARK VINA RESULT:      -6.6      7.275     10.602
REMARK  Name = 
REMARK  5 active torsions:
REMARK  status: ('A' for Active; 'I' for Inactive)
REMARK    1  A    between atoms: C_1  and  C_2
REMARK    2  A    between atoms: C_2  and  N_3
REMARK    3  A    between atoms: N_3  and  C_4
REMARK    4  A    between atoms: C_4  and  C_5
REMARK    5  A    between atoms: C_10  and  C_12
REMARK                            x       y       z     vdW  Elec       q    Type
REMARK                         _______ _______ _______ _____ _____    ______ ____
ROOT
ATOM      1  C   UNL     1      -1.922  11.706  19.619  0.00  0.00    +0.000 C 
ATOM      2  C   UNL     1      -1.711  13.116  20.263  0.00  0.00    +0.000 C 
ATOM      3  C   UNL     1      -0.307  13.283  20.691  0.00  0.00    +0.000 A 
ATOM      4  N   UNL     1       0.339  14.443  21.000  0.00  0.00    +0.000 N 
ATOM      5  C   UNL     1       1.641  14.110  21.269  0.00  0.00    +0.000 A 
ATOM      6  N   UNL     1       1.854  12.819  21.136  0.00  0.00    +0.000 NA
ATOM      7  C   UNL     1       0.651  12.297  20.729  0.00  0.00    +0.000 A 
ATOM      8  C   UNL     1       0.450  10.906  20.173  0.00  0.00    +0.000 C 
ATOM      9  C   UNL     1       1.039  10.864  18.751  0.00  0.00    +0.000 C 
ATOM     10  C   UNL     1       0.865   9.493  18.124  0.00  0.00    +0.000 C 
ATOM     11  C   UNL     1       1.775   8.525  18.852  0.00  0.00    +0.000 C 
ATOM     12  C   UNL     1       1.441   8.465  20.341  0.00  0.00    +0.000 C 
ATOM     13  C   UNL     1       1.209   9.832  21.020  0.00  0.00    +0.000 C 
ATOM     14  N   UNL     1      -1.032  10.609  20.172  0.00  0.00    +0.000 NA
ATOM     15  H   UNL     1      -0.038  15.379  20.963  0.00  0.00    +0.000 HD
ATOM     16  H   UNL     1      -1.287  10.521  21.160  0.00  0.00    +0.000 HD
ENDROOT
BRANCH   1  18
ATOM     17  N   UNL     1      -2.694  11.003  17.279  0.00  0.00    +0.000 N 
ATOM     18  C   UNL     1      -1.879  11.818  18.062  0.00  0.00    +0.000 C 
ATOM     19  O   UNL     1      -1.140  12.655  17.527  0.00  0.00    +0.000 OA
BRANCH  17  21
ATOM     20  C   UNL     1      -2.949   9.814  15.090  0.00  0.00    +0.000 C 
ATOM     21  C   UNL     1      -2.593  11.105  15.811  0.00  0.00    +0.000 C 
ENDBRANCH  17  21
BRANCH  17  22
ATOM     22  C   UNL     1      -3.794  10.207  17.816  0.00  0.00    +0.000 C 
BRANCH  22  23
ATOM     23  C   UNL     1      -5.051  11.016  17.849  0.00  0.00    +0.000 A 
ATOM     24  C   UNL     1      -5.504  12.134  17.171  0.00  0.00    +0.000 A 
ATOM     25  C   UNL     1      -6.808  12.398  17.643  0.00  0.00    +0.000 A 
ATOM     26  C   UNL     1      -7.075  11.434  18.583  0.00  0.00    +0.000 A 
ATOM     27  O   UNL     1      -6.018  10.589  18.713  0.00  0.00    +0.000 OA
ENDBRANCH  22  23
ENDBRANCH  17  22
ENDBRANCH   1  18
TORSDOF 4
ENDMDL
MODEL 7
REMARK VINA RESULT:      -6.6      9.393     12.230
REMARK  Name = 
REMARK  5 active torsions:
REMARK  status: ('A' for Active; 'I' for Inactive)
REMARK    1  A    between atoms: C_1  and  C_2
REMARK    2  A    between atoms: C_2  and  N_3
REMARK    3  A    between atoms: N_3  and  C_4
REMARK    4  A    between atoms: C_4  and  C_5
REMARK    5  A    between atoms: C_10  and  C_12
REMARK                            x       y       z     vdW  Elec       q    Type
REMARK                         _______ _______ _______ _____ _____    ______ ____
ROOT
ATOM      1  C   UNL     1       7.977  14.592  17.940  0.00  0.00    +0.000 C 
ATOM      2  C   UNL     1       8.261  13.070  17.722  0.00  0.00    +0.000 C 
ATOM      3  C   UNL     1       9.716  12.810  17.730  0.00  0.00    +0.000 A 
ATOM      4  N   UNL     1      10.349  11.612  17.882  0.00  0.00    +0.000 N 
ATOM      5  C   UNL     1      11.693  11.875  17.894  0.00  0.00    +0.000 A 
ATOM      6  N   UNL     1      11.942  13.161  17.773  0.00  0.00    +0.000 NA
ATOM      7  C   UNL     1      10.709  13.761  17.716  0.00  0.00    +0.000 A 
ATOM      8  C   UNL     1      10.455  15.244  17.858  0.00  0.00    +0.000 C 
ATOM      9  C   UNL     1      10.661  15.630  19.335  0.00  0.00    +0.000 C 
ATOM     10  C   UNL     1      10.415  17.111  19.556  0.00  0.00    +0.000 C 
ATOM     11  C   UNL     1      11.537  17.879  18.887  0.00  0.00    +0.000 C 
ATOM     12  C   UNL     1      11.600  17.577  17.391  0.00  0.00    +0.000 C 
ATOM     13  C   UNL     1      11.469  16.085  17.014  0.00  0.00    +0.000 C 
ATOM     14  N   UNL     1       9.043  15.527  17.400  0.00  0.00    +0.000 NA
ATOM     15  H   UNL     1       9.919  10.711  18.036  0.00  0.00    +0.000 HD
ATOM     16  H   UNL     1       9.055  15.373  16.388  0.00  0.00    +0.000 HD
ENDROOT
BRANCH   1  18
ATOM     17  N   UNL     1       6.941  16.026  19.794  0.00  0.00    +0.000 N 
ATOM     18  C   UNL     1       7.613  14.859  19.435  0.00  0.00    +0.000 C 
ATOM     19  O   UNL     1       7.897  14.016  20.296  0.00  0.00    +0.000 OA
BRANCH  17  21
ATOM     20  C   UNL     1       7.584  17.285  21.861  0.00  0.00    +0.000 C 
ATOM     21  C   UNL     1       6.655  16.266  21.221  0.00  0.00    +0.000 C 
ENDBRANCH  17  21
BRANCH  17  22
ATOM     22  C   UNL     1       6.314  16.925  18.830  0.00  0.00    +0.000 C 
BRANCH  22  23
ATOM     23  C   UNL     1       4.900  16.509  18.577  0.00  0.00    +0.000 A 
ATOM     24  C   UNL     1       4.305  15.429  17.949  0.00  0.00    +0.000 A 
ATOM     25  C   UNL     1       2.909  15.605  18.070  0.00  0.00    +0.000 A 
ATOM     26  C   UNL     1       2.731  16.781  18.756  0.00  0.00    +0.000 A 
ATOM     27  O   UNL     1       3.933  17.335  19.071  0.00  0.00    +0.000 OA
ENDBRANCH  22  23
ENDBRANCH  17  22
ENDBRANCH   1  18
TORSDOF 4
ENDMDL
MODEL 8
REMARK VINA RESULT:      -6.6      1.765      5.748
REMARK  Name = 
REMARK  5 active torsions:
REMARK  status: ('A' for Active; 'I' for Inactive)
REMARK    1  A    between atoms: C_1  and  C_2
REMARK    2  A    between atoms: C_2  and  N_3
REMARK    3  A    between atoms: N_3  and  C_4
REMARK    4  A    between atoms: C_4  and  C_5
REMARK    5  A    between atoms: C_10  and  C_12
REMARK                            x       y       z     vdW  Elec       q    Type
REMARK                         _______ _______ _______ _____ _____    ______ ____
ROOT
ATOM      1  C   UNL     1       4.287   5.138  17.306  0.00  0.00    +0.000 C 
ATOM      2  C   UNL     1       4.210   4.456  15.901  0.00  0.00    +0.000 C 
ATOM      3  C   UNL     1       5.505   4.572  15.198  0.00  0.00    +0.000 A 
ATOM      4  N   UNL     1       5.935   3.862  14.117  0.00  0.00    +0.000 N 
ATOM      5  C   UNL     1       7.220   4.265  13.866  0.00  0.00    +0.000 A 
ATOM      6  N   UNL     1       7.626   5.172  14.727  0.00  0.00    +0.000 NA
ATOM      7  C   UNL     1       6.575   5.339  15.594  0.00  0.00    +0.000 A 
ATOM      8  C   UNL     1       6.647   6.063  16.920  0.00  0.00    +0.000 C 
ATOM      9  C   UNL     1       7.427   5.179  17.911  0.00  0.00    +0.000 C 
ATOM     10  C   UNL     1       7.534   5.841  19.272  0.00  0.00    +0.000 C 
ATOM     11  C   UNL     1       8.459   7.034  19.143  0.00  0.00    +0.000 C 
ATOM     12  C   UNL     1       7.934   8.034  18.114  0.00  0.00    +0.000 C 
ATOM     13  C   UNL     1       7.424   7.415  16.795  0.00  0.00    +0.000 C 
ATOM     14  N   UNL     1       5.235   6.320  17.393  0.00  0.00    +0.000 NA
ATOM     15  H   UNL     1       5.440   3.123  13.638  0.00  0.00    +0.000 HD
ATOM     16  H   UNL     1       4.861   7.020  16.748  0.00  0.00    +0.000 HD
ENDROOT
BRANCH   1  18
ATOM     17  N   UNL     1       3.525   3.762  19.328  0.00  0.00    +0.000 N 
ATOM     18  C   UNL     1       4.530   4.061  18.410  0.00  0.00    +0.000 C 
ATOM     19  O   UNL     1       5.606   3.451  18.447  0.00  0.00    +0.000 OA
BRANCH  17  21
ATOM     20  C   UNL     1       2.654   2.588  21.361  0.00  0.00    +0.000 C 
ATOM     21  C   UNL     1       3.806   2.772  20.385  0.00  0.00    +0.000 C 
ENDBRANCH  17  21
BRANCH  17  22
ATOM     22  C   UNL     1       2.142   4.207  19.185  0.00  0.00    +0.000 C 
BRANCH  22  23
ATOM     23  C   UNL     1       1.992   5.605  19.695  0.00  0.00    +0.000 A 
ATOM     24  C   UNL     1       1.619   6.161  20.905  0.00  0.00    +0.000 A 
ATOM     25  C   UNL     1       1.703   7.563  20.755  0.00  0.00    +0.000 A 
ATOM     26  C   UNL     1       2.115   7.783  19.463  0.00  0.00    +0.000 A 
ATOM     27  O   UNL     1       2.296   6.602  18.813  0.00  0.00    +0.000 OA
ENDBRANCH  22  23
ENDBRANCH  17  22
ENDBRANCH   1  18
TORSDOF 4
ENDMDL
MODEL 9
REMARK VINA RESULT:      -6.3      7.390      9.612
REMARK  Name = 
REMARK  5 active torsions:
REMARK  status: ('A' for Active; 'I' for Inactive)
REMARK    1  A    between atoms: C_1  and  C_2
REMARK    2  A    between atoms: C_2  and  N_3
REMARK    3  A    between atoms: N_3  and  C_4
REMARK    4  A    between atoms: C_4  and  C_5
REMARK    5  A    between atoms: C_10  and  C_12
REMARK                            x       y       z     vdW  Elec       q    Type
REMARK                         _______ _______ _______ _____ _____    ______ ____
ROOT
ATOM      1  C   UNL     1      -1.829  12.657  19.446  0.00  0.00    +0.000 C 
ATOM      2  C   UNL     1      -2.900  13.017  20.528  0.00  0.00    +0.000 C 
ATOM      3  C   UNL     1      -4.203  12.410  20.186  0.00  0.00    +0.000 A 
ATOM      4  N   UNL     1      -5.280  12.229  21.003  0.00  0.00    +0.000 N 
ATOM      5  C   UNL     1      -6.226  11.565  20.267  0.00  0.00    +0.000 A 
ATOM      6  N   UNL     1      -5.807  11.308  19.047  0.00  0.00    +0.000 NA
ATOM      7  C   UNL     1      -4.523  11.793  18.999  0.00  0.00    +0.000 A 
ATOM      8  C   UNL     1      -3.519  11.492  17.910  0.00  0.00    +0.000 C 
ATOM      9  C   UNL     1      -3.047  10.036  18.077  0.00  0.00    +0.000 C 
ATOM     10  C   UNL     1      -2.027   9.664  17.017  0.00  0.00    +0.000 C 
ATOM     11  C   UNL     1      -2.740   9.596  15.681  0.00  0.00    +0.000 C 
ATOM     12  C   UNL     1      -3.393  10.932  15.334  0.00  0.00    +0.000 C 
ATOM     13  C   UNL     1      -4.161  11.611  16.488  0.00  0.00    +0.000 C 
ATOM     14  N   UNL     1      -2.374  12.469  18.043  0.00  0.00    +0.000 NA
ATOM     15  H   UNL     1      -5.347  12.462  21.983  0.00  0.00    +0.000 HD
ATOM     16  H   UNL     1      -2.765  13.376  17.777  0.00  0.00    +0.000 HD
ENDROOT
BRANCH   1  18
ATOM     17  N   UNL     1       0.318  11.260  19.406  0.00  0.00    +0.000 N 
ATOM     18  C   UNL     1      -0.953  11.463  19.940  0.00  0.00    +0.000 C 
ATOM     19  O   UNL     1      -1.379  10.714  20.829  0.00  0.00    +0.000 OA
BRANCH  17  21
ATOM     20  C   UNL     1       1.491   9.150  18.738  0.00  0.00    +0.000 C 
ATOM     21  C   UNL     1       1.100  10.096  19.863  0.00  0.00    +0.000 C 
ENDBRANCH  17  21
BRANCH  17  22
ATOM     22  C   UNL     1       1.014  12.244  18.582  0.00  0.00    +0.000 C 
BRANCH  22  23
ATOM     23  C   UNL     1       1.578  13.332  19.438  0.00  0.00    +0.000 A 
ATOM     24  C   UNL     1       2.413  13.365  20.541  0.00  0.00    +0.000 A 
ATOM     25  C   UNL     1       2.597  14.724  20.874  0.00  0.00    +0.000 A 
ATOM     26  C   UNL     1       1.862  15.443  19.964  0.00  0.00    +0.000 A 
ATOM     27  O   UNL     1       1.243  14.608  19.087  0.00  0.00    +0.000 OA
ENDBRANCH  22  23
ENDBRANCH  17  22
ENDBRANCH   1  18
TORSDOF 4
ENDMDL
