MODEL 1
REMARK VINA RESULT:      -8.0      0.000      0.000
REMARK  Name = 
REMARK  6 active torsions:
REMARK  status: ('A' for Active; 'I' for Inactive)
REMARK    1  A    between atoms: C_1  and  O_2
REMARK    2  A    between atoms: O_2  and  C_3
REMARK    3  A    between atoms: C_6  and  N_7
REMARK    4  A    between atoms: N_7  and  C_8
REMARK    5  A    between atoms: C_8  and  C_9
REMARK    6  A    between atoms: C_10  and  C_11
REMARK                            x       y       z     vdW  Elec       q    Type
REMARK                         _______ _______ _______ _____ _____    ______ ____
ROOT
ATOM      1  C   UNL     1       3.480   3.318  18.950  0.00  0.00    +0.000 A 
ATOM      2  C   UNL     1       2.393   4.191  18.701  0.00  0.00    +0.000 A 
ATOM      3  N   UNL     1       1.464   3.565  17.963  0.00  0.00    +0.000 NA
ATOM      4  O   UNL     1       1.924   2.276  17.734  0.00  0.00    +0.000 OA
ATOM      5  N   UNL     1       3.188   2.145  18.386  0.00  0.00    +0.000 N 
ATOM      6  O   UNL     1       3.802   1.072  18.200  0.00  0.00    +0.000 OA
ENDROOT
BRANCH   2   7
ATOM      7  C   UNL     1       2.207   5.588  19.102  0.00  0.00    +0.000 A 
ATOM      8  C   UNL     1       2.496   6.627  18.203  0.00  0.00    +0.000 A 
ATOM      9  C   UNL     1       2.312   7.963  18.573  0.00  0.00    +0.000 A 
ATOM     10  C   UNL     1       1.846   8.279  19.846  0.00  0.00    +0.000 A 
ATOM     11  C   UNL     1       1.554   7.262  20.747  0.00  0.00    +0.000 A 
ATOM     12  C   UNL     1       1.723   5.927  20.371  0.00  0.00    +0.000 A 
ENDBRANCH   2   7
BRANCH   1  13
ATOM     13  C   UNL     1       4.773   3.477  19.624  0.00  0.00    +0.000 C 
BRANCH  13  14
ATOM     14  N   UNL     1       5.911   3.645  18.722  0.00  0.00    +0.000 N 
ATOM     15  H   UNL     1       6.715   3.089  19.002  0.00  0.00    +0.000 HD
BRANCH  14  19
ATOM     16  C   UNL     1       7.306   7.447  17.519  0.00  0.00    +0.000 A 
ATOM     17  C   UNL     1       7.907   6.753  18.567  0.00  0.00    +0.000 A 
ATOM     18  C   UNL     1       7.434   5.493  18.944  0.00  0.00    +0.000 A 
ATOM     19  C   UNL     1       6.317   4.920  18.322  0.00  0.00    +0.000 A 
ATOM     20  C   UNL     1       5.748   5.612  17.248  0.00  0.00    +0.000 A 
ATOM     21  C   UNL     1       6.223   6.871  16.860  0.00  0.00    +0.000 A 
BRANCH  16  23
ATOM     22  C   UNL     1       8.577   9.270  18.306  0.00  0.00    +0.000 C 
ATOM     23  O   UNL     1       7.839   8.674  17.246  0.00  0.00    +0.000 OA
ENDBRANCH  16  23
ENDBRANCH  14  19
ENDBRANCH  13  14
ENDBRANCH   1  13
TORSDOF 5
ENDMDL
MODEL 2
REMARK VINA RESULT:      -8.0      3.461      5.533
REMARK  Name = 
REMARK  6 active torsions:
REMARK  status: ('A' for Active; 'I' for Inactive)
REMARK    1  A    between atoms: C_1  and  O_2
REMARK    2  A    between atoms: O_2  and  C_3
REMARK    3  A    between atoms: C_6  and  N_7
REMARK    4  A    between atoms: N_7  and  C_8
REMARK    5  A    between atoms: C_8  and  C_9
REMARK    6  A    between atoms: C_10  and  C_11
REMARK                            x       y       z     vdW  Elec       q    Type
REMARK                         _______ _______ _______ _____ _____    ______ ____
ROOT
ATOM      1  C   UNL     1       6.344   5.928  17.997  0.00  0.00    +0.000 A 
ATOM      2  C   UNL     1       5.502   5.056  18.729  0.00  0.00    +0.000 A 
ATOM      3  N   UNL     1       6.051   4.786  19.923  0.00  0.00    +0.000 NA
ATOM      4  O   UNL     1       7.246   5.488  19.991  0.00  0.00    +0.000 OA
ATOM      5  N   UNL     1       7.392   6.215  18.770  0.00  0.00    +0.000 N 
ATOM      6  O   UNL     1       8.469   6.829  18.614  0.00  0.00    +0.000 OA
ENDROOT
BRANCH   2   7
ATOM      7  C   UNL     1       4.227   4.447  18.341  0.00  0.00    +0.000 A 
ATOM      8  C   UNL     1       3.076   5.238  18.200  0.00  0.00    +0.000 A 
ATOM      9  C   UNL     1       1.858   4.667  17.821  0.00  0.00    +0.000 A 
ATOM     10  C   UNL     1       1.771   3.298  17.584  0.00  0.00    +0.000 A 
ATOM     11  C   UNL     1       2.901   2.500  17.718  0.00  0.00    +0.000 A 
ATOM     12  C   UNL     1       4.122   3.075  18.082  0.00  0.00    +0.000 A 
ENDBRANCH   2   7
BRANCH   1  13
ATOM     13  C   UNL     1       6.289   6.491  16.643  0.00  0.00    +0.000 C 
BRANCH  13  14
ATOM     14  N   UNL     1       7.278   5.941  15.718  0.00  0.00    +0.000 N 
ATOM     15  H   UNL     1       7.939   6.642  15.393  0.00  0.00    +0.000 HD
BRANCH  14  19
ATOM     16  C   UNL     1       5.912   3.528  12.530  0.00  0.00    +0.000 A 
ATOM     17  C   UNL     1       5.154   3.698  13.686  0.00  0.00    +0.000 A 
ATOM     18  C   UNL     1       5.621   4.507  14.725  0.00  0.00    +0.000 A 
ATOM     19  C   UNL     1       6.880   5.119  14.660  0.00  0.00    +0.000 A 
ATOM     20  C   UNL     1       7.612   4.969  13.479  0.00  0.00    +0.000 A 
ATOM     21  C   UNL     1       7.145   4.167  12.430  0.00  0.00    +0.000 A 
BRANCH  16  23
ATOM     22  C   UNL     1       4.042   3.034  11.182  0.00  0.00    +0.000 C 
ATOM     23  O   UNL     1       5.366   2.706  11.586  0.00  0.00    +0.000 OA
ENDBRANCH  16  23
ENDBRANCH  14  19
ENDBRANCH  13  14
ENDBRANCH   1  13
TORSDOF 5
ENDMDL
MODEL 3
REMARK VINA RESULT:      -7.9      2.274      5.413
REMARK  Name = 
REMARK  6 active torsions:
REMARK  status: ('A' for Active; 'I' for Inactive)
REMARK    1  A    between atoms: C_1  and  O_2
REMARK    2  A    between atoms: O_2  and  C_3
REMARK    3  A    between atoms: C_6  and  N_7
REMARK    4  A    between atoms: N_7  and  C_8
REMARK    5  A    between atoms: C_8  and  C_9
REMARK    6  A    between atoms: C_10  and  C_11
REMARK                            x       y       z     vdW  Elec       q    Type
REMARK                         _______ _______ _______ _____ _____    ______ ____
ROOT
ATOM      1  C   UNL     1       5.798   5.408  16.187  0.00  0.00    +0.000 A 
ATOM      2  C   UNL     1       5.540   6.467  17.090  0.00  0.00    +0.000 A 
ATOM      3  N   UNL     1       6.621   7.254  17.193  0.00  0.00    +0.000 NA
ATOM      4  O   UNL     1       7.590   6.730  16.350  0.00  0.00    +0.000 OA
ATOM      5  N   UNL     1       7.034   5.578  15.715  0.00  0.00    +0.000 N 
ATOM      6  O   UNL     1       7.807   4.915  14.991  0.00  0.00    +0.000 OA
ENDROOT
BRANCH   2   7
ATOM      7  C   UNL     1       4.336   6.749  17.878  0.00  0.00    +0.000 A 
ATOM      8  C   UNL     1       4.091   6.054  19.073  0.00  0.00    +0.000 A 
ATOM      9  C   UNL     1       2.951   6.324  19.835  0.00  0.00    +0.000 A 
ATOM     10  C   UNL     1       2.038   7.285  19.412  0.00  0.00    +0.000 A 
ATOM     11  C   UNL     1       2.265   7.983  18.233  0.00  0.00    +0.000 A 
ATOM     12  C   UNL     1       3.414   7.724  17.479  0.00  0.00    +0.000 A 
ENDBRANCH   2   7
BRANCH   1  13
ATOM     13  C   UNL     1       5.029   4.238  15.750  0.00  0.00    +0.000 C 
BRANCH  13  14
ATOM     14  N   UNL     1       4.983   3.145  16.719  0.00  0.00    +0.000 N 
ATOM     15  H   UNL     1       5.209   2.246  16.302  0.00  0.00    +0.000 HD
BRANCH  14  19
ATOM     16  C   UNL     1       1.810   2.832  19.491  0.00  0.00    +0.000 A 
ATOM     17  C   UNL     1       3.112   2.477  19.837  0.00  0.00    +0.000 A 
ATOM     18  C   UNL     1       4.148   2.595  18.906  0.00  0.00    +0.000 A 
ATOM     19  C   UNL     1       3.901   3.018  17.593  0.00  0.00    +0.000 A 
ATOM     20  C   UNL     1       2.596   3.406  17.273  0.00  0.00    +0.000 A 
ATOM     21  C   UNL     1       1.556   3.298  18.204  0.00  0.00    +0.000 A 
BRANCH  16  23
ATOM     22  C   UNL     1       1.371   2.721  21.805  0.00  0.00    +0.000 C 
ATOM     23  O   UNL     1       0.876   2.663  20.472  0.00  0.00    +0.000 OA
ENDBRANCH  16  23
ENDBRANCH  14  19
ENDBRANCH  13  14
ENDBRANCH   1  13
TORSDOF 5
ENDMDL
MODEL 4
REMARK VINA RESULT:      -7.9      2.278      5.340
REMARK  Name = 
REMARK  6 active torsions:
REMARK  status: ('A' for Active; 'I' for Inactive)
REMARK    1  A    between atoms: C_1  and  O_2
REMARK    2  A    between atoms: O_2  and  C_3
REMARK    3  A    between atoms: C_6  and  N_7
REMARK    4  A    between atoms: N_7  and  C_8
REMARK    5  A    between atoms: C_8  and  C_9
REMARK    6  A    between atoms: C_10  and  C_11
REMARK                            x       y       z     vdW  Elec       q    Type
REMARK                         _______ _______ _______ _____ _____    ______ ____
ROOT
ATOM      1  C   UNL     1       5.788   5.409  16.191  0.00  0.00    +0.000 A 
ATOM      2  C   UNL     1       5.529   6.473  17.088  0.00  0.00    +0.000 A 
ATOM      3  N   UNL     1       6.614   7.256  17.193  0.00  0.00    +0.000 NA
ATOM      4  O   UNL     1       7.585   6.723  16.358  0.00  0.00    +0.000 OA
ATOM      5  N   UNL     1       7.026   5.571  15.724  0.00  0.00    +0.000 N 
ATOM      6  O   UNL     1       7.801   4.900  15.007  0.00  0.00    +0.000 OA
ENDROOT
BRANCH   2   7
ATOM      7  C   UNL     1       4.323   6.765  17.867  0.00  0.00    +0.000 A 
ATOM      8  C   UNL     1       3.407   7.731  17.421  0.00  0.00    +0.000 A 
ATOM      9  C   UNL     1       2.248   8.008  18.153  0.00  0.00    +0.000 A 
ATOM     10  C   UNL     1       1.993   7.331  19.343  0.00  0.00    +0.000 A 
ATOM     11  C   UNL     1       2.889   6.371  19.798  0.00  0.00    +0.000 A 
ATOM     12  C   UNL     1       4.040   6.084  19.057  0.00  0.00    +0.000 A 
ENDBRANCH   2   7
BRANCH   1  13
ATOM     13  C   UNL     1       5.014   4.242  15.754  0.00  0.00    +0.000 C 
BRANCH  13  14
ATOM     14  N   UNL     1       4.971   3.146  16.720  0.00  0.00    +0.000 N 
ATOM     15  H   UNL     1       5.194   2.247  16.301  0.00  0.00    +0.000 HD
BRANCH  14  19
ATOM     16  C   UNL     1       1.811   2.835  19.507  0.00  0.00    +0.000 A 
ATOM     17  C   UNL     1       3.117   2.491  19.851  0.00  0.00    +0.000 A 
ATOM     18  C   UNL     1       4.148   2.608  18.916  0.00  0.00    +0.000 A 
ATOM     19  C   UNL     1       3.893   3.018  17.600  0.00  0.00    +0.000 A 
ATOM     20  C   UNL     1       2.585   3.395  17.282  0.00  0.00    +0.000 A 
ATOM     21  C   UNL     1       1.550   3.288  18.218  0.00  0.00    +0.000 A 
BRANCH  16  23
ATOM     22  C   UNL     1       1.383   2.729  21.823  0.00  0.00    +0.000 C 
ATOM     23  O   UNL     1       0.882   2.668  20.493  0.00  0.00    +0.000 OA
ENDBRANCH  16  23
ENDBRANCH  14  19
ENDBRANCH  13  14
ENDBRANCH   1  13
TORSDOF 5
ENDMDL
MODEL 5
REMARK VINA RESULT:      -7.7      2.304      5.485
REMARK  Name = 
REMARK  6 active torsions:
REMARK  status: ('A' for Active; 'I' for Inactive)
REMARK    1  A    between atoms: C_1  and  O_2
REMARK    2  A    between atoms: O_2  and  C_3
REMARK    3  A    between atoms: C_6  and  N_7
REMARK    4  A    between atoms: N_7  and  C_8
REMARK    5  A    between atoms: C_8  and  C_9
REMARK    6  A    between atoms: C_10  and  C_11
REMARK                            x       y       z     vdW  Elec       q    Type
REMARK                         _______ _______ _______ _____ _____    ______ ____
ROOT
ATOM      1  C   UNL     1       5.747   5.432  16.165  0.00  0.00    +0.000 A 
ATOM      2  C   UNL     1       5.483   6.518  17.033  0.00  0.00    +0.000 A 
ATOM      3  N   UNL     1       6.584   7.274  17.167  0.00  0.00    +0.000 NA
ATOM      4  O   UNL     1       7.571   6.701  16.379  0.00  0.00    +0.000 OA
ATOM      5  N   UNL     1       7.006   5.552  15.744  0.00  0.00    +0.000 N 
ATOM      6  O   UNL     1       7.789   4.849  15.069  0.00  0.00    +0.000 OA
ENDROOT
BRANCH   2   7
ATOM      7  C   UNL     1       4.256   6.856  17.760  0.00  0.00    +0.000 A 
ATOM      8  C   UNL     1       3.927   6.182  18.947  0.00  0.00    +0.000 A 
ATOM      9  C   UNL     1       2.764   6.504  19.652  0.00  0.00    +0.000 A 
ATOM     10  C   UNL     1       1.911   7.497  19.179  0.00  0.00    +0.000 A 
ATOM     11  C   UNL     1       2.222   8.175  18.006  0.00  0.00    +0.000 A 
ATOM     12  C   UNL     1       3.393   7.862  17.310  0.00  0.00    +0.000 A 
ENDBRANCH   2   7
BRANCH   1  13
ATOM     13  C   UNL     1       4.959   4.277  15.718  0.00  0.00    +0.000 C 
BRANCH  13  14
ATOM     14  N   UNL     1       4.962   3.146  16.644  0.00  0.00    +0.000 N 
ATOM     15  H   UNL     1       5.048   2.252  16.168  0.00  0.00    +0.000 HD
BRANCH  14  19
ATOM     16  C   UNL     1       1.982   2.807  19.620  0.00  0.00    +0.000 A 
ATOM     17  C   UNL     1       1.661   3.155  18.310  0.00  0.00    +0.000 A 
ATOM     18  C   UNL     1       2.661   3.254  17.340  0.00  0.00    +0.000 A 
ATOM     19  C   UNL     1       4.011   3.064  17.665  0.00  0.00    +0.000 A 
ATOM     20  C   UNL     1       4.313   2.679  18.975  0.00  0.00    +0.000 A 
ATOM     21  C   UNL     1       3.314   2.569  19.949  0.00  0.00    +0.000 A 
BRANCH  16  23
ATOM     22  C   UNL     1       1.274   2.692  21.866  0.00  0.00    +0.000 C 
ATOM     23  O   UNL     1       0.929   2.754  20.488  0.00  0.00    +0.000 OA
ENDBRANCH  16  23
ENDBRANCH  14  19
ENDBRANCH  13  14
ENDBRANCH   1  13
TORSDOF 5
ENDMDL
MODEL 6
REMARK VINA RESULT:      -7.7      2.279      5.428
REMARK  Name = 
REMARK  6 active torsions:
REMARK  status: ('A' for Active; 'I' for Inactive)
REMARK    1  A    between atoms: C_1  and  O_2
REMARK    2  A    between atoms: O_2  and  C_3
REMARK    3  A    between atoms: C_6  and  N_7
REMARK    4  A    between atoms: N_7  and  C_8
REMARK    5  A    between atoms: C_8  and  C_9
REMARK    6  A    between atoms: C_10  and  C_11
REMARK                            x       y       z     vdW  Elec       q    Type
REMARK                         _______ _______ _______ _____ _____    ______ ____
ROOT
ATOM      1  C   UNL     1       5.782   5.452  16.157  0.00  0.00    +0.000 A 
ATOM      2  C   UNL     1       5.537   6.486  17.092  0.00  0.00    +0.000 A 
ATOM      3  N   UNL     1       6.633   7.249  17.226  0.00  0.00    +0.000 NA
ATOM      4  O   UNL     1       7.597   6.734  16.372  0.00  0.00    +0.000 OA
ATOM      5  N   UNL     1       7.023   5.613  15.697  0.00  0.00    +0.000 N 
ATOM      6  O   UNL     1       7.789   4.958  14.957  0.00  0.00    +0.000 OA
ENDROOT
BRANCH   2   7
ATOM      7  C   UNL     1       4.334   6.766  17.881  0.00  0.00    +0.000 A 
ATOM      8  C   UNL     1       3.413   7.734  17.451  0.00  0.00    +0.000 A 
ATOM      9  C   UNL     1       2.258   8.000  18.192  0.00  0.00    +0.000 A 
ATOM     10  C   UNL     1       2.011   7.309  19.375  0.00  0.00    +0.000 A 
ATOM     11  C   UNL     1       2.912   6.346  19.814  0.00  0.00    +0.000 A 
ATOM     12  C   UNL     1       4.059   6.070  19.064  0.00  0.00    +0.000 A 
ENDBRANCH   2   7
BRANCH   1  13
ATOM     13  C   UNL     1       4.993   4.311  15.677  0.00  0.00    +0.000 C 
BRANCH  13  14
ATOM     14  N   UNL     1       4.995   3.154  16.570  0.00  0.00    +0.000 N 
ATOM     15  H   UNL     1       5.093   2.275  16.069  0.00  0.00    +0.000 HD
BRANCH  14  19
ATOM     16  C   UNL     1       1.981   2.723  19.499  0.00  0.00    +0.000 A 
ATOM     17  C   UNL     1       1.694   3.229  18.233  0.00  0.00    +0.000 A 
ATOM     18  C   UNL     1       2.705   3.357  17.277  0.00  0.00    +0.000 A 
ATOM     19  C   UNL     1       4.035   3.034  17.578  0.00  0.00    +0.000 A 
ATOM     20  C   UNL     1       4.300   2.492  18.840  0.00  0.00    +0.000 A 
ATOM     21  C   UNL     1       3.289   2.354  19.799  0.00  0.00    +0.000 A 
BRANCH  16  23
ATOM     22  C   UNL     1       1.244   2.770  21.738  0.00  0.00    +0.000 C 
ATOM     23  O   UNL     1       0.921   2.655  20.358  0.00  0.00    +0.000 OA
ENDBRANCH  16  23
ENDBRANCH  14  19
ENDBRANCH  13  14
ENDBRANCH   1  13
TORSDOF 5
ENDMDL
MODEL 7
REMARK VINA RESULT:      -7.6      3.485      5.522
REMARK  Name = 
REMARK  6 active torsions:
REMARK  status: ('A' for Active; 'I' for Inactive)
REMARK    1  A    between atoms: C_1  and  O_2
REMARK    2  A    between atoms: O_2  and  C_3
REMARK    3  A    between atoms: C_6  and  N_7
REMARK    4  A    between atoms: N_7  and  C_8
REMARK    5  A    between atoms: C_8  and  C_9
REMARK    6  A    between atoms: C_10  and  C_11
REMARK                            x       y       z     vdW  Elec       q    Type
REMARK                         _______ _______ _______ _____ _____    ______ ____
ROOT
ATOM      1  C   UNL     1       6.315   5.952  18.030  0.00  0.00    +0.000 A 
ATOM      2  C   UNL     1       5.480   5.051  18.733  0.00  0.00    +0.000 A 
ATOM      3  N   UNL     1       6.039   4.735  19.912  0.00  0.00    +0.000 NA
ATOM      4  O   UNL     1       7.233   5.436  19.998  0.00  0.00    +0.000 OA
ATOM      5  N   UNL     1       7.369   6.210  18.805  0.00  0.00    +0.000 N 
ATOM      6  O   UNL     1       8.444   6.831  18.665  0.00  0.00    +0.000 OA
ENDROOT
BRANCH   2   7
ATOM      7  C   UNL     1       4.202   4.455  18.332  0.00  0.00    +0.000 A 
ATOM      8  C   UNL     1       4.112   3.078  18.075  0.00  0.00    +0.000 A 
ATOM      9  C   UNL     1       2.895   2.499  17.702  0.00  0.00    +0.000 A 
ATOM     10  C   UNL     1       1.755   3.288  17.574  0.00  0.00    +0.000 A 
ATOM     11  C   UNL     1       1.827   4.653  17.826  0.00  0.00    +0.000 A 
ATOM     12  C   UNL     1       3.041   5.228  18.214  0.00  0.00    +0.000 A 
ENDBRANCH   2   7
BRANCH   1  13
ATOM     13  C   UNL     1       6.249   6.566  16.699  0.00  0.00    +0.000 C 
BRANCH  13  14
ATOM     14  N   UNL     1       7.157   5.981  15.715  0.00  0.00    +0.000 N 
ATOM     15  H   UNL     1       7.809   6.661  15.333  0.00  0.00    +0.000 HD
BRANCH  14  19
ATOM     16  C   UNL     1       5.835   3.408  12.635  0.00  0.00    +0.000 A 
ATOM     17  C   UNL     1       7.047   4.088  12.541  0.00  0.00    +0.000 A 
ATOM     18  C   UNL     1       7.469   4.928  13.574  0.00  0.00    +0.000 A 
ATOM     19  C   UNL     1       6.667   5.154  14.701  0.00  0.00    +0.000 A 
ATOM     20  C   UNL     1       5.471   4.436  14.798  0.00  0.00    +0.000 A 
ATOM     21  C   UNL     1       5.048   3.586  13.770  0.00  0.00    +0.000 A 
BRANCH  16  23
ATOM     22  C   UNL     1       6.462   1.615  11.240  0.00  0.00    +0.000 C 
ATOM     23  O   UNL     1       5.516   2.626  11.563  0.00  0.00    +0.000 OA
ENDBRANCH  16  23
ENDBRANCH  14  19
ENDBRANCH  13  14
ENDBRANCH   1  13
TORSDOF 5
ENDMDL
MODEL 8
REMARK VINA RESULT:      -7.5      2.971      6.665
REMARK  Name = 
REMARK  6 active torsions:
REMARK  status: ('A' for Active; 'I' for Inactive)
REMARK    1  A    between atoms: C_1  and  O_2
REMARK    2  A    between atoms: O_2  and  C_3
REMARK    3  A    between atoms: C_6  and  N_7
REMARK    4  A    between atoms: N_7  and  C_8
REMARK    5  A    between atoms: C_8  and  C_9
REMARK    6  A    between atoms: C_10  and  C_11
REMARK                            x       y       z     vdW  Elec       q    Type
REMARK                         _______ _______ _______ _____ _____    ______ ____
ROOT
ATOM      1  C   UNL     1       6.428   5.596  17.404  0.00  0.00    +0.000 A 
ATOM      2  C   UNL     1       7.138   4.766  16.502  0.00  0.00    +0.000 A 
ATOM      3  N   UNL     1       8.079   4.074  17.162  0.00  0.00    +0.000 NA
ATOM      4  O   UNL     1       7.985   4.429  18.499  0.00  0.00    +0.000 OA
ATOM      5  N   UNL     1       6.922   5.375  18.623  0.00  0.00    +0.000 N 
ATOM      6  O   UNL     1       6.759   5.885  19.752  0.00  0.00    +0.000 OA
ENDROOT
BRANCH   2   7
ATOM      7  C   UNL     1       6.989   4.623  15.051  0.00  0.00    +0.000 A 
ATOM      8  C   UNL     1       5.976   3.809  14.519  0.00  0.00    +0.000 A 
ATOM      9  C   UNL     1       5.820   3.675  13.137  0.00  0.00    +0.000 A 
ATOM     10  C   UNL     1       6.676   4.344  12.267  0.00  0.00    +0.000 A 
ATOM     11  C   UNL     1       7.684   5.154  12.777  0.00  0.00    +0.000 A 
ATOM     12  C   UNL     1       7.829   5.301  14.159  0.00  0.00    +0.000 A 
ENDBRANCH   2   7
BRANCH   1  13
ATOM     13  C   UNL     1       5.367   6.595  17.240  0.00  0.00    +0.000 C 
BRANCH  13  14
ATOM     14  N   UNL     1       4.066   6.043  16.867  0.00  0.00    +0.000 N 
ATOM     15  H   UNL     1       3.490   6.711  16.362  0.00  0.00    +0.000 HD
BRANCH  14  19
ATOM     16  C   UNL     1       1.656   4.086  19.732  0.00  0.00    +0.000 A 
ATOM     17  C   UNL     1       2.250   5.316  20.004  0.00  0.00    +0.000 A 
ATOM     18  C   UNL     1       3.038   5.949  19.039  0.00  0.00    +0.000 A 
ATOM     19  C   UNL     1       3.296   5.346  17.801  0.00  0.00    +0.000 A 
ATOM     20  C   UNL     1       2.663   4.129  17.530  0.00  0.00    +0.000 A 
ATOM     21  C   UNL     1       1.866   3.494  18.489  0.00  0.00    +0.000 A 
BRANCH  16  23
ATOM     22  C   UNL     1       1.627   2.676  21.622  0.00  0.00    +0.000 C 
ATOM     23  O   UNL     1       0.921   3.552  20.751  0.00  0.00    +0.000 OA
ENDBRANCH  16  23
ENDBRANCH  14  19
ENDBRANCH  13  14
ENDBRANCH   1  13
TORSDOF 5
ENDMDL
MODEL 9
REMARK VINA RESULT:      -7.5      2.993      6.676
REMARK  Name = 
REMARK  6 active torsions:
REMARK  status: ('A' for Active; 'I' for Inactive)
REMARK    1  A    between atoms: C_1  and  O_2
REMARK    2  A    between atoms: O_2  and  C_3
REMARK    3  A    between atoms: C_6  and  N_7
REMARK    4  A    between atoms: N_7  and  C_8
REMARK    5  A    between atoms: C_8  and  C_9
REMARK    6  A    between atoms: C_10  and  C_11
REMARK                            x       y       z     vdW  Elec       q    Type
REMARK                         _______ _______ _______ _____ _____    ______ ____
ROOT
ATOM      1  C   UNL     1       6.461   5.624  17.330  0.00  0.00    +0.000 A 
ATOM      2  C   UNL     1       7.163   4.781  16.436  0.00  0.00    +0.000 A 
ATOM      3  N   UNL     1       8.091   4.078  17.103  0.00  0.00    +0.000 NA
ATOM      4  O   UNL     1       7.995   4.441  18.439  0.00  0.00    +0.000 OA
ATOM      5  N   UNL     1       6.944   5.402  18.553  0.00  0.00    +0.000 N 
ATOM      6  O   UNL     1       6.783   5.919  19.680  0.00  0.00    +0.000 OA
ENDROOT
BRANCH   2   7
ATOM      7  C   UNL     1       7.019   4.634  14.985  0.00  0.00    +0.000 A 
ATOM      8  C   UNL     1       7.873   5.328  14.113  0.00  0.00    +0.000 A 
ATOM      9  C   UNL     1       7.749   5.185  12.728  0.00  0.00    +0.000 A 
ATOM     10  C   UNL     1       6.768   4.354  12.195  0.00  0.00    +0.000 A 
ATOM     11  C   UNL     1       5.915   3.659  13.044  0.00  0.00    +0.000 A 
ATOM     12  C   UNL     1       6.050   3.790  14.429  0.00  0.00    +0.000 A 
ENDBRANCH   2   7
BRANCH   1  13
ATOM     13  C   UNL     1       5.414   6.638  17.157  0.00  0.00    +0.000 C 
BRANCH  13  14
ATOM     14  N   UNL     1       4.090   6.098  16.856  0.00  0.00    +0.000 N 
ATOM     15  H   UNL     1       3.552   6.706  16.244  0.00  0.00    +0.000 HD
BRANCH  14  19
ATOM     16  C   UNL     1       1.724   4.422  19.929  0.00  0.00    +0.000 A 
ATOM     17  C   UNL     1       1.979   3.726  18.749  0.00  0.00    +0.000 A 
ATOM     18  C   UNL     1       2.770   4.296  17.749  0.00  0.00    +0.000 A 
ATOM     19  C   UNL     1       3.280   5.595  17.877  0.00  0.00    +0.000 A 
ATOM     20  C   UNL     1       3.047   6.266  19.082  0.00  0.00    +0.000 A 
ATOM     21  C   UNL     1       2.263   5.695  20.092  0.00  0.00    +0.000 A 
BRANCH  16  23
ATOM     22  C   UNL     1       1.508   2.635  21.452  0.00  0.00    +0.000 C 
ATOM     23  O   UNL     1       0.928   3.776  20.831  0.00  0.00    +0.000 OA
ENDBRANCH  16  23
ENDBRANCH  14  19
ENDBRANCH  13  14
ENDBRANCH   1  13
TORSDOF 5
ENDMDL
