MODEL 1
REMARK VINA RESULT:      -6.5      0.000      0.000
REMARK  Name = 
REMARK  2 active torsions:
REMARK  status: ('A' for Active; 'I' for Inactive)
REMARK    1  A    between atoms: C_1  and  C_2
REMARK    2  A    between atoms: C_6  and  C_7
REMARK                            x       y       z     vdW  Elec       q    Type
REMARK                         _______ _______ _______ _____ _____    ______ ____
ROOT
ATOM      1  C   UNL     1       6.108   3.913  14.761  0.00  0.00    +0.000 C 
ATOM      2  C   UNL     1       5.321   4.734  15.742  0.00  0.00    +0.000 A 
ATOM      3  C   UNL     1       5.540   6.105  15.870  0.00  0.00    +0.000 A 
ATOM      4  C   UNL     1       4.812   6.842  16.800  0.00  0.00    +0.000 A 
ATOM      5  C   UNL     1       3.866   6.211  17.613  0.00  0.00    +0.000 A 
ATOM      6  C   UNL     1       3.611   4.832  17.509  0.00  0.00    +0.000 A 
ATOM      7  C   UNL     1       4.357   4.114  16.554  0.00  0.00    +0.000 A 
ENDROOT
BRANCH   6   8
ATOM      8  C   UNL     1       2.603   4.162  18.363  0.00  0.00    +0.000 A 
ATOM      9  C   UNL     1       2.086   4.757  19.524  0.00  0.00    +0.000 A 
ATOM     10  C   UNL     1       1.135   4.099  20.305  0.00  0.00    +0.000 A 
ATOM     11  C   UNL     1       0.707   2.847  19.902  0.00  0.00    +0.000 A 
ATOM     12  N   UNL     1       1.167   2.225  18.801  0.00  0.00    +0.000 NA
ATOM     13  C   UNL     1       2.098   2.891  18.071  0.00  0.00    +0.000 A 
ENDBRANCH   6   8
TORSDOF 1
ENDMDL
MODEL 2
REMARK VINA RESULT:      -6.5      2.369      5.405
REMARK  Name = 
REMARK  2 active torsions:
REMARK  status: ('A' for Active; 'I' for Inactive)
REMARK    1  A    between atoms: C_1  and  C_2
REMARK    2  A    between atoms: C_6  and  C_7
REMARK                            x       y       z     vdW  Elec       q    Type
REMARK                         _______ _______ _______ _____ _____    ______ ____
ROOT
ATOM      1  C   UNL     1       1.876   2.661  21.772  0.00  0.00    +0.000 C 
ATOM      2  C   UNL     1       1.994   3.082  20.336  0.00  0.00    +0.000 A 
ATOM      3  C   UNL     1       0.867   3.183  19.522  0.00  0.00    +0.000 A 
ATOM      4  C   UNL     1       1.002   3.558  18.188  0.00  0.00    +0.000 A 
ATOM      5  C   UNL     1       2.268   3.826  17.658  0.00  0.00    +0.000 A 
ATOM      6  C   UNL     1       3.429   3.742  18.448  0.00  0.00    +0.000 A 
ATOM      7  C   UNL     1       3.259   3.369  19.796  0.00  0.00    +0.000 A 
ENDROOT
BRANCH   6   8
ATOM      8  C   UNL     1       4.770   4.034  17.891  0.00  0.00    +0.000 A 
ATOM      9  C   UNL     1       5.057   3.921  16.522  0.00  0.00    +0.000 A 
ATOM     10  C   UNL     1       6.331   4.207  16.032  0.00  0.00    +0.000 A 
ATOM     11  C   UNL     1       7.305   4.611  16.926  0.00  0.00    +0.000 A 
ATOM     12  N   UNL     1       7.091   4.736  18.249  0.00  0.00    +0.000 NA
ATOM     13  C   UNL     1       5.841   4.441  18.692  0.00  0.00    +0.000 A 
ENDBRANCH   6   8
TORSDOF 1
ENDMDL
MODEL 3
REMARK VINA RESULT:      -6.4      0.783      1.326
REMARK  Name = 
REMARK  2 active torsions:
REMARK  status: ('A' for Active; 'I' for Inactive)
REMARK    1  A    between atoms: C_1  and  C_2
REMARK    2  A    between atoms: C_6  and  C_7
REMARK                            x       y       z     vdW  Elec       q    Type
REMARK                         _______ _______ _______ _____ _____    ______ ____
ROOT
ATOM      1  C   UNL     1       6.060   3.899  14.663  0.00  0.00    +0.000 C 
ATOM      2  C   UNL     1       5.336   4.714  15.695  0.00  0.00    +0.000 A 
ATOM      3  C   UNL     1       5.632   6.064  15.882  0.00  0.00    +0.000 A 
ATOM      4  C   UNL     1       4.961   6.795  16.858  0.00  0.00    +0.000 A 
ATOM      5  C   UNL     1       3.995   6.178  17.660  0.00  0.00    +0.000 A 
ATOM      6  C   UNL     1       3.663   4.821  17.498  0.00  0.00    +0.000 A 
ATOM      7  C   UNL     1       4.353   4.109  16.497  0.00  0.00    +0.000 A 
ENDROOT
BRANCH   6   8
ATOM      8  C   UNL     1       2.634   4.168  18.339  0.00  0.00    +0.000 A 
ATOM      9  C   UNL     1       2.102   2.906  18.033  0.00  0.00    +0.000 A 
ATOM     10  C   UNL     1       1.135   2.319  18.850  0.00  0.00    +0.000 A 
ATOM     11  C   UNL     1       0.717   3.008  19.973  0.00  0.00    +0.000 A 
ATOM     12  N   UNL     1       1.189   4.221  20.318  0.00  0.00    +0.000 NA
ATOM     13  C   UNL     1       2.122   4.765  19.495  0.00  0.00    +0.000 A 
ENDBRANCH   6   8
TORSDOF 1
ENDMDL
MODEL 4
REMARK VINA RESULT:      -6.4      2.784      5.401
REMARK  Name = 
REMARK  2 active torsions:
REMARK  status: ('A' for Active; 'I' for Inactive)
REMARK    1  A    between atoms: C_1  and  C_2
REMARK    2  A    between atoms: C_6  and  C_7
REMARK                            x       y       z     vdW  Elec       q    Type
REMARK                         _______ _______ _______ _____ _____    ______ ____
ROOT
ATOM      1  C   UNL     1       1.145   4.363  20.456  0.00  0.00    +0.000 C 
ATOM      2  C   UNL     1       2.044   4.209  19.265  0.00  0.00    +0.000 A 
ATOM      3  C   UNL     1       1.719   3.338  18.226  0.00  0.00    +0.000 A 
ATOM      4  C   UNL     1       2.578   3.198  17.139  0.00  0.00    +0.000 A 
ATOM      5  C   UNL     1       3.772   3.923  17.089  0.00  0.00    +0.000 A 
ATOM      6  C   UNL     1       4.133   4.817  18.113  0.00  0.00    +0.000 A 
ATOM      7  C   UNL     1       3.241   4.943  19.195  0.00  0.00    +0.000 A 
ENDROOT
BRANCH   6   8
ATOM      8  C   UNL     1       5.394   5.592  18.058  0.00  0.00    +0.000 A 
ATOM      9  C   UNL     1       6.471   5.341  18.921  0.00  0.00    +0.000 A 
ATOM     10  C   UNL     1       7.645   6.090  18.840  0.00  0.00    +0.000 A 
ATOM     11  C   UNL     1       7.726   7.083  17.881  0.00  0.00    +0.000 A 
ATOM     12  N   UNL     1       6.727   7.372  17.026  0.00  0.00    +0.000 NA
ATOM     13  C   UNL     1       5.596   6.629  17.141  0.00  0.00    +0.000 A 
ENDBRANCH   6   8
TORSDOF 1
ENDMDL
MODEL 5
REMARK VINA RESULT:      -6.4      2.708      5.382
REMARK  Name = 
REMARK  2 active torsions:
REMARK  status: ('A' for Active; 'I' for Inactive)
REMARK    1  A    between atoms: C_1  and  C_2
REMARK    2  A    between atoms: C_6  and  C_7
REMARK                            x       y       z     vdW  Elec       q    Type
REMARK                         _______ _______ _______ _____ _____    ______ ____
ROOT
ATOM      1  C   UNL     1       2.243   2.922  21.554  0.00  0.00    +0.000 C 
ATOM      2  C   UNL     1       2.384   3.571  20.207  0.00  0.00    +0.000 A 
ATOM      3  C   UNL     1       1.348   3.524  19.275  0.00  0.00    +0.000 A 
ATOM      4  C   UNL     1       1.508   4.116  18.025  0.00  0.00    +0.000 A 
ATOM      5  C   UNL     1       2.709   4.753  17.698  0.00  0.00    +0.000 A 
ATOM      6  C   UNL     1       3.775   4.828  18.613  0.00  0.00    +0.000 A 
ATOM      7  C   UNL     1       3.580   4.226  19.871  0.00  0.00    +0.000 A 
ENDROOT
BRANCH   6   8
ATOM      8  C   UNL     1       5.045   5.509  18.271  0.00  0.00    +0.000 A 
ATOM      9  C   UNL     1       6.222   5.322  19.011  0.00  0.00    +0.000 A 
ATOM     10  C   UNL     1       7.402   5.978  18.659  0.00  0.00    +0.000 A 
ATOM     11  C   UNL     1       7.386   6.814  17.558  0.00  0.00    +0.000 A 
ATOM     12  N   UNL     1       6.288   7.036  16.811  0.00  0.00    +0.000 NA
ATOM     13  C   UNL     1       5.156   6.387  17.188  0.00  0.00    +0.000 A 
ENDBRANCH   6   8
TORSDOF 1
ENDMDL
MODEL 6
REMARK VINA RESULT:      -6.3      2.397      5.284
REMARK  Name = 
REMARK  2 active torsions:
REMARK  status: ('A' for Active; 'I' for Inactive)
REMARK    1  A    between atoms: C_1  and  C_2
REMARK    2  A    between atoms: C_6  and  C_7
REMARK                            x       y       z     vdW  Elec       q    Type
REMARK                         _______ _______ _______ _____ _____    ______ ____
ROOT
ATOM      1  C   UNL     1       1.107   2.848  18.497  0.00  0.00    +0.000 C 
ATOM      2  C   UNL     1       2.144   3.933  18.478  0.00  0.00    +0.000 A 
ATOM      3  C   UNL     1       2.111   4.975  19.405  0.00  0.00    +0.000 A 
ATOM      4  C   UNL     1       3.073   5.980  19.356  0.00  0.00    +0.000 A 
ATOM      5  C   UNL     1       4.069   5.955  18.375  0.00  0.00    +0.000 A 
ATOM      6  C   UNL     1       4.140   4.918  17.427  0.00  0.00    +0.000 A 
ATOM      7  C   UNL     1       3.159   3.910  17.506  0.00  0.00    +0.000 A 
ENDROOT
BRANCH   6   8
ATOM      8  C   UNL     1       5.200   4.884  16.393  0.00  0.00    +0.000 A 
ATOM      9  C   UNL     1       5.195   3.955  15.341  0.00  0.00    +0.000 A 
ATOM     10  C   UNL     1       6.208   3.952  14.382  0.00  0.00    +0.000 A 
ATOM     11  C   UNL     1       7.215   4.893  14.488  0.00  0.00    +0.000 A 
ATOM     12  N   UNL     1       7.276   5.808  15.474  0.00  0.00    +0.000 NA
ATOM     13  C   UNL     1       6.278   5.775  16.395  0.00  0.00    +0.000 A 
ENDBRANCH   6   8
TORSDOF 1
ENDMDL
MODEL 7
REMARK VINA RESULT:      -6.3      1.409      1.555
REMARK  Name = 
REMARK  2 active torsions:
REMARK  status: ('A' for Active; 'I' for Inactive)
REMARK    1  A    between atoms: C_1  and  C_2
REMARK    2  A    between atoms: C_6  and  C_7
REMARK                            x       y       z     vdW  Elec       q    Type
REMARK                         _______ _______ _______ _____ _____    ______ ____
ROOT
ATOM      1  C   UNL     1       6.155   3.989  14.113  0.00  0.00    +0.000 C 
ATOM      2  C   UNL     1       6.061   4.193  15.597  0.00  0.00    +0.000 A 
ATOM      3  C   UNL     1       7.168   4.607  16.337  0.00  0.00    +0.000 A 
ATOM      4  C   UNL     1       7.063   4.771  17.716  0.00  0.00    +0.000 A 
ATOM      5  C   UNL     1       5.850   4.515  18.364  0.00  0.00    +0.000 A 
ATOM      6  C   UNL     1       4.709   4.103  17.652  0.00  0.00    +0.000 A 
ATOM      7  C   UNL     1       4.845   3.954  16.258  0.00  0.00    +0.000 A 
ENDROOT
BRANCH   6   8
ATOM      8  C   UNL     1       3.422   3.840  18.335  0.00  0.00    +0.000 A 
ATOM      9  C   UNL     1       3.235   4.074  19.706  0.00  0.00    +0.000 A 
ATOM     10  C   UNL     1       2.008   3.817  20.317  0.00  0.00    +0.000 A 
ATOM     11  C   UNL     1       0.975   3.332  19.537  0.00  0.00    +0.000 A 
ATOM     12  N   UNL     1       1.092   3.086  18.219  0.00  0.00    +0.000 NA
ATOM     13  C   UNL     1       2.304   3.339  17.660  0.00  0.00    +0.000 A 
ENDBRANCH   6   8
TORSDOF 1
ENDMDL
MODEL 8
REMARK VINA RESULT:      -6.3      2.578      5.369
REMARK  Name = 
REMARK  2 active torsions:
REMARK  status: ('A' for Active; 'I' for Inactive)
REMARK    1  A    between atoms: C_1  and  C_2
REMARK    2  A    between atoms: C_6  and  C_7
REMARK                            x       y       z     vdW  Elec       q    Type
REMARK                         _______ _______ _______ _____ _____    ______ ____
ROOT
ATOM      1  C   UNL     1       1.661   3.086  21.519  0.00  0.00    +0.000 C 
ATOM      2  C   UNL     1       2.007   3.650  20.171  0.00  0.00    +0.000 A 
ATOM      3  C   UNL     1       1.099   3.595  19.114  0.00  0.00    +0.000 A 
ATOM      4  C   UNL     1       1.449   4.108  17.868  0.00  0.00    +0.000 A 
ATOM      5  C   UNL     1       2.712   4.672  17.669  0.00  0.00    +0.000 A 
ATOM      6  C   UNL     1       3.654   4.752  18.711  0.00  0.00    +0.000 A 
ATOM      7  C   UNL     1       3.268   4.233  19.962  0.00  0.00    +0.000 A 
ENDROOT
BRANCH   6   8
ATOM      8  C   UNL     1       4.990   5.357  18.505  0.00  0.00    +0.000 A 
ATOM      9  C   UNL     1       5.238   6.312  17.507  0.00  0.00    +0.000 A 
ATOM     10  C   UNL     1       6.509   6.863  17.342  0.00  0.00    +0.000 A 
ATOM     11  C   UNL     1       7.519   6.452  18.191  0.00  0.00    +0.000 A 
ATOM     12  N   UNL     1       7.343   5.539  19.165  0.00  0.00    +0.000 NA
ATOM     13  C   UNL     1       6.096   5.017  19.290  0.00  0.00    +0.000 A 
ENDBRANCH   6   8
TORSDOF 1
ENDMDL
MODEL 9
REMARK VINA RESULT:      -6.3      1.592      1.935
REMARK  Name = 
REMARK  2 active torsions:
REMARK  status: ('A' for Active; 'I' for Inactive)
REMARK    1  A    between atoms: C_1  and  C_2
REMARK    2  A    between atoms: C_6  and  C_7
REMARK                            x       y       z     vdW  Elec       q    Type
REMARK                         _______ _______ _______ _____ _____    ______ ____
ROOT
ATOM      1  C   UNL     1       6.075   3.965  13.779  0.00  0.00    +0.000 C 
ATOM      2  C   UNL     1       6.084   4.188  15.264  0.00  0.00    +0.000 A 
ATOM      3  C   UNL     1       7.233   4.636  15.916  0.00  0.00    +0.000 A 
ATOM      4  C   UNL     1       7.224   4.818  17.296  0.00  0.00    +0.000 A 
ATOM      5  C   UNL     1       6.068   4.545  18.034  0.00  0.00    +0.000 A 
ATOM      6  C   UNL     1       4.888   4.099  17.413  0.00  0.00    +0.000 A 
ATOM      7  C   UNL     1       4.925   3.932  16.014  0.00  0.00    +0.000 A 
ENDROOT
BRANCH   6   8
ATOM      8  C   UNL     1       3.659   3.817  18.191  0.00  0.00    +0.000 A 
ATOM      9  C   UNL     1       2.378   3.875  17.622  0.00  0.00    +0.000 A 
ATOM     10  C   UNL     1       1.242   3.602  18.385  0.00  0.00    +0.000 A 
ATOM     11  C   UNL     1       1.409   3.265  19.715  0.00  0.00    +0.000 A 
ATOM     12  N   UNL     1       2.611   3.195  20.318  0.00  0.00    +0.000 NA
ATOM     13  C   UNL     1       3.694   3.477  19.547  0.00  0.00    +0.000 A 
ENDBRANCH   6   8
TORSDOF 1
ENDMDL
