MODEL 1
REMARK VINA RESULT:      -8.4      0.000      0.000
REMARK  Name = 
REMARK  6 active torsions:
REMARK  status: ('A' for Active; 'I' for Inactive)
REMARK    1  A    between atoms: C_2  and  C_4
REMARK    2  A    between atoms: C_7  and  N_8
REMARK    3  A    between atoms: C_9  and  C_11
REMARK    4  A    between atoms: C_14  and  C_15
REMARK    5  A    between atoms: N_17  and  C_18
REMARK    6  A    between atoms: C_21  and  C_22
REMARK                            x       y       z     vdW  Elec       q    Type
REMARK                         _______ _______ _______ _____ _____    ______ ____
ROOT
ATOM      1  C   UNL     1       2.047   5.436  19.637  0.00  0.00    +0.000 A 
ATOM      2  C   UNL     1       2.258   6.078  18.401  0.00  0.00    +0.000 A 
ATOM      3  C   UNL     1       2.117   7.429  18.238  0.00  0.00    +0.000 A 
ATOM      4  C   UNL     1       1.755   8.255  19.296  0.00  0.00    +0.000 A 
ATOM      5  C   UNL     1       1.538   7.664  20.559  0.00  0.00    +0.000 A 
ATOM      6  C   UNL     1       1.683   6.272  20.723  0.00  0.00    +0.000 A 
ENDROOT
BRANCH   1   8
ATOM      7  N   UNL     1       3.172   3.128  19.337  0.00  0.00    +0.000 N 
ATOM      8  C   UNL     1       2.180   3.934  19.854  0.00  0.00    +0.000 C 
ATOM      9  O   UNL     1       1.329   3.394  20.546  0.00  0.00    +0.000 OA
ATOM     10  H   UNL     1       3.152   2.121  19.549  0.00  0.00    +0.000 HD
BRANCH   7  14
ATOM     11  C   UNL     1       6.152   4.845  16.865  0.00  0.00    +0.000 A 
ATOM     12  C   UNL     1       6.254   4.908  18.274  0.00  0.00    +0.000 A 
ATOM     13  C   UNL     1       5.302   4.289  19.093  0.00  0.00    +0.000 A 
ATOM     14  C   UNL     1       4.229   3.594  18.521  0.00  0.00    +0.000 A 
ATOM     15  C   UNL     1       4.135   3.486  17.127  0.00  0.00    +0.000 A 
ATOM     16  C   UNL     1       5.084   4.108  16.307  0.00  0.00    +0.000 A 
BRANCH  11  18
ATOM     17  N   UNL     1       7.642   6.689  16.442  0.00  0.00    +0.000 NA
ATOM     18  C   UNL     1       7.143   5.583  16.011  0.00  0.00    +0.000 C 
ATOM     19  N   UNL     1       7.526   5.118  14.718  0.00  0.00    +0.000 N 
ATOM     20  H   UNL     1       8.315   7.237  15.883  0.00  0.00    +0.000 HD
ATOM     21  H   UNL     1       8.198   5.656  14.151  0.00  0.00    +0.000 HD
ATOM     22  H   UNL     1       7.142   4.264  14.297  0.00  0.00    +0.000 HD
ENDBRANCH  11  18
ENDBRANCH   7  14
ENDBRANCH   1   8
BRANCH   4  23
ATOM     23  C   UNL     1       1.606   9.700  18.979  0.00  0.00    +0.000 C 
ATOM     24  O   UNL     1       2.031  10.076  17.896  0.00  0.00    +0.000 OA
ATOM     25  N   UNL     1       1.058  10.599  19.843  0.00  0.00    +0.000 N 
ATOM     26  H   UNL     1       0.814  10.290  20.793  0.00  0.00    +0.000 HD
BRANCH  25  27
ATOM     27  C   UNL     1       0.836  11.982  19.525  0.00  0.00    +0.000 A 
ATOM     28  C   UNL     1      -0.276  12.437  18.785  0.00  0.00    +0.000 A 
ATOM     29  C   UNL     1      -0.447  13.784  18.499  0.00  0.00    +0.000 A 
ATOM     30  C   UNL     1       0.482  14.746  18.937  0.00  0.00    +0.000 A 
ATOM     31  C   UNL     1       1.588  14.287  19.693  0.00  0.00    +0.000 A 
ATOM     32  C   UNL     1       1.755  12.930  19.983  0.00  0.00    +0.000 A 
BRANCH  30  33
ATOM     33  C   UNL     1       0.290  16.212  18.624  0.00  0.00    +0.000 C 
ATOM     34  N   UNL     1       1.289  17.005  18.426  0.00  0.00    +0.000 NA
ATOM     35  N   UNL     1      -1.009  16.783  18.532  0.00  0.00    +0.000 N 
ATOM     36  H   UNL     1       2.279  16.736  18.458  0.00  0.00    +0.000 HD
ATOM     37  H   UNL     1      -1.871  16.247  18.671  0.00  0.00    +0.000 HD
ATOM     38  H   UNL     1      -1.109  17.784  18.312  0.00  0.00    +0.000 HD
ENDBRANCH  30  33
ENDBRANCH  25  27
ENDBRANCH   4  23
TORSDOF 6
ENDMDL
MODEL 2
REMARK VINA RESULT:      -8.4      2.546      2.969
REMARK  Name = 
REMARK  6 active torsions:
REMARK  status: ('A' for Active; 'I' for Inactive)
REMARK    1  A    between atoms: C_2  and  C_4
REMARK    2  A    between atoms: C_7  and  N_8
REMARK    3  A    between atoms: C_9  and  C_11
REMARK    4  A    between atoms: C_14  and  C_15
REMARK    5  A    between atoms: N_17  and  C_18
REMARK    6  A    between atoms: C_21  and  C_22
REMARK                            x       y       z     vdW  Elec       q    Type
REMARK                         _______ _______ _______ _____ _____    ______ ____
ROOT
ATOM      1  C   UNL     1       2.109   5.110  18.858  0.00  0.00    +0.000 A 
ATOM      2  C   UNL     1       2.283   6.424  18.383  0.00  0.00    +0.000 A 
ATOM      3  C   UNL     1       1.974   7.527  19.130  0.00  0.00    +0.000 A 
ATOM      4  C   UNL     1       1.464   7.411  20.419  0.00  0.00    +0.000 A 
ATOM      5  C   UNL     1       1.276   6.117  20.948  0.00  0.00    +0.000 A 
ATOM      6  C   UNL     1       1.595   4.983  20.174  0.00  0.00    +0.000 A 
ENDROOT
BRANCH   1   8
ATOM      7  N   UNL     1       3.642   3.564  17.465  0.00  0.00    +0.000 N 
ATOM      8  C   UNL     1       2.429   3.858  18.051  0.00  0.00    +0.000 C 
ATOM      9  O   UNL     1       1.529   3.045  17.906  0.00  0.00    +0.000 OA
ATOM     10  H   UNL     1       3.735   2.687  16.935  0.00  0.00    +0.000 HD
BRANCH   7  14
ATOM     11  C   UNL     1       6.835   6.323  17.823  0.00  0.00    +0.000 A 
ATOM     12  C   UNL     1       6.554   5.401  18.858  0.00  0.00    +0.000 A 
ATOM     13  C   UNL     1       5.538   4.448  18.717  0.00  0.00    +0.000 A 
ATOM     14  C   UNL     1       4.782   4.397  17.538  0.00  0.00    +0.000 A 
ATOM     15  C   UNL     1       5.075   5.276  16.487  0.00  0.00    +0.000 A 
ATOM     16  C   UNL     1       6.088   6.231  16.628  0.00  0.00    +0.000 A 
BRANCH  11  18
ATOM     17  N   UNL     1       8.646   7.315  19.063  0.00  0.00    +0.000 NA
ATOM     18  C   UNL     1       7.878   7.384  18.031  0.00  0.00    +0.000 C 
ATOM     19  N   UNL     1       8.025   8.489  17.141  0.00  0.00    +0.000 N 
ATOM     20  H   UNL     1       9.366   8.030  19.253  0.00  0.00    +0.000 HD
ATOM     21  H   UNL     1       8.742   9.208  17.321  0.00  0.00    +0.000 HD
ATOM     22  H   UNL     1       7.426   8.626  16.319  0.00  0.00    +0.000 HD
ENDBRANCH  11  18
ENDBRANCH   7  14
ENDBRANCH   1   8
BRANCH   4  23
ATOM     23  C   UNL     1       1.139   8.686  21.113  0.00  0.00    +0.000 C 
ATOM     24  O   UNL     1       1.688   8.886  22.187  0.00  0.00    +0.000 OA
ATOM     25  N   UNL     1       0.253   9.596  20.623  0.00  0.00    +0.000 N 
ATOM     26  H   UNL     1      -0.286   9.360  19.780  0.00  0.00    +0.000 HD
BRANCH  25  27
ATOM     27  C   UNL     1      -0.015  10.865  21.239  0.00  0.00    +0.000 A 
ATOM     28  C   UNL     1       0.600  12.068  20.832  0.00  0.00    +0.000 A 
ATOM     29  C   UNL     1       0.311  13.272  21.461  0.00  0.00    +0.000 A 
ATOM     30  C   UNL     1      -0.605  13.337  22.527  0.00  0.00    +0.000 A 
ATOM     31  C   UNL     1      -1.230  12.129  22.922  0.00  0.00    +0.000 A 
ATOM     32  C   UNL     1      -0.941  10.920  22.284  0.00  0.00    +0.000 A 
BRANCH  30  33
ATOM     33  C   UNL     1      -0.915  14.649  23.207  0.00  0.00    +0.000 C 
ATOM     34  N   UNL     1      -0.996  14.751  24.491  0.00  0.00    +0.000 NA
ATOM     35  N   UNL     1      -1.132  15.836  22.455  0.00  0.00    +0.000 N 
ATOM     36  H   UNL     1      -0.863  13.985  25.159  0.00  0.00    +0.000 HD
ATOM     37  H   UNL     1      -1.093  15.870  21.431  0.00  0.00    +0.000 HD
ATOM     38  H   UNL     1      -1.338  16.718  22.946  0.00  0.00    +0.000 HD
ENDBRANCH  30  33
ENDBRANCH  25  27
ENDBRANCH   4  23
TORSDOF 6
ENDMDL
MODEL 3
REMARK VINA RESULT:      -8.3      0.272      1.081
REMARK  Name = 
REMARK  6 active torsions:
REMARK  status: ('A' for Active; 'I' for Inactive)
REMARK    1  A    between atoms: C_2  and  C_4
REMARK    2  A    between atoms: C_7  and  N_8
REMARK    3  A    between atoms: C_9  and  C_11
REMARK    4  A    between atoms: C_14  and  C_15
REMARK    5  A    between atoms: N_17  and  C_18
REMARK    6  A    between atoms: C_21  and  C_22
REMARK                            x       y       z     vdW  Elec       q    Type
REMARK                         _______ _______ _______ _____ _____    ______ ____
ROOT
ATOM      1  C   UNL     1       2.071   5.530  19.793  0.00  0.00    +0.000 A 
ATOM      2  C   UNL     1       1.751   6.552  20.709  0.00  0.00    +0.000 A 
ATOM      3  C   UNL     1       1.616   7.861  20.336  0.00  0.00    +0.000 A 
ATOM      4  C   UNL     1       1.789   8.262  19.016  0.00  0.00    +0.000 A 
ATOM      5  C   UNL     1       2.104   7.278  18.056  0.00  0.00    +0.000 A 
ATOM      6  C   UNL     1       2.243   5.930  18.443  0.00  0.00    +0.000 A 
ENDROOT
BRANCH   1   8
ATOM      7  N   UNL     1       3.239   3.225  19.719  0.00  0.00    +0.000 N 
ATOM      8  C   UNL     1       2.243   4.065  20.172  0.00  0.00    +0.000 C 
ATOM      9  O   UNL     1       1.423   3.590  20.944  0.00  0.00    +0.000 OA
ATOM     10  H   UNL     1       3.247   2.248  20.043  0.00  0.00    +0.000 HD
BRANCH   7  14
ATOM     11  C   UNL     1       6.114   4.712  16.988  0.00  0.00    +0.000 A 
ATOM     12  C   UNL     1       6.255   4.928  18.379  0.00  0.00    +0.000 A 
ATOM     13  C   UNL     1       5.339   4.386  19.288  0.00  0.00    +0.000 A 
ATOM     14  C   UNL     1       4.263   3.617  18.826  0.00  0.00    +0.000 A 
ATOM     15  C   UNL     1       4.132   3.359  17.455  0.00  0.00    +0.000 A 
ATOM     16  C   UNL     1       5.045   3.903  16.546  0.00  0.00    +0.000 A 
BRANCH  11  18
ATOM     17  N   UNL     1       7.572   6.514  16.334  0.00  0.00    +0.000 NA
ATOM     18  C   UNL     1       7.067   5.369  16.030  0.00  0.00    +0.000 C 
ATOM     19  N   UNL     1       7.406   4.783  14.775  0.00  0.00    +0.000 N 
ATOM     20  H   UNL     1       8.218   7.009  15.699  0.00  0.00    +0.000 HD
ATOM     21  H   UNL     1       8.052   5.267  14.134  0.00  0.00    +0.000 HD
ATOM     22  H   UNL     1       7.015   3.890  14.453  0.00  0.00    +0.000 HD
ENDBRANCH  11  18
ENDBRANCH   7  14
ENDBRANCH   1   8
BRANCH   4  23
ATOM     23  C   UNL     1       1.645   9.718  18.749  0.00  0.00    +0.000 C 
ATOM     24  O   UNL     1       2.049  10.125  17.669  0.00  0.00    +0.000 OA
ATOM     25  N   UNL     1       1.123  10.593  19.653  0.00  0.00    +0.000 N 
ATOM     26  H   UNL     1       0.898  10.256  20.598  0.00  0.00    +0.000 HD
BRANCH  25  27
ATOM     27  C   UNL     1       0.906  11.987  19.385  0.00  0.00    +0.000 A 
ATOM     28  C   UNL     1      -0.263  12.484  18.770  0.00  0.00    +0.000 A 
ATOM     29  C   UNL     1      -0.427  13.841  18.528  0.00  0.00    +0.000 A 
ATOM     30  C   UNL     1       0.566  14.771  18.886  0.00  0.00    +0.000 A 
ATOM     31  C   UNL     1       1.731  14.270  19.516  0.00  0.00    +0.000 A 
ATOM     32  C   UNL     1       1.891  12.903  19.763  0.00  0.00    +0.000 A 
BRANCH  30  33
ATOM     33  C   UNL     1       0.382  16.247  18.620  0.00  0.00    +0.000 C 
ATOM     34  N   UNL     1      -0.738  16.731  18.198  0.00  0.00    +0.000 NA
ATOM     35  N   UNL     1       1.442  17.171  18.827  0.00  0.00    +0.000 N 
ATOM     36  H   UNL     1      -1.587  16.189  18.007  0.00  0.00    +0.000 HD
ATOM     37  H   UNL     1       2.372  16.897  19.159  0.00  0.00    +0.000 HD
ATOM     38  H   UNL     1       1.286  18.172  18.642  0.00  0.00    +0.000 HD
ENDBRANCH  30  33
ENDBRANCH  25  27
ENDBRANCH   4  23
TORSDOF 6
ENDMDL
MODEL 4
REMARK VINA RESULT:      -8.3      2.610      2.999
REMARK  Name = 
REMARK  6 active torsions:
REMARK  status: ('A' for Active; 'I' for Inactive)
REMARK    1  A    between atoms: C_2  and  C_4
REMARK    2  A    between atoms: C_7  and  N_8
REMARK    3  A    between atoms: C_9  and  C_11
REMARK    4  A    between atoms: C_14  and  C_15
REMARK    5  A    between atoms: N_17  and  C_18
REMARK    6  A    between atoms: C_21  and  C_22
REMARK                            x       y       z     vdW  Elec       q    Type
REMARK                         _______ _______ _______ _____ _____    ______ ____
ROOT
ATOM      1  C   UNL     1       2.096   5.025  18.858  0.00  0.00    +0.000 A 
ATOM      2  C   UNL     1       2.227   6.345  18.384  0.00  0.00    +0.000 A 
ATOM      3  C   UNL     1       1.906   7.437  19.143  0.00  0.00    +0.000 A 
ATOM      4  C   UNL     1       1.429   7.303  20.443  0.00  0.00    +0.000 A 
ATOM      5  C   UNL     1       1.285   6.003  20.970  0.00  0.00    +0.000 A 
ATOM      6  C   UNL     1       1.616   4.880  20.185  0.00  0.00    +0.000 A 
ENDROOT
BRANCH   1   8
ATOM      7  N   UNL     1       3.638   3.521  17.429  0.00  0.00    +0.000 N 
ATOM      8  C   UNL     1       2.430   3.785  18.039  0.00  0.00    +0.000 C 
ATOM      9  O   UNL     1       1.546   2.951  17.907  0.00  0.00    +0.000 OA
ATOM     10  H   UNL     1       3.741   2.649  16.893  0.00  0.00    +0.000 HD
BRANCH   7  14
ATOM     11  C   UNL     1       6.772   6.353  17.735  0.00  0.00    +0.000 A 
ATOM     12  C   UNL     1       6.518   5.436  18.782  0.00  0.00    +0.000 A 
ATOM     13  C   UNL     1       5.523   4.460  18.658  0.00  0.00    +0.000 A 
ATOM     14  C   UNL     1       4.760   4.380  17.485  0.00  0.00    +0.000 A 
ATOM     15  C   UNL     1       5.027   5.253  16.423  0.00  0.00    +0.000 A 
ATOM     16  C   UNL     1       6.019   6.231  16.547  0.00  0.00    +0.000 A 
BRANCH  11  18
ATOM     17  N   UNL     1       7.934   8.334  17.009  0.00  0.00    +0.000 NA
ATOM     18  C   UNL     1       7.793   7.439  17.925  0.00  0.00    +0.000 C 
ATOM     19  N   UNL     1       8.639   7.494  19.071  0.00  0.00    +0.000 N 
ATOM     20  H   UNL     1       8.632   9.089  17.091  0.00  0.00    +0.000 HD
ATOM     21  H   UNL     1       9.339   8.246  19.164  0.00  0.00    +0.000 HD
ATOM     22  H   UNL     1       8.605   6.796  19.823  0.00  0.00    +0.000 HD
ENDBRANCH  11  18
ENDBRANCH   7  14
ENDBRANCH   1   8
BRANCH   4  23
ATOM     23  C   UNL     1       1.088   8.567  21.149  0.00  0.00    +0.000 C 
ATOM     24  O   UNL     1       1.785   8.872  22.105  0.00  0.00    +0.000 OA
ATOM     25  N   UNL     1       0.035   9.356  20.797  0.00  0.00    +0.000 N 
ATOM     26  H   UNL     1      -0.611   9.027  20.068  0.00  0.00    +0.000 HD
BRANCH  25  27
ATOM     27  C   UNL     1      -0.263  10.616  21.417  0.00  0.00    +0.000 A 
ATOM     28  C   UNL     1      -1.096  10.744  22.549  0.00  0.00    +0.000 A 
ATOM     29  C   UNL     1      -1.360  11.985  23.112  0.00  0.00    +0.000 A 
ATOM     30  C   UNL     1      -0.805  13.162  22.576  0.00  0.00    +0.000 A 
ATOM     31  C   UNL     1       0.042  13.027  21.449  0.00  0.00    +0.000 A 
ATOM     32  C   UNL     1       0.309  11.776  20.887  0.00  0.00    +0.000 A 
BRANCH  30  33
ATOM     33  C   UNL     1      -1.094  14.510  23.193  0.00  0.00    +0.000 C 
ATOM     34  N   UNL     1      -0.219  15.138  23.904  0.00  0.00    +0.000 NA
ATOM     35  N   UNL     1      -2.352  15.148  23.015  0.00  0.00    +0.000 N 
ATOM     36  H   UNL     1       0.728  14.804  24.116  0.00  0.00    +0.000 HD
ATOM     37  H   UNL     1      -3.119  14.740  22.471  0.00  0.00    +0.000 HD
ATOM     38  H   UNL     1      -2.519  16.070  23.444  0.00  0.00    +0.000 HD
ENDBRANCH  30  33
ENDBRANCH  25  27
ENDBRANCH   4  23
TORSDOF 6
ENDMDL
MODEL 5
REMARK VINA RESULT:      -8.2      2.498      2.975
REMARK  Name = 
REMARK  6 active torsions:
REMARK  status: ('A' for Active; 'I' for Inactive)
REMARK    1  A    between atoms: C_2  and  C_4
REMARK    2  A    between atoms: C_7  and  N_8
REMARK    3  A    between atoms: C_9  and  C_11
REMARK    4  A    between atoms: C_14  and  C_15
REMARK    5  A    between atoms: N_17  and  C_18
REMARK    6  A    between atoms: C_21  and  C_22
REMARK                            x       y       z     vdW  Elec       q    Type
REMARK                         _______ _______ _______ _____ _____    ______ ____
ROOT
ATOM      1  C   UNL     1       2.103   5.002  18.945  0.00  0.00    +0.000 A 
ATOM      2  C   UNL     1       1.600   5.089  20.258  0.00  0.00    +0.000 A 
ATOM      3  C   UNL     1       1.294   6.282  20.854  0.00  0.00    +0.000 A 
ATOM      4  C   UNL     1       1.464   7.491  20.189  0.00  0.00    +0.000 A 
ATOM      5  C   UNL     1       1.959   7.461  18.868  0.00  0.00    +0.000 A 
ATOM      6  C   UNL     1       2.273   6.231  18.257  0.00  0.00    +0.000 A 
ENDROOT
BRANCH   1   8
ATOM      7  N   UNL     1       3.701   3.376  17.728  0.00  0.00    +0.000 N 
ATOM      8  C   UNL     1       2.467   3.695  18.254  0.00  0.00    +0.000 C 
ATOM      9  O   UNL     1       1.585   2.855  18.152  0.00  0.00    +0.000 OA
ATOM     10  H   UNL     1       3.824   2.460  17.276  0.00  0.00    +0.000 HD
BRANCH   7  14
ATOM     11  C   UNL     1       6.834   6.219  17.923  0.00  0.00    +0.000 A 
ATOM     12  C   UNL     1       6.492   5.439  19.051  0.00  0.00    +0.000 A 
ATOM     13  C   UNL     1       5.498   4.456  18.973  0.00  0.00    +0.000 A 
ATOM     14  C   UNL     1       4.825   4.233  17.764  0.00  0.00    +0.000 A 
ATOM     15  C   UNL     1       5.180   4.969  16.626  0.00  0.00    +0.000 A 
ATOM     16  C   UNL     1       6.171   5.953  16.704  0.00  0.00    +0.000 A 
BRANCH  11  18
ATOM     17  N   UNL     1       8.644   7.320  19.068  0.00  0.00    +0.000 NA
ATOM     18  C   UNL     1       7.849   7.319  18.054  0.00  0.00    +0.000 C 
ATOM     19  N   UNL     1       7.941   8.384  17.111  0.00  0.00    +0.000 N 
ATOM     20  H   UNL     1       9.346   8.064  19.207  0.00  0.00    +0.000 HD
ATOM     21  H   UNL     1       8.640   9.131  17.239  0.00  0.00    +0.000 HD
ATOM     22  H   UNL     1       7.318   8.465  16.299  0.00  0.00    +0.000 HD
ENDBRANCH  11  18
ENDBRANCH   7  14
ENDBRANCH   1   8
BRANCH   4  23
ATOM     23  C   UNL     1       1.124   8.717  20.959  0.00  0.00    +0.000 C 
ATOM     24  O   UNL     1       1.664   8.854  22.047  0.00  0.00    +0.000 OA
ATOM     25  N   UNL     1       0.234   9.649  20.520  0.00  0.00    +0.000 N 
ATOM     26  H   UNL     1      -0.298   9.462  19.660  0.00  0.00    +0.000 HD
BRANCH  25  27
ATOM     27  C   UNL     1      -0.049  10.875  21.212  0.00  0.00    +0.000 A 
ATOM     28  C   UNL     1      -0.946  10.961  22.298  0.00  0.00    +0.000 A 
ATOM     29  C   UNL     1      -1.191  12.170  22.934  0.00  0.00    +0.000 A 
ATOM     30  C   UNL     1      -0.553  13.354  22.521  0.00  0.00    +0.000 A 
ATOM     31  C   UNL     1       0.358  13.260  21.441  0.00  0.00    +0.000 A 
ATOM     32  C   UNL     1       0.606  12.040  20.805  0.00  0.00    +0.000 A 
BRANCH  30  33
ATOM     33  C   UNL     1      -0.822  14.668  23.218  0.00  0.00    +0.000 C 
ATOM     34  N   UNL     1      -1.076  14.731  24.482  0.00  0.00    +0.000 NA
ATOM     35  N   UNL     1      -0.806  15.897  22.505  0.00  0.00    +0.000 N 
ATOM     36  H   UNL     1      -1.120  13.931  25.122  0.00  0.00    +0.000 HD
ATOM     37  H   UNL     1      -0.616  15.964  21.500  0.00  0.00    +0.000 HD
ATOM     38  H   UNL     1      -0.989  16.778  23.008  0.00  0.00    +0.000 HD
ENDBRANCH  30  33
ENDBRANCH  25  27
ENDBRANCH   4  23
TORSDOF 6
ENDMDL
MODEL 6
REMARK VINA RESULT:      -8.2      0.282      1.272
REMARK  Name = 
REMARK  6 active torsions:
REMARK  status: ('A' for Active; 'I' for Inactive)
REMARK    1  A    between atoms: C_2  and  C_4
REMARK    2  A    between atoms: C_7  and  N_8
REMARK    3  A    between atoms: C_9  and  C_11
REMARK    4  A    between atoms: C_14  and  C_15
REMARK    5  A    between atoms: N_17  and  C_18
REMARK    6  A    between atoms: C_21  and  C_22
REMARK                            x       y       z     vdW  Elec       q    Type
REMARK                         _______ _______ _______ _____ _____    ______ ____
ROOT
ATOM      1  C   UNL     1       2.029   5.563  19.674  0.00  0.00    +0.000 A 
ATOM      2  C   UNL     1       1.735   6.537  20.648  0.00  0.00    +0.000 A 
ATOM      3  C   UNL     1       1.628   7.868  20.352  0.00  0.00    +0.000 A 
ATOM      4  C   UNL     1       1.803   8.340  19.056  0.00  0.00    +0.000 A 
ATOM      5  C   UNL     1       2.093   7.406  18.040  0.00  0.00    +0.000 A 
ATOM      6  C   UNL     1       2.203   6.036  18.348  0.00  0.00    +0.000 A 
ENDROOT
BRANCH   1   8
ATOM      7  N   UNL     1       3.168   3.250  19.495  0.00  0.00    +0.000 N 
ATOM      8  C   UNL     1       2.170   4.075  19.968  0.00  0.00    +0.000 C 
ATOM      9  O   UNL     1       1.320   3.567  20.684  0.00  0.00    +0.000 OA
ATOM     10  H   UNL     1       3.153   2.255  19.758  0.00  0.00    +0.000 HD
BRANCH   7  14
ATOM     11  C   UNL     1       6.146   4.856  16.947  0.00  0.00    +0.000 A 
ATOM     12  C   UNL     1       6.244   4.989  18.352  0.00  0.00    +0.000 A 
ATOM     13  C   UNL     1       5.294   4.407  19.198  0.00  0.00    +0.000 A 
ATOM     14  C   UNL     1       4.225   3.679  18.658  0.00  0.00    +0.000 A 
ATOM     15  C   UNL     1       4.134   3.504  17.271  0.00  0.00    +0.000 A 
ATOM     16  C   UNL     1       5.082   4.088  16.424  0.00  0.00    +0.000 A 
BRANCH  11  18
ATOM     17  N   UNL     1       7.681   6.649  16.467  0.00  0.00    +0.000 NA
ATOM     18  C   UNL     1       7.135   5.555  16.059  0.00  0.00    +0.000 C 
ATOM     19  N   UNL     1       7.467   5.068  14.761  0.00  0.00    +0.000 N 
ATOM     20  H   UNL     1       8.354   7.170  15.884  0.00  0.00    +0.000 HD
ATOM     21  H   UNL     1       8.140   5.580  14.171  0.00  0.00    +0.000 HD
ATOM     22  H   UNL     1       7.046   4.223  14.358  0.00  0.00    +0.000 HD
ENDBRANCH  11  18
ENDBRANCH   7  14
ENDBRANCH   1   8
BRANCH   4  23
ATOM     23  C   UNL     1       1.691   9.812  18.873  0.00  0.00    +0.000 C 
ATOM     24  O   UNL     1       2.178  10.282  17.855  0.00  0.00    +0.000 OA
ATOM     25  N   UNL     1       1.110  10.634  19.790  0.00  0.00    +0.000 N 
ATOM     26  H   UNL     1       0.811  10.240  20.692  0.00  0.00    +0.000 HD
BRANCH  25  27
ATOM     27  C   UNL     1       0.923  12.045  19.596  0.00  0.00    +0.000 A 
ATOM     28  C   UNL     1       1.844  13.015  20.045  0.00  0.00    +0.000 A 
ATOM     29  C   UNL     1       1.619  14.370  19.839  0.00  0.00    +0.000 A 
ATOM     30  C   UNL     1       0.465  14.824  19.173  0.00  0.00    +0.000 A 
ATOM     31  C   UNL     1      -0.448  13.846  18.712  0.00  0.00    +0.000 A 
ATOM     32  C   UNL     1      -0.217  12.483  18.917  0.00  0.00    +0.000 A 
BRANCH  30  33
ATOM     33  C   UNL     1       0.226  16.299  18.951  0.00  0.00    +0.000 C 
ATOM     34  N   UNL     1       0.983  17.202  19.478  0.00  0.00    +0.000 NA
ATOM     35  N   UNL     1      -0.850  16.758  18.143  0.00  0.00    +0.000 N 
ATOM     36  H   UNL     1       1.794  17.022  20.080  0.00  0.00    +0.000 HD
ATOM     37  H   UNL     1      -1.513  16.130  17.677  0.00  0.00    +0.000 HD
ATOM     38  H   UNL     1      -0.986  17.770  18.005  0.00  0.00    +0.000 HD
ENDBRANCH  30  33
ENDBRANCH  25  27
ENDBRANCH   4  23
TORSDOF 6
ENDMDL
MODEL 7
REMARK VINA RESULT:      -8.1      3.204      4.187
REMARK  Name = 
REMARK  6 active torsions:
REMARK  status: ('A' for Active; 'I' for Inactive)
REMARK    1  A    between atoms: C_2  and  C_4
REMARK    2  A    between atoms: C_7  and  N_8
REMARK    3  A    between atoms: C_9  and  C_11
REMARK    4  A    between atoms: C_14  and  C_15
REMARK    5  A    between atoms: N_17  and  C_18
REMARK    6  A    between atoms: C_21  and  C_22
REMARK                            x       y       z     vdW  Elec       q    Type
REMARK                         _______ _______ _______ _____ _____    ______ ____
ROOT
ATOM      1  C   UNL     1       4.057   5.342  18.297  0.00  0.00    +0.000 A 
ATOM      2  C   UNL     1       3.419   5.358  19.553  0.00  0.00    +0.000 A 
ATOM      3  C   UNL     1       2.599   6.378  19.951  0.00  0.00    +0.000 A 
ATOM      4  C   UNL     1       2.345   7.470  19.127  0.00  0.00    +0.000 A 
ATOM      5  C   UNL     1       2.953   7.501  17.855  0.00  0.00    +0.000 A 
ATOM      6  C   UNL     1       3.797   6.448  17.448  0.00  0.00    +0.000 A 
ENDROOT
BRANCH   1   8
ATOM      7  N   UNL     1       6.339   4.357  17.588  0.00  0.00    +0.000 N 
ATOM      8  C   UNL     1       4.986   4.232  17.824  0.00  0.00    +0.000 C 
ATOM      9  O   UNL     1       4.487   3.133  17.633  0.00  0.00    +0.000 OA
ATOM     10  H   UNL     1       6.862   3.533  17.262  0.00  0.00    +0.000 HD
BRANCH   7  14
ATOM     11  C   UNL     1       8.215   8.095  18.259  0.00  0.00    +0.000 A 
ATOM     12  C   UNL     1       8.313   7.052  19.210  0.00  0.00    +0.000 A 
ATOM     13  C   UNL     1       7.746   5.797  18.964  0.00  0.00    +0.000 A 
ATOM     14  C   UNL     1       7.068   5.556  17.761  0.00  0.00    +0.000 A 
ATOM     15  C   UNL     1       6.996   6.565  16.791  0.00  0.00    +0.000 A 
ATOM     16  C   UNL     1       7.560   7.821  17.037  0.00  0.00    +0.000 A 
BRANCH  11  18
ATOM     17  N   UNL     1       9.392   9.631  19.692  0.00  0.00    +0.000 NA
ATOM     18  C   UNL     1       8.765   9.454  18.581  0.00  0.00    +0.000 C 
ATOM     19  N   UNL     1       8.588  10.571  17.711  0.00  0.00    +0.000 N 
ATOM     20  H   UNL     1       9.773  10.551  19.961  0.00  0.00    +0.000 HD
ATOM     21  H   UNL     1       8.966  11.495  17.969  0.00  0.00    +0.000 HD
ATOM     22  H   UNL     1       8.070  10.512  16.827  0.00  0.00    +0.000 HD
ENDBRANCH  11  18
ENDBRANCH   7  14
ENDBRANCH   1   8
BRANCH   4  23
ATOM     23  C   UNL     1       1.461   8.525  19.691  0.00  0.00    +0.000 C 
ATOM     24  O   UNL     1       0.722   9.104  18.908  0.00  0.00    +0.000 OA
ATOM     25  N   UNL     1       1.471   8.880  21.006  0.00  0.00    +0.000 N 
ATOM     26  H   UNL     1       2.179   8.468  21.627  0.00  0.00    +0.000 HD
BRANCH  25  27
ATOM     27  C   UNL     1       0.573   9.841  21.582  0.00  0.00    +0.000 A 
ATOM     28  C   UNL     1       0.516  11.190  21.172  0.00  0.00    +0.000 A 
ATOM     29  C   UNL     1      -0.367  12.084  21.762  0.00  0.00    +0.000 A 
ATOM     30  C   UNL     1      -1.238  11.679  22.790  0.00  0.00    +0.000 A 
ATOM     31  C   UNL     1      -1.188  10.320  23.188  0.00  0.00    +0.000 A 
ATOM     32  C   UNL     1      -0.301   9.421  22.588  0.00  0.00    +0.000 A 
BRANCH  30  33
ATOM     33  C   UNL     1      -2.197  12.656  23.428  0.00  0.00    +0.000 C 
ATOM     34  N   UNL     1      -1.861  13.875  23.685  0.00  0.00    +0.000 NA
ATOM     35  N   UNL     1      -3.521  12.270  23.774  0.00  0.00    +0.000 N 
ATOM     36  H   UNL     1      -0.945  14.294  23.491  0.00  0.00    +0.000 HD
ATOM     37  H   UNL     1      -3.893  11.328  23.616  0.00  0.00    +0.000 HD
ATOM     38  H   UNL     1      -4.155  12.960  24.204  0.00  0.00    +0.000 HD
ENDBRANCH  30  33
ENDBRANCH  25  27
ENDBRANCH   4  23
TORSDOF 6
ENDMDL
MODEL 8
REMARK VINA RESULT:      -8.0      0.889      1.598
REMARK  Name = 
REMARK  6 active torsions:
REMARK  status: ('A' for Active; 'I' for Inactive)
REMARK    1  A    between atoms: C_2  and  C_4
REMARK    2  A    between atoms: C_7  and  N_8
REMARK    3  A    between atoms: C_9  and  C_11
REMARK    4  A    between atoms: C_14  and  C_15
REMARK    5  A    between atoms: N_17  and  C_18
REMARK    6  A    between atoms: C_21  and  C_22
REMARK                            x       y       z     vdW  Elec       q    Type
REMARK                         _______ _______ _______ _____ _____    ______ ____
ROOT
ATOM      1  C   UNL     1       2.026   4.897  19.751  0.00  0.00    +0.000 A 
ATOM      2  C   UNL     1       1.618   5.664  20.860  0.00  0.00    +0.000 A 
ATOM      3  C   UNL     1       1.418   7.015  20.789  0.00  0.00    +0.000 A 
ATOM      4  C   UNL     1       1.607   7.716  19.602  0.00  0.00    +0.000 A 
ATOM      5  C   UNL     1       2.010   6.995  18.459  0.00  0.00    +0.000 A 
ATOM      6  C   UNL     1       2.215   5.603  18.536  0.00  0.00    +0.000 A 
ENDROOT
BRANCH   1   8
ATOM      7  N   UNL     1       3.326   2.731  19.204  0.00  0.00    +0.000 N 
ATOM      8  C   UNL     1       2.272   3.394  19.795  0.00  0.00    +0.000 C 
ATOM      9  O   UNL     1       1.460   2.715  20.406  0.00  0.00    +0.000 OA
ATOM     10  H   UNL     1       3.382   1.708  19.297  0.00  0.00    +0.000 HD
BRANCH   7  14
ATOM     11  C   UNL     1       6.179   4.940  16.985  0.00  0.00    +0.000 A 
ATOM     12  C   UNL     1       6.249   4.875  18.396  0.00  0.00    +0.000 A 
ATOM     13  C   UNL     1       5.345   4.097  19.128  0.00  0.00    +0.000 A 
ATOM     14  C   UNL     1       4.350   3.367  18.463  0.00  0.00    +0.000 A 
ATOM     15  C   UNL     1       4.291   3.388  17.064  0.00  0.00    +0.000 A 
ATOM     16  C   UNL     1       5.193   4.168  16.332  0.00  0.00    +0.000 A 
BRANCH  11  18
ATOM     17  N   UNL     1       7.511   5.495  15.057  0.00  0.00    +0.000 NA
ATOM     18  C   UNL     1       7.112   5.844  16.231  0.00  0.00    +0.000 C 
ATOM     19  N   UNL     1       7.601   7.063  16.785  0.00  0.00    +0.000 N 
ATOM     20  H   UNL     1       8.164   6.077  14.510  0.00  0.00    +0.000 HD
ATOM     21  H   UNL     1       8.253   7.654  16.247  0.00  0.00    +0.000 HD
ATOM     22  H   UNL     1       7.353   7.387  17.728  0.00  0.00    +0.000 HD
ENDBRANCH  11  18
ENDBRANCH   7  14
ENDBRANCH   1   8
BRANCH   4  23
ATOM     23  C   UNL     1       1.386   9.186  19.666  0.00  0.00    +0.000 C 
ATOM     24  O   UNL     1       1.321   9.688  20.779  0.00  0.00    +0.000 OA
ATOM     25  N   UNL     1       1.227   9.964  18.560  0.00  0.00    +0.000 N 
ATOM     26  H   UNL     1       1.167   9.511  17.639  0.00  0.00    +0.000 HD
BRANCH  25  27
ATOM     27  C   UNL     1       1.090  11.393  18.599  0.00  0.00    +0.000 A 
ATOM     28  C   UNL     1       2.185  12.277  18.504  0.00  0.00    +0.000 A 
ATOM     29  C   UNL     1       2.004  13.653  18.550  0.00  0.00    +0.000 A 
ATOM     30  C   UNL     1       0.722  14.216  18.691  0.00  0.00    +0.000 A 
ATOM     31  C   UNL     1      -0.376  13.324  18.770  0.00  0.00    +0.000 A 
ATOM     32  C   UNL     1      -0.190  11.939  18.719  0.00  0.00    +0.000 A 
BRANCH  30  33
ATOM     33  C   UNL     1       0.530  15.714  18.740  0.00  0.00    +0.000 C 
ATOM     34  N   UNL     1       1.529  16.528  18.802  0.00  0.00    +0.000 NA
ATOM     35  N   UNL     1      -0.768  16.292  18.717  0.00  0.00    +0.000 N 
ATOM     36  H   UNL     1       2.518  16.259  18.824  0.00  0.00    +0.000 HD
ATOM     37  H   UNL     1      -1.631  15.740  18.669  0.00  0.00    +0.000 HD
ATOM     38  H   UNL     1      -0.868  17.317  18.747  0.00  0.00    +0.000 HD
ENDBRANCH  30  33
ENDBRANCH  25  27
ENDBRANCH   4  23
TORSDOF 6
ENDMDL
MODEL 9
REMARK VINA RESULT:      -8.0      3.682     10.642
REMARK  Name = 
REMARK  6 active torsions:
REMARK  status: ('A' for Active; 'I' for Inactive)
REMARK    1  A    between atoms: C_2  and  C_4
REMARK    2  A    between atoms: C_7  and  N_8
REMARK    3  A    between atoms: C_9  and  C_11
REMARK    4  A    between atoms: C_14  and  C_15
REMARK    5  A    between atoms: N_17  and  C_18
REMARK    6  A    between atoms: C_21  and  C_22
REMARK                            x       y       z     vdW  Elec       q    Type
REMARK                         _______ _______ _______ _____ _____    ______ ____
ROOT
ATOM      1  C   UNL     1      -0.379  11.518  21.925  0.00  0.00    +0.000 A 
ATOM      2  C   UNL     1      -0.577  10.218  22.430  0.00  0.00    +0.000 A 
ATOM      3  C   UNL     1       0.027   9.116  21.890  0.00  0.00    +0.000 A 
ATOM      4  C   UNL     1       0.883   9.219  20.799  0.00  0.00    +0.000 A 
ATOM      5  C   UNL     1       1.123  10.499  20.257  0.00  0.00    +0.000 A 
ATOM      6  C   UNL     1       0.498  11.632  20.816  0.00  0.00    +0.000 A 
ENDROOT
BRANCH   1   8
ATOM      7  N   UNL     1      -2.257  13.286  22.090  0.00  0.00    +0.000 N 
ATOM      8  C   UNL     1      -1.045  12.766  22.490  0.00  0.00    +0.000 C 
ATOM      9  O   UNL     1      -0.448  13.362  23.374  0.00  0.00    +0.000 OA
ATOM     10  H   UNL     1      -2.602  14.143  22.544  0.00  0.00    +0.000 HD
BRANCH   7  14
ATOM     11  C   UNL     1      -4.735  11.929  18.935  0.00  0.00    +0.000 A 
ATOM     12  C   UNL     1      -3.327  11.928  18.803  0.00  0.00    +0.000 A 
ATOM     13  C   UNL     1      -2.504  12.318  19.865  0.00  0.00    +0.000 A 
ATOM     14  C   UNL     1      -3.072  12.718  21.083  0.00  0.00    +0.000 A 
ATOM     15  C   UNL     1      -4.463  12.686  21.244  0.00  0.00    +0.000 A 
ATOM     16  C   UNL     1      -5.287  12.299  20.181  0.00  0.00    +0.000 A 
BRANCH  11  18
ATOM     17  N   UNL     1      -6.862  11.417  17.928  0.00  0.00    +0.000 NA
ATOM     18  C   UNL     1      -5.596  11.580  17.755  0.00  0.00    +0.000 C 
ATOM     19  N   UNL     1      -5.054  11.388  16.449  0.00  0.00    +0.000 N 
ATOM     20  H   UNL     1      -7.489  11.162  17.148  0.00  0.00    +0.000 HD
ATOM     21  H   UNL     1      -5.672  11.135  15.663  0.00  0.00    +0.000 HD
ATOM     22  H   UNL     1      -4.051  11.468  16.245  0.00  0.00    +0.000 HD
ENDBRANCH  11  18
ENDBRANCH   7  14
ENDBRANCH   1   8
BRANCH   4  23
ATOM     23  C   UNL     1       1.451   7.942  20.288  0.00  0.00    +0.000 C 
ATOM     24  O   UNL     1       1.924   7.959  19.161  0.00  0.00    +0.000 OA
ATOM     25  N   UNL     1       1.433   6.782  21.000  0.00  0.00    +0.000 N 
ATOM     26  H   UNL     1       0.927   6.756  21.896  0.00  0.00    +0.000 HD
BRANCH  25  27
ATOM     27  C   UNL     1       2.043   5.560  20.556  0.00  0.00    +0.000 A 
ATOM     28  C   UNL     1       1.406   4.304  20.636  0.00  0.00    +0.000 A 
ATOM     29  C   UNL     1       2.038   3.148  20.198  0.00  0.00    +0.000 A 
ATOM     30  C   UNL     1       3.336   3.187  19.656  0.00  0.00    +0.000 A 
ATOM     31  C   UNL     1       3.966   4.452  19.565  0.00  0.00    +0.000 A 
ATOM     32  C   UNL     1       3.325   5.615  20.003  0.00  0.00    +0.000 A 
BRANCH  30  33
ATOM     33  C   UNL     1       4.019   1.926  19.180  0.00  0.00    +0.000 C 
ATOM     34  N   UNL     1       3.659   1.321  18.098  0.00  0.00    +0.000 NA
ATOM     35  N   UNL     1       5.096   1.350  19.908  0.00  0.00    +0.000 N 
ATOM     36  H   UNL     1       2.903   1.619  17.472  0.00  0.00    +0.000 HD
ATOM     37  H   UNL     1       5.462   1.746  20.780  0.00  0.00    +0.000 HD
ATOM     38  H   UNL     1       5.545   0.492  19.556  0.00  0.00    +0.000 HD
ENDBRANCH  30  33
ENDBRANCH  25  27
ENDBRANCH   4  23
TORSDOF 6
ENDMDL
