MODEL 1
REMARK VINA RESULT:      -7.9      0.000      0.000
REMARK  Name = 
REMARK  7 active torsions:
REMARK  status: ('A' for Active; 'I' for Inactive)
REMARK    1  A    between atoms: C_2  and  C_3
REMARK    2  A    between atoms: C_3  and  C_4
REMARK    3  A    between atoms: C_8  and  O_9
REMARK    4  A    between atoms: N_11  and  C_12
REMARK    5  A    between atoms: C_12  and  C_13
REMARK    6  A    between atoms: N_15  and  C_16
REMARK    7  A    between atoms: C_19  and  N_20
REMARK                            x       y       z     vdW  Elec       q    Type
REMARK                         _______ _______ _______ _____ _____    ______ ____
ROOT
ATOM      1  C   UNL     1       7.320   6.522  16.985  0.00  0.00    +0.000 C 
ENDROOT
BRANCH   1   4
ATOM      2  O   UNL     1       8.674   8.015  18.900  0.00  0.00    +0.000 OA
ATOM      3  C   UNL     1       8.164   8.615  17.955  0.00  0.00    +0.000 C 
ATOM      4  N   UNL     1       7.489   7.961  16.949  0.00  0.00    +0.000 N 
ATOM      5  H   UNL     1       6.819   8.490  16.401  0.00  0.00    +0.000 HD
BRANCH   3   6
ATOM      6  C   UNL     1       8.216  10.126  17.794  0.00  0.00    +0.000 C 
BRANCH   6   7
ATOM      7  C   UNL     1       9.324  10.779  18.582  0.00  0.00    +0.000 A 
ATOM      8  C   UNL     1      10.511  11.179  17.951  0.00  0.00    +0.000 A 
ATOM      9  C   UNL     1      11.521  11.818  18.672  0.00  0.00    +0.000 A 
ATOM     10  C   UNL     1      11.359  12.068  20.036  0.00  0.00    +0.000 A 
ATOM     11  C   UNL     1      10.181  11.675  20.664  0.00  0.00    +0.000 A 
ATOM     12  C   UNL     1       9.166  11.042  19.950  0.00  0.00    +0.000 A 
BRANCH  11  13
ATOM     13  O   UNL     1       9.979  11.900  21.991  0.00  0.00    +0.000 OA
ATOM     14  H   UNL     1       9.047  12.139  22.128  0.00  0.00    +0.000 HD
ENDBRANCH  11  13
ENDBRANCH   6   7
ENDBRANCH   3   6
ENDBRANCH   1   4
BRANCH   1  15
ATOM     15  C   UNL     1       5.935   6.178  17.522  0.00  0.00    +0.000 C 
ATOM     16  O   UNL     1       4.950   6.779  17.091  0.00  0.00    +0.000 OA
ATOM     17  N   UNL     1       5.940   5.260  18.562  0.00  0.00    +0.000 N 
ATOM     18  H   UNL     1       6.844   5.082  18.997  0.00  0.00    +0.000 HD
BRANCH  17  19
ATOM     19  C   UNL     1       4.793   4.715  19.181  0.00  0.00    +0.000 A 
ATOM     20  C   UNL     1       3.754   5.512  19.677  0.00  0.00    +0.000 A 
ATOM     21  C   UNL     1       2.633   4.941  20.289  0.00  0.00    +0.000 A 
ATOM     22  C   UNL     1       2.540   3.553  20.401  0.00  0.00    +0.000 A 
ATOM     23  C   UNL     1       3.565   2.737  19.901  0.00  0.00    +0.000 A 
ATOM     24  C   UNL     1       4.684   3.322  19.285  0.00  0.00    +0.000 A 
BRANCH  22  25
ATOM     25  N   UNL     1       1.358   2.959  21.036  0.00  0.00    +0.000 N 
ATOM     26  O   UNL     1       1.462   2.565  22.207  0.00  0.00    +0.000 OA
ATOM     27  O   UNL     1       0.321   2.888  20.358  0.00  0.00    +0.000 OA
ENDBRANCH  22  25
ENDBRANCH  17  19
ENDBRANCH   1  15
TORSDOF 7
ENDMDL
MODEL 2
REMARK VINA RESULT:      -7.9      0.553      1.084
REMARK  Name = 
REMARK  7 active torsions:
REMARK  status: ('A' for Active; 'I' for Inactive)
REMARK    1  A    between atoms: C_2  and  C_3
REMARK    2  A    between atoms: C_3  and  C_4
REMARK    3  A    between atoms: C_8  and  O_9
REMARK    4  A    between atoms: N_11  and  C_12
REMARK    5  A    between atoms: C_12  and  C_13
REMARK    6  A    between atoms: N_15  and  C_16
REMARK    7  A    between atoms: C_19  and  N_20
REMARK                            x       y       z     vdW  Elec       q    Type
REMARK                         _______ _______ _______ _____ _____    ______ ____
ROOT
ATOM      1  C   UNL     1       7.409   6.460  16.874  0.00  0.00    +0.000 C 
ENDROOT
BRANCH   1   4
ATOM      2  O   UNL     1       8.668   7.913  18.882  0.00  0.00    +0.000 OA
ATOM      3  C   UNL     1       8.135   8.537  17.965  0.00  0.00    +0.000 C 
ATOM      4  N   UNL     1       7.504   7.906  16.918  0.00  0.00    +0.000 N 
ATOM      5  H   UNL     1       6.812   8.428  16.392  0.00  0.00    +0.000 HD
BRANCH   3   6
ATOM      6  C   UNL     1       8.110  10.055  17.886  0.00  0.00    +0.000 C 
BRANCH   6   7
ATOM      7  C   UNL     1       9.254  10.717  18.614  0.00  0.00    +0.000 A 
ATOM      8  C   UNL     1      10.435  11.052  17.935  0.00  0.00    +0.000 A 
ATOM      9  C   UNL     1      11.478  11.699  18.600  0.00  0.00    +0.000 A 
ATOM     10  C   UNL     1      11.358  12.020  19.953  0.00  0.00    +0.000 A 
ATOM     11  C   UNL     1      10.186  11.691  20.627  0.00  0.00    +0.000 A 
ATOM     12  C   UNL     1       9.137  11.051  19.970  0.00  0.00    +0.000 A 
BRANCH  11  13
ATOM     13  O   UNL     1      10.022  11.987  21.946  0.00  0.00    +0.000 OA
ATOM     14  H   UNL     1       9.581  11.238  22.381  0.00  0.00    +0.000 HD
ENDBRANCH  11  13
ENDBRANCH   6   7
ENDBRANCH   3   6
ENDBRANCH   1   4
BRANCH   1  15
ATOM     15  C   UNL     1       5.982   6.025  17.186  0.00  0.00    +0.000 C 
ATOM     16  O   UNL     1       5.048   6.496  16.535  0.00  0.00    +0.000 OA
ATOM     17  N   UNL     1       5.869   5.192  18.289  0.00  0.00    +0.000 N 
ATOM     18  H   UNL     1       6.688   5.134  18.891  0.00  0.00    +0.000 HD
BRANCH  17  19
ATOM     19  C   UNL     1       4.676   4.587  18.742  0.00  0.00    +0.000 A 
ATOM     20  C   UNL     1       4.269   3.315  18.320  0.00  0.00    +0.000 A 
ATOM     21  C   UNL     1       3.079   2.745  18.784  0.00  0.00    +0.000 A 
ATOM     22  C   UNL     1       2.285   3.448  19.692  0.00  0.00    +0.000 A 
ATOM     23  C   UNL     1       2.681   4.718  20.135  0.00  0.00    +0.000 A 
ATOM     24  C   UNL     1       3.879   5.279  19.665  0.00  0.00    +0.000 A 
BRANCH  22  25
ATOM     25  N   UNL     1       1.042   2.841  20.182  0.00  0.00    +0.000 N 
ATOM     26  O   UNL     1       0.897   2.720  21.407  0.00  0.00    +0.000 OA
ATOM     27  O   UNL     1       0.208   2.485  19.335  0.00  0.00    +0.000 OA
ENDBRANCH  22  25
ENDBRANCH  17  19
ENDBRANCH   1  15
TORSDOF 7
ENDMDL
MODEL 3
REMARK VINA RESULT:      -7.7      2.665      9.937
REMARK  Name = 
REMARK  7 active torsions:
REMARK  status: ('A' for Active; 'I' for Inactive)
REMARK    1  A    between atoms: C_2  and  C_3
REMARK    2  A    between atoms: C_3  and  C_4
REMARK    3  A    between atoms: C_8  and  O_9
REMARK    4  A    between atoms: N_11  and  C_12
REMARK    5  A    between atoms: C_12  and  C_13
REMARK    6  A    between atoms: N_15  and  C_16
REMARK    7  A    between atoms: C_19  and  N_20
REMARK                            x       y       z     vdW  Elec       q    Type
REMARK                         _______ _______ _______ _____ _____    ______ ____
ROOT
ATOM      1  C   UNL     1       7.751   6.818  18.298  0.00  0.00    +0.000 C 
ENDROOT
BRANCH   1   4
ATOM      2  O   UNL     1       5.522   5.508  19.319  0.00  0.00    +0.000 OA
ATOM      3  C   UNL     1       5.519   5.808  18.126  0.00  0.00    +0.000 C 
ATOM      4  N   UNL     1       6.568   6.473  17.534  0.00  0.00    +0.000 N 
ATOM      5  H   UNL     1       6.676   6.397  16.528  0.00  0.00    +0.000 HD
BRANCH   3   6
ATOM      6  C   UNL     1       4.374   5.479  17.180  0.00  0.00    +0.000 C 
BRANCH   6   7
ATOM      7  C   UNL     1       3.528   4.318  17.639  0.00  0.00    +0.000 A 
ATOM      8  C   UNL     1       2.156   4.484  17.880  0.00  0.00    +0.000 A 
ATOM      9  C   UNL     1       1.364   3.401  18.267  0.00  0.00    +0.000 A 
ATOM     10  C   UNL     1       1.932   2.135  18.419  0.00  0.00    +0.000 A 
ATOM     11  C   UNL     1       3.293   1.967  18.178  0.00  0.00    +0.000 A 
ATOM     12  C   UNL     1       4.087   3.041  17.786  0.00  0.00    +0.000 A 
BRANCH  11  13
ATOM     13  O   UNL     1       3.888   0.750  18.312  0.00  0.00    +0.000 OA
ATOM     14  H   UNL     1       4.216   0.662  19.222  0.00  0.00    +0.000 HD
ENDBRANCH  11  13
ENDBRANCH   6   7
ENDBRANCH   3   6
ENDBRANCH   1   4
BRANCH   1  15
ATOM     15  C   UNL     1       8.071   8.297  18.115  0.00  0.00    +0.000 C 
ATOM     16  O   UNL     1       7.667   8.886  17.111  0.00  0.00    +0.000 OA
ATOM     17  N   UNL     1       8.912   8.822  19.085  0.00  0.00    +0.000 N 
ATOM     18  H   UNL     1       9.393   8.144  19.674  0.00  0.00    +0.000 HD
BRANCH  17  19
ATOM     19  C   UNL     1       9.298  10.177  19.192  0.00  0.00    +0.000 A 
ATOM     20  C   UNL     1       9.443  11.009  18.075  0.00  0.00    +0.000 A 
ATOM     21  C   UNL     1       9.830  12.346  18.214  0.00  0.00    +0.000 A 
ATOM     22  C   UNL     1      10.070  12.866  19.487  0.00  0.00    +0.000 A 
ATOM     23  C   UNL     1       9.919  12.052  20.618  0.00  0.00    +0.000 A 
ATOM     24  C   UNL     1       9.526  10.712  20.467  0.00  0.00    +0.000 A 
BRANCH  22  25
ATOM     25  N   UNL     1      10.468  14.271  19.628  0.00  0.00    +0.000 N 
ATOM     26  O   UNL     1      11.659  14.560  19.445  0.00  0.00    +0.000 OA
ATOM     27  O   UNL     1       9.582  15.089  19.923  0.00  0.00    +0.000 OA
ENDBRANCH  22  25
ENDBRANCH  17  19
ENDBRANCH   1  15
TORSDOF 7
ENDMDL
MODEL 4
REMARK VINA RESULT:      -7.6      3.811      5.849
REMARK  Name = 
REMARK  7 active torsions:
REMARK  status: ('A' for Active; 'I' for Inactive)
REMARK    1  A    between atoms: C_2  and  C_3
REMARK    2  A    between atoms: C_3  and  C_4
REMARK    3  A    between atoms: C_8  and  O_9
REMARK    4  A    between atoms: N_11  and  C_12
REMARK    5  A    between atoms: C_12  and  C_13
REMARK    6  A    between atoms: N_15  and  C_16
REMARK    7  A    between atoms: C_19  and  N_20
REMARK                            x       y       z     vdW  Elec       q    Type
REMARK                         _______ _______ _______ _____ _____    ______ ____
ROOT
ATOM      1  C   UNL     1       3.263   2.984  17.892  0.00  0.00    +0.000 C 
ENDROOT
BRANCH   1   4
ATOM      2  O   UNL     1       4.158   4.123  15.520  0.00  0.00    +0.000 OA
ATOM      3  C   UNL     1       4.995   3.844  16.378  0.00  0.00    +0.000 C 
ATOM      4  N   UNL     1       4.647   3.293  17.590  0.00  0.00    +0.000 N 
ATOM      5  H   UNL     1       5.356   2.781  18.104  0.00  0.00    +0.000 HD
BRANCH   3   6
ATOM      6  C   UNL     1       6.488   4.067  16.198  0.00  0.00    +0.000 C 
BRANCH   6   7
ATOM      7  C   UNL     1       7.053   5.132  17.105  0.00  0.00    +0.000 A 
ATOM      8  C   UNL     1       7.135   6.465  16.678  0.00  0.00    +0.000 A 
ATOM      9  C   UNL     1       7.621   7.458  17.530  0.00  0.00    +0.000 A 
ATOM     10  C   UNL     1       8.033   7.133  18.824  0.00  0.00    +0.000 A 
ATOM     11  C   UNL     1       7.950   5.810  19.251  0.00  0.00    +0.000 A 
ATOM     12  C   UNL     1       7.460   4.816  18.408  0.00  0.00    +0.000 A 
BRANCH  11  13
ATOM     13  O   UNL     1       8.338   5.447  20.504  0.00  0.00    +0.000 OA
ATOM     14  H   UNL     1       7.573   5.515  21.099  0.00  0.00    +0.000 HD
ENDBRANCH  11  13
ENDBRANCH   6   7
ENDBRANCH   3   6
ENDBRANCH   1   4
BRANCH   1  15
ATOM     15  C   UNL     1       2.461   4.273  18.021  0.00  0.00    +0.000 C 
ATOM     16  O   UNL     1       1.392   4.385  17.419  0.00  0.00    +0.000 OA
ATOM     17  N   UNL     1       3.098   5.270  18.745  0.00  0.00    +0.000 N 
ATOM     18  H   UNL     1       4.090   5.129  18.923  0.00  0.00    +0.000 HD
BRANCH  17  19
ATOM     19  C   UNL     1       2.543   6.526  19.076  0.00  0.00    +0.000 A 
ATOM     20  C   UNL     1       2.462   7.581  18.159  0.00  0.00    +0.000 A 
ATOM     21  C   UNL     1       1.910   8.814  18.519  0.00  0.00    +0.000 A 
ATOM     22  C   UNL     1       1.421   8.998  19.814  0.00  0.00    +0.000 A 
ATOM     23  C   UNL     1       1.481   7.952  20.744  0.00  0.00    +0.000 A 
ATOM     24  C   UNL     1       2.035   6.716  20.369  0.00  0.00    +0.000 A 
BRANCH  22  25
ATOM     25  N   UNL     1       0.835  10.292  20.184  0.00  0.00    +0.000 N 
ATOM     26  O   UNL     1       0.179  10.901  19.327  0.00  0.00    +0.000 OA
ATOM     27  O   UNL     1       1.035  10.699  21.340  0.00  0.00    +0.000 OA
ENDBRANCH  22  25
ENDBRANCH  17  19
ENDBRANCH   1  15
TORSDOF 7
ENDMDL
MODEL 5
REMARK VINA RESULT:      -7.6      5.161      7.617
REMARK  Name = 
REMARK  7 active torsions:
REMARK  status: ('A' for Active; 'I' for Inactive)
REMARK    1  A    between atoms: C_2  and  C_3
REMARK    2  A    between atoms: C_3  and  C_4
REMARK    3  A    between atoms: C_8  and  O_9
REMARK    4  A    between atoms: N_11  and  C_12
REMARK    5  A    between atoms: C_12  and  C_13
REMARK    6  A    between atoms: N_15  and  C_16
REMARK    7  A    between atoms: C_19  and  N_20
REMARK                            x       y       z     vdW  Elec       q    Type
REMARK                         _______ _______ _______ _____ _____    ______ ____
ROOT
ATOM      1  C   UNL     1       3.263   3.197  20.566  0.00  0.00    +0.000 C 
ENDROOT
BRANCH   1   4
ATOM      2  O   UNL     1       0.715   4.285  20.333  0.00  0.00    +0.000 OA
ATOM      3  C   UNL     1       1.625   5.022  20.709  0.00  0.00    +0.000 C 
ATOM      4  N   UNL     1       2.915   4.571  20.872  0.00  0.00    +0.000 N 
ATOM      5  H   UNL     1       3.666   5.252  20.849  0.00  0.00    +0.000 HD
BRANCH   3   6
ATOM      6  C   UNL     1       1.434   6.496  21.030  0.00  0.00    +0.000 C 
BRANCH   6   7
ATOM      7  C   UNL     1       1.757   7.412  19.876  0.00  0.00    +0.000 A 
ATOM      8  C   UNL     1       2.495   6.946  18.778  0.00  0.00    +0.000 A 
ATOM      9  C   UNL     1       2.762   7.782  17.693  0.00  0.00    +0.000 A 
ATOM     10  C   UNL     1       2.293   9.096  17.686  0.00  0.00    +0.000 A 
ATOM     11  C   UNL     1       1.557   9.561  18.773  0.00  0.00    +0.000 A 
ATOM     12  C   UNL     1       1.282   8.731  19.858  0.00  0.00    +0.000 A 
BRANCH  11  13
ATOM     13  O   UNL     1       1.078  10.834  18.810  0.00  0.00    +0.000 OA
ATOM     14  H   UNL     1       1.674  11.375  19.355  0.00  0.00    +0.000 HD
ENDBRANCH  11  13
ENDBRANCH   6   7
ENDBRANCH   3   6
ENDBRANCH   1   4
BRANCH   1  15
ATOM     15  C   UNL     1       3.874   3.117  19.172  0.00  0.00    +0.000 C 
ATOM     16  O   UNL     1       3.615   2.154  18.449  0.00  0.00    +0.000 OA
ATOM     17  N   UNL     1       4.785   4.126  18.891  0.00  0.00    +0.000 N 
ATOM     18  H   UNL     1       5.109   4.670  19.689  0.00  0.00    +0.000 HD
BRANCH  17  19
ATOM     19  C   UNL     1       5.431   4.327  17.651  0.00  0.00    +0.000 A 
ATOM     20  C   UNL     1       6.822   4.438  17.536  0.00  0.00    +0.000 A 
ATOM     21  C   UNL     1       7.432   4.641  16.293  0.00  0.00    +0.000 A 
ATOM     22  C   UNL     1       6.643   4.726  15.145  0.00  0.00    +0.000 A 
ATOM     23  C   UNL     1       5.250   4.606  15.237  0.00  0.00    +0.000 A 
ATOM     24  C   UNL     1       4.649   4.399  16.490  0.00  0.00    +0.000 A 
BRANCH  22  25
ATOM     25  N   UNL     1       7.289   4.931  13.843  0.00  0.00    +0.000 N 
ATOM     26  O   UNL     1       6.851   4.300  12.870  0.00  0.00    +0.000 OA
ATOM     27  O   UNL     1       8.240   5.727  13.796  0.00  0.00    +0.000 OA
ENDBRANCH  22  25
ENDBRANCH  17  19
ENDBRANCH   1  15
TORSDOF 7
ENDMDL
MODEL 6
REMARK VINA RESULT:      -7.6      3.946      9.687
REMARK  Name = 
REMARK  7 active torsions:
REMARK  status: ('A' for Active; 'I' for Inactive)
REMARK    1  A    between atoms: C_2  and  C_3
REMARK    2  A    between atoms: C_3  and  C_4
REMARK    3  A    between atoms: C_8  and  O_9
REMARK    4  A    between atoms: N_11  and  C_12
REMARK    5  A    between atoms: C_12  and  C_13
REMARK    6  A    between atoms: N_15  and  C_16
REMARK    7  A    between atoms: C_19  and  N_20
REMARK                            x       y       z     vdW  Elec       q    Type
REMARK                         _______ _______ _______ _____ _____    ______ ____
ROOT
ATOM      1  C   UNL     1       7.836   6.676  18.459  0.00  0.00    +0.000 C 
ENDROOT
BRANCH   1   4
ATOM      2  O   UNL     1       7.977   4.293  17.034  0.00  0.00    +0.000 OA
ATOM      3  C   UNL     1       6.977   4.993  16.890  0.00  0.00    +0.000 C 
ATOM      4  N   UNL     1       6.808   6.180  17.565  0.00  0.00    +0.000 N 
ATOM      5  H   UNL     1       6.166   6.864  17.177  0.00  0.00    +0.000 HD
BRANCH   3   6
ATOM      6  C   UNL     1       5.829   4.635  15.958  0.00  0.00    +0.000 C 
BRANCH   6   7
ATOM      7  C   UNL     1       6.249   4.471  14.519  0.00  0.00    +0.000 A 
ATOM      8  C   UNL     1       7.337   5.192  14.005  0.00  0.00    +0.000 A 
ATOM      9  C   UNL     1       7.750   5.012  12.684  0.00  0.00    +0.000 A 
ATOM     10  C   UNL     1       7.082   4.109  11.855  0.00  0.00    +0.000 A 
ATOM     11  C   UNL     1       6.002   3.391  12.364  0.00  0.00    +0.000 A 
ATOM     12  C   UNL     1       5.588   3.561  13.682  0.00  0.00    +0.000 A 
BRANCH  11  13
ATOM     13  O   UNL     1       5.322   2.499  11.593  0.00  0.00    +0.000 OA
ATOM     14  H   UNL     1       5.964   1.956  11.105  0.00  0.00    +0.000 HD
ENDBRANCH  11  13
ENDBRANCH   6   7
ENDBRANCH   3   6
ENDBRANCH   1   4
BRANCH   1  15
ATOM     15  C   UNL     1       8.100   8.150  18.175  0.00  0.00    +0.000 C 
ATOM     16  O   UNL     1       7.662   8.658  17.143  0.00  0.00    +0.000 OA
ATOM     17  N   UNL     1       8.935   8.766  19.096  0.00  0.00    +0.000 N 
ATOM     18  H   UNL     1       9.448   8.145  19.720  0.00  0.00    +0.000 HD
BRANCH  17  19
ATOM     19  C   UNL     1       9.274  10.137  19.109  0.00  0.00    +0.000 A 
ATOM     20  C   UNL     1       9.532  10.860  17.939  0.00  0.00    +0.000 A 
ATOM     21  C   UNL     1       9.870  12.217  17.985  0.00  0.00    +0.000 A 
ATOM     22  C   UNL     1       9.942  12.867  19.218  0.00  0.00    +0.000 A 
ATOM     23  C   UNL     1       9.676  12.164  20.401  0.00  0.00    +0.000 A 
ATOM     24  C   UNL     1       9.335  10.803  20.341  0.00  0.00    +0.000 A 
BRANCH  22  25
ATOM     25  N   UNL     1      10.288  14.293  19.261  0.00  0.00    +0.000 N 
ATOM     26  O   UNL     1       9.936  15.006  18.310  0.00  0.00    +0.000 OA
ATOM     27  O   UNL     1      10.916  14.699  20.251  0.00  0.00    +0.000 OA
ENDBRANCH  22  25
ENDBRANCH  17  19
ENDBRANCH   1  15
TORSDOF 7
ENDMDL
MODEL 7
REMARK VINA RESULT:      -7.5      1.265      1.859
REMARK  Name = 
REMARK  7 active torsions:
REMARK  status: ('A' for Active; 'I' for Inactive)
REMARK    1  A    between atoms: C_2  and  C_3
REMARK    2  A    between atoms: C_3  and  C_4
REMARK    3  A    between atoms: C_8  and  O_9
REMARK    4  A    between atoms: N_11  and  C_12
REMARK    5  A    between atoms: C_12  and  C_13
REMARK    6  A    between atoms: N_15  and  C_16
REMARK    7  A    between atoms: C_19  and  N_20
REMARK                            x       y       z     vdW  Elec       q    Type
REMARK                         _______ _______ _______ _____ _____    ______ ____
ROOT
ATOM      1  C   UNL     1       7.704   6.220  17.051  0.00  0.00    +0.000 C 
ENDROOT
BRANCH   1   4
ATOM      2  O   UNL     1       8.906   7.771  19.021  0.00  0.00    +0.000 OA
ATOM      3  C   UNL     1       8.246   8.346  18.156  0.00  0.00    +0.000 C 
ATOM      4  N   UNL     1       7.629   7.666  17.131  0.00  0.00    +0.000 N 
ATOM      5  H   UNL     1       6.848   8.113  16.663  0.00  0.00    +0.000 HD
BRANCH   3   6
ATOM      6  C   UNL     1       8.036   9.852  18.123  0.00  0.00    +0.000 C 
BRANCH   6   7
ATOM      7  C   UNL     1       9.225  10.638  18.616  0.00  0.00    +0.000 A 
ATOM      8  C   UNL     1       9.348  10.973  19.973  0.00  0.00    +0.000 A 
ATOM      9  C   UNL     1      10.467  11.667  20.436  0.00  0.00    +0.000 A 
ATOM     10  C   UNL     1      11.481  12.037  19.551  0.00  0.00    +0.000 A 
ATOM     11  C   UNL     1      11.363  11.703  18.205  0.00  0.00    +0.000 A 
ATOM     12  C   UNL     1      10.252  11.005  17.736  0.00  0.00    +0.000 A 
BRANCH  11  13
ATOM     13  O   UNL     1      12.327  12.040  17.306  0.00  0.00    +0.000 OA
ATOM     14  H   UNL     1      12.569  11.248  16.796  0.00  0.00    +0.000 HD
ENDBRANCH  11  13
ENDBRANCH   6   7
ENDBRANCH   3   6
ENDBRANCH   1   4
BRANCH   1  15
ATOM     15  C   UNL     1       6.309   5.622  17.190  0.00  0.00    +0.000 C 
ATOM     16  O   UNL     1       5.604   5.488  16.189  0.00  0.00    +0.000 OA
ATOM     17  N   UNL     1       5.919   5.382  18.499  0.00  0.00    +0.000 N 
ATOM     18  H   UNL     1       6.490   5.817  19.222  0.00  0.00    +0.000 HD
BRANCH  17  19
ATOM     19  C   UNL     1       4.714   4.762  18.897  0.00  0.00    +0.000 A 
ATOM     20  C   UNL     1       4.385   3.451  18.533  0.00  0.00    +0.000 A 
ATOM     21  C   UNL     1       3.181   2.867  18.940  0.00  0.00    +0.000 A 
ATOM     22  C   UNL     1       2.293   3.598  19.731  0.00  0.00    +0.000 A 
ATOM     23  C   UNL     1       2.609   4.908  20.116  0.00  0.00    +0.000 A 
ATOM     24  C   UNL     1       3.823   5.482  19.704  0.00  0.00    +0.000 A 
BRANCH  22  25
ATOM     25  N   UNL     1       1.035   2.977  20.163  0.00  0.00    +0.000 N 
ATOM     26  O   UNL     1       0.814   2.893  21.380  0.00  0.00    +0.000 OA
ATOM     27  O   UNL     1       0.265   2.572  19.277  0.00  0.00    +0.000 OA
ENDBRANCH  22  25
ENDBRANCH  17  19
ENDBRANCH   1  15
TORSDOF 7
ENDMDL
MODEL 8
REMARK VINA RESULT:      -7.5      2.405      9.845
REMARK  Name = 
REMARK  7 active torsions:
REMARK  status: ('A' for Active; 'I' for Inactive)
REMARK    1  A    between atoms: C_2  and  C_3
REMARK    2  A    between atoms: C_3  and  C_4
REMARK    3  A    between atoms: C_8  and  O_9
REMARK    4  A    between atoms: N_11  and  C_12
REMARK    5  A    between atoms: C_12  and  C_13
REMARK    6  A    between atoms: N_15  and  C_16
REMARK    7  A    between atoms: C_19  and  N_20
REMARK                            x       y       z     vdW  Elec       q    Type
REMARK                         _______ _______ _______ _____ _____    ______ ____
ROOT
ATOM      1  C   UNL     1       7.708   6.695  18.324  0.00  0.00    +0.000 C 
ENDROOT
BRANCH   1   4
ATOM      2  O   UNL     1       5.577   5.397  19.551  0.00  0.00    +0.000 OA
ATOM      3  C   UNL     1       5.464   5.696  18.363  0.00  0.00    +0.000 C 
ATOM      4  N   UNL     1       6.457   6.355  17.674  0.00  0.00    +0.000 N 
ATOM      5  H   UNL     1       6.470   6.278  16.663  0.00  0.00    +0.000 HD
BRANCH   3   6
ATOM      6  C   UNL     1       4.234   5.372  17.529  0.00  0.00    +0.000 C 
BRANCH   6   7
ATOM      7  C   UNL     1       3.425   4.221  18.070  0.00  0.00    +0.000 A 
ATOM      8  C   UNL     1       3.801   2.895  17.806  0.00  0.00    +0.000 A 
ATOM      9  C   UNL     1       3.074   1.829  18.339  0.00  0.00    +0.000 A 
ATOM     10  C   UNL     1       1.959   2.071  19.143  0.00  0.00    +0.000 A 
ATOM     11  C   UNL     1       1.585   3.386  19.409  0.00  0.00    +0.000 A 
ATOM     12  C   UNL     1       2.309   4.454  18.886  0.00  0.00    +0.000 A 
BRANCH  11  13
ATOM     13  O   UNL     1       0.507   3.669  20.190  0.00  0.00    +0.000 OA
ATOM     14  H   UNL     1       0.253   2.865  20.673  0.00  0.00    +0.000 HD
ENDBRANCH  11  13
ENDBRANCH   6   7
ENDBRANCH   3   6
ENDBRANCH   1   4
BRANCH   1  15
ATOM     15  C   UNL     1       8.014   8.173  18.114  0.00  0.00    +0.000 C 
ATOM     16  O   UNL     1       7.571   8.751  17.120  0.00  0.00    +0.000 OA
ATOM     17  N   UNL     1       8.886   8.712  19.049  0.00  0.00    +0.000 N 
ATOM     18  H   UNL     1       9.391   8.042  19.627  0.00  0.00    +0.000 HD
BRANCH  17  19
ATOM     19  C   UNL     1       9.269  10.069  19.128  0.00  0.00    +0.000 A 
ATOM     20  C   UNL     1       9.572  10.834  17.995  0.00  0.00    +0.000 A 
ATOM     21  C   UNL     1       9.953  12.176  18.107  0.00  0.00    +0.000 A 
ATOM     22  C   UNL     1      10.023  12.769  19.369  0.00  0.00    +0.000 A 
ATOM     23  C   UNL     1       9.713  12.024  20.515  0.00  0.00    +0.000 A 
ATOM     24  C   UNL     1       9.329  10.678  20.389  0.00  0.00    +0.000 A 
BRANCH  22  25
ATOM     25  N   UNL     1      10.415  14.179  19.480  0.00  0.00    +0.000 N 
ATOM     26  O   UNL     1      11.151  14.506  20.423  0.00  0.00    +0.000 OA
ATOM     27  O   UNL     1       9.981  14.961  18.620  0.00  0.00    +0.000 OA
ENDBRANCH  22  25
ENDBRANCH  17  19
ENDBRANCH   1  15
TORSDOF 7
ENDMDL
MODEL 9
REMARK VINA RESULT:      -7.4      2.529      9.484
REMARK  Name = 
REMARK  7 active torsions:
REMARK  status: ('A' for Active; 'I' for Inactive)
REMARK    1  A    between atoms: C_2  and  C_3
REMARK    2  A    between atoms: C_3  and  C_4
REMARK    3  A    between atoms: C_8  and  O_9
REMARK    4  A    between atoms: N_11  and  C_12
REMARK    5  A    between atoms: C_12  and  C_13
REMARK    6  A    between atoms: N_15  and  C_16
REMARK    7  A    between atoms: C_19  and  N_20
REMARK                            x       y       z     vdW  Elec       q    Type
REMARK                         _______ _______ _______ _____ _____    ______ ____
ROOT
ATOM      1  C   UNL     1       7.800   6.610  18.385  0.00  0.00    +0.000 C 
ENDROOT
BRANCH   1   4
ATOM      2  O   UNL     1       6.352   4.371  19.172  0.00  0.00    +0.000 OA
ATOM      3  C   UNL     1       5.870   5.094  18.301  0.00  0.00    +0.000 C 
ATOM      4  N   UNL     1       6.503   6.233  17.858  0.00  0.00    +0.000 N 
ATOM      5  H   UNL     1       6.255   6.593  16.943  0.00  0.00    +0.000 HD
BRANCH   3   6
ATOM      6  C   UNL     1       4.540   4.813  17.618  0.00  0.00    +0.000 C 
BRANCH   6   7
ATOM      7  C   UNL     1       3.373   4.750  18.572  0.00  0.00    +0.000 A 
ATOM      8  C   UNL     1       2.598   3.586  18.678  0.00  0.00    +0.000 A 
ATOM      9  C   UNL     1       1.542   3.514  19.589  0.00  0.00    +0.000 A 
ATOM     10  C   UNL     1       1.245   4.604  20.408  0.00  0.00    +0.000 A 
ATOM     11  C   UNL     1       2.015   5.760  20.307  0.00  0.00    +0.000 A 
ATOM     12  C   UNL     1       3.074   5.837  19.405  0.00  0.00    +0.000 A 
BRANCH  11  13
ATOM     13  O   UNL     1       1.764   6.847  21.087  0.00  0.00    +0.000 OA
ATOM     14  H   UNL     1       0.965   6.675  21.612  0.00  0.00    +0.000 HD
ENDBRANCH  11  13
ENDBRANCH   6   7
ENDBRANCH   3   6
ENDBRANCH   1   4
BRANCH   1  15
ATOM     15  C   UNL     1       8.028   8.103  18.177  0.00  0.00    +0.000 C 
ATOM     16  O   UNL     1       7.519   8.665  17.206  0.00  0.00    +0.000 OA
ATOM     17  N   UNL     1       8.912   8.675  19.079  0.00  0.00    +0.000 N 
ATOM     18  H   UNL     1       9.470   8.026  19.631  0.00  0.00    +0.000 HD
BRANCH  17  19
ATOM     19  C   UNL     1       9.234  10.049  19.155  0.00  0.00    +0.000 A 
ATOM     20  C   UNL     1       9.347  10.730  20.373  0.00  0.00    +0.000 A 
ATOM     21  C   UNL     1       9.664  12.092  20.414  0.00  0.00    +0.000 A 
ATOM     22  C   UNL     1       9.882  12.785  19.222  0.00  0.00    +0.000 A 
ATOM     23  C   UNL     1       9.785  12.119  17.993  0.00  0.00    +0.000 A 
ATOM     24  C   UNL     1       9.469  10.750  17.965  0.00  0.00    +0.000 A 
BRANCH  22  25
ATOM     25  N   UNL     1      10.222  14.212  19.272  0.00  0.00    +0.000 N 
ATOM     26  O   UNL     1       9.637  14.978  18.492  0.00  0.00    +0.000 OA
ATOM     27  O   UNL     1      11.080  14.566  20.096  0.00  0.00    +0.000 OA
ENDBRANCH  22  25
ENDBRANCH  17  19
ENDBRANCH   1  15
TORSDOF 7
ENDMDL
