MODEL 1
REMARK VINA RESULT:      -8.8      0.000      0.000
REMARK  Name = 
REMARK  8 active torsions:
REMARK  status: ('A' for Active; 'I' for Inactive)
REMARK    1  A    between atoms: C_1  and  C_2
REMARK    2  A    between atoms: C_2  and  C_3
REMARK    3  A    between atoms: C_2  and  O_4
REMARK    4  A    between atoms: O_4  and  C_5
REMARK    5  A    between atoms: C_7  and  N_8
REMARK    6  A    between atoms: C_9  and  C_11
REMARK    7  A    between atoms: C_19  and  C_20
REMARK    8  A    between atoms: C_23  and  C_24
REMARK                            x       y       z     vdW  Elec       q    Type
REMARK                         _______ _______ _______ _____ _____    ______ ____
ROOT
ATOM      1  C   UNL     1       2.772   6.158  19.468  0.00  0.00    +0.000 A 
ATOM      2  C   UNL     1       1.867   7.217  19.874  0.00  0.00    +0.000 A 
ATOM      3  C   UNL     1       1.819   8.476  19.220  0.00  0.00    +0.000 A 
ATOM      4  C   UNL     1       2.656   8.654  18.122  0.00  0.00    +0.000 A 
ATOM      5  C   UNL     1       3.393   7.578  17.612  0.00  0.00    +0.000 A 
ATOM      6  C   UNL     1       3.386   6.317  18.227  0.00  0.00    +0.000 A 
ENDROOT
BRANCH   3   7
ATOM      7  N   UNL     1       0.999   9.567  19.598  0.00  0.00    +0.000 N 
ATOM      8  C   UNL     1      -0.087  10.144  18.970  0.00  0.00    +0.000 C 
ATOM      9  N   UNL     1      -0.324  10.016  17.698  0.00  0.00    +0.000 NA
ATOM     10  H   UNL     1       1.235   9.991  20.493  0.00  0.00    +0.000 HD
ATOM     11  H   UNL     1       0.439   9.464  17.297  0.00  0.00    +0.000 HD
BRANCH   8  12
ATOM     12  C   UNL     1      -1.020  11.022  19.801  0.00  0.00    +0.000 A 
ATOM     13  C   UNL     1      -0.778  11.240  21.157  0.00  0.00    +0.000 A 
ATOM     14  C   UNL     1      -1.599  12.123  21.865  0.00  0.00    +0.000 A 
ATOM     15  C   UNL     1      -2.639  12.756  21.186  0.00  0.00    +0.000 A 
ATOM     16  C   UNL     1      -2.830  12.454  19.843  0.00  0.00    +0.000 A 
ATOM     17  N   UNL     1      -2.058  11.593  19.130  0.00  0.00    +0.000 NA
ENDBRANCH   8  12
ENDBRANCH   3   7
BRANCH   6  18
ATOM     18  C   UNL     1       3.943   5.213  17.495  0.00  0.00    +0.000 A 
ATOM     19  C   UNL     1       4.070   3.863  17.697  0.00  0.00    +0.000 A 
ATOM     20  N   UNL     1       4.714   3.299  16.637  0.00  0.00    +0.000 NA
ATOM     21  C   UNL     1       4.985   4.330  15.853  0.00  0.00    +0.000 A 
ATOM     22  O   UNL     1       4.562   5.530  16.323  0.00  0.00    +0.000 OA
BRANCH  21  23
ATOM     23  C   UNL     1       5.779   4.358  14.646  0.00  0.00    +0.000 A 
ATOM     24  C   UNL     1       6.992   5.053  14.525  0.00  0.00    +0.000 A 
ATOM     25  C   UNL     1       7.699   5.002  13.322  0.00  0.00    +0.000 A 
ATOM     26  C   UNL     1       7.211   4.246  12.252  0.00  0.00    +0.000 A 
ATOM     27  C   UNL     1       6.012   3.550  12.374  0.00  0.00    +0.000 A 
ATOM     28  C   UNL     1       5.296   3.617  13.562  0.00  0.00    +0.000 A 
ENDBRANCH  21  23
ENDBRANCH   6  18
BRANCH   1  29
ATOM     29  O   UNL     1       3.040   5.173  20.418  0.00  0.00    +0.000 OA
BRANCH  29  31
ATOM     30  C   UNL     1       0.876   3.813  20.136  0.00  0.00    +0.000 C 
ATOM     31  C   UNL     1       2.082   4.223  20.998  0.00  0.00    +0.000 C 
ATOM     32  C   UNL     1       2.772   2.876  21.346  0.00  0.00    +0.000 C 
ENDBRANCH  29  31
ENDBRANCH   1  29
TORSDOF 6
ENDMDL
MODEL 2
REMARK VINA RESULT:      -8.7      1.739      9.373
REMARK  Name = 
REMARK  8 active torsions:
REMARK  status: ('A' for Active; 'I' for Inactive)
REMARK    1  A    between atoms: C_1  and  C_2
REMARK    2  A    between atoms: C_2  and  C_3
REMARK    3  A    between atoms: C_2  and  O_4
REMARK    4  A    between atoms: O_4  and  C_5
REMARK    5  A    between atoms: C_7  and  N_8
REMARK    6  A    between atoms: C_9  and  C_11
REMARK    7  A    between atoms: C_19  and  C_20
REMARK    8  A    between atoms: C_23  and  C_24
REMARK                            x       y       z     vdW  Elec       q    Type
REMARK                         _______ _______ _______ _____ _____    ______ ____
ROOT
ATOM      1  C   UNL     1       2.841   6.222  19.565  0.00  0.00    +0.000 A 
ATOM      2  C   UNL     1       3.872   5.769  18.650  0.00  0.00    +0.000 A 
ATOM      3  C   UNL     1       4.111   6.392  17.398  0.00  0.00    +0.000 A 
ATOM      4  C   UNL     1       3.338   7.507  17.085  0.00  0.00    +0.000 A 
ATOM      5  C   UNL     1       2.474   8.061  18.039  0.00  0.00    +0.000 A 
ATOM      6  C   UNL     1       2.290   7.474  19.300  0.00  0.00    +0.000 A 
ENDROOT
BRANCH   3   7
ATOM      7  N   UNL     1       5.062   5.970  16.438  0.00  0.00    +0.000 N 
ATOM      8  C   UNL     1       5.447   4.705  16.040  0.00  0.00    +0.000 C 
ATOM      9  N   UNL     1       5.262   3.643  16.767  0.00  0.00    +0.000 NA
ATOM     10  H   UNL     1       5.534   6.723  15.940  0.00  0.00    +0.000 HD
ATOM     11  H   UNL     1       4.833   3.944  17.646  0.00  0.00    +0.000 HD
BRANCH   8  12
ATOM     12  C   UNL     1       6.177   4.557  14.707  0.00  0.00    +0.000 A 
ATOM     13  C   UNL     1       5.684   3.713  13.711  0.00  0.00    +0.000 A 
ATOM     14  C   UNL     1       6.326   3.673  12.470  0.00  0.00    +0.000 A 
ATOM     15  C   UNL     1       7.446   4.480  12.271  0.00  0.00    +0.000 A 
ATOM     16  C   UNL     1       7.889   5.265  13.329  0.00  0.00    +0.000 A 
ATOM     17  N   UNL     1       7.295   5.318  14.550  0.00  0.00    +0.000 NA
ENDBRANCH   8  12
ENDBRANCH   3   7
BRANCH   6  18
ATOM     18  C   UNL     1       1.607   8.244  20.302  0.00  0.00    +0.000 A 
ATOM     19  C   UNL     1       1.502   8.208  21.669  0.00  0.00    +0.000 A 
ATOM     20  N   UNL     1       0.684   9.212  22.093  0.00  0.00    +0.000 NA
ATOM     21  C   UNL     1       0.296   9.792  20.968  0.00  0.00    +0.000 A 
ATOM     22  O   UNL     1       0.804   9.243  19.837  0.00  0.00    +0.000 OA
BRANCH  21  23
ATOM     23  C   UNL     1      -0.689  10.835  20.789  0.00  0.00    +0.000 A 
ATOM     24  C   UNL     1      -1.184  11.629  21.834  0.00  0.00    +0.000 A 
ATOM     25  C   UNL     1      -2.121  12.628  21.557  0.00  0.00    +0.000 A 
ATOM     26  C   UNL     1      -2.546  12.848  20.243  0.00  0.00    +0.000 A 
ATOM     27  C   UNL     1      -2.048  12.066  19.205  0.00  0.00    +0.000 A 
ATOM     28  C   UNL     1      -1.134  11.057  19.481  0.00  0.00    +0.000 A 
ENDBRANCH  21  23
ENDBRANCH   6  18
BRANCH   1  29
ATOM     29  O   UNL     1       2.412   5.302  20.521  0.00  0.00    +0.000 OA
BRANCH  29  31
ATOM     30  C   UNL     1       1.167   3.650  18.994  0.00  0.00    +0.000 C 
ATOM     31  C   UNL     1       1.339   4.309  20.372  0.00  0.00    +0.000 C 
ATOM     32  C   UNL     1       1.547   3.112  21.339  0.00  0.00    +0.000 C 
ENDBRANCH  29  31
ENDBRANCH   1  29
TORSDOF 6
ENDMDL
MODEL 3
REMARK VINA RESULT:      -8.7      0.510      1.251
REMARK  Name = 
REMARK  8 active torsions:
REMARK  status: ('A' for Active; 'I' for Inactive)
REMARK    1  A    between atoms: C_1  and  C_2
REMARK    2  A    between atoms: C_2  and  C_3
REMARK    3  A    between atoms: C_2  and  O_4
REMARK    4  A    between atoms: O_4  and  C_5
REMARK    5  A    between atoms: C_7  and  N_8
REMARK    6  A    between atoms: C_9  and  C_11
REMARK    7  A    between atoms: C_19  and  C_20
REMARK    8  A    between atoms: C_23  and  C_24
REMARK                            x       y       z     vdW  Elec       q    Type
REMARK                         _______ _______ _______ _____ _____    ______ ____
ROOT
ATOM      1  C   UNL     1       2.699   6.187  19.457  0.00  0.00    +0.000 A 
ATOM      2  C   UNL     1       1.807   7.270  19.825  0.00  0.00    +0.000 A 
ATOM      3  C   UNL     1       1.816   8.528  19.166  0.00  0.00    +0.000 A 
ATOM      4  C   UNL     1       2.700   8.679  18.099  0.00  0.00    +0.000 A 
ATOM      5  C   UNL     1       3.427   7.582  17.621  0.00  0.00    +0.000 A 
ATOM      6  C   UNL     1       3.364   6.324  18.239  0.00  0.00    +0.000 A 
ENDROOT
BRANCH   3   7
ATOM      7  N   UNL     1       1.012   9.641  19.508  0.00  0.00    +0.000 N 
ATOM      8  C   UNL     1      -0.113  10.166  18.903  0.00  0.00    +0.000 C 
ATOM      9  N   UNL     1      -0.422   9.943  17.660  0.00  0.00    +0.000 NA
ATOM     10  H   UNL     1       1.296  10.132  20.354  0.00  0.00    +0.000 HD
ATOM     11  H   UNL     1       0.320   9.365  17.258  0.00  0.00    +0.000 HD
BRANCH   8  12
ATOM     12  C   UNL     1      -1.004  11.100  19.719  0.00  0.00    +0.000 A 
ATOM     13  C   UNL     1      -2.095  11.742  19.131  0.00  0.00    +0.000 A 
ATOM     14  C   UNL     1      -2.943  12.516  19.928  0.00  0.00    +0.000 A 
ATOM     15  C   UNL     1      -2.664  12.623  21.291  0.00  0.00    +0.000 A 
ATOM     16  C   UNL     1      -1.536  11.979  21.786  0.00  0.00    +0.000 A 
ATOM     17  N   UNL     1      -0.687  11.229  21.036  0.00  0.00    +0.000 NA
ENDBRANCH   8  12
ENDBRANCH   3   7
BRANCH   6  18
ATOM     18  C   UNL     1       3.920   5.204  17.533  0.00  0.00    +0.000 A 
ATOM     19  C   UNL     1       4.056   3.860  17.772  0.00  0.00    +0.000 A 
ATOM     20  N   UNL     1       4.692   3.270  16.721  0.00  0.00    +0.000 NA
ATOM     21  C   UNL     1       4.951   4.281  15.907  0.00  0.00    +0.000 A 
ATOM     22  O   UNL     1       4.526   5.491  16.347  0.00  0.00    +0.000 OA
BRANCH  21  23
ATOM     23  C   UNL     1       5.733   4.279  14.691  0.00  0.00    +0.000 A 
ATOM     24  C   UNL     1       5.366   3.586  13.529  0.00  0.00    +0.000 A 
ATOM     25  C   UNL     1       6.178   3.661  12.395  0.00  0.00    +0.000 A 
ATOM     26  C   UNL     1       7.338   4.440  12.413  0.00  0.00    +0.000 A 
ATOM     27  C   UNL     1       7.699   5.135  13.564  0.00  0.00    +0.000 A 
ATOM     28  C   UNL     1       6.905   5.043  14.700  0.00  0.00    +0.000 A 
ENDBRANCH  21  23
ENDBRANCH   6  18
BRANCH   1  29
ATOM     29  O   UNL     1       2.906   5.200  20.419  0.00  0.00    +0.000 OA
BRANCH  29  31
ATOM     30  C   UNL     1       0.855   3.715  19.969  0.00  0.00    +0.000 C 
ATOM     31  C   UNL     1       1.907   4.261  20.949  0.00  0.00    +0.000 C 
ATOM     32  C   UNL     1       2.585   2.988  21.522  0.00  0.00    +0.000 C 
ENDBRANCH  29  31
ENDBRANCH   1  29
TORSDOF 6
ENDMDL
MODEL 4
REMARK VINA RESULT:      -8.7      1.729      9.439
REMARK  Name = 
REMARK  8 active torsions:
REMARK  status: ('A' for Active; 'I' for Inactive)
REMARK    1  A    between atoms: C_1  and  C_2
REMARK    2  A    between atoms: C_2  and  C_3
REMARK    3  A    between atoms: C_2  and  O_4
REMARK    4  A    between atoms: O_4  and  C_5
REMARK    5  A    between atoms: C_7  and  N_8
REMARK    6  A    between atoms: C_9  and  C_11
REMARK    7  A    between atoms: C_19  and  C_20
REMARK    8  A    between atoms: C_23  and  C_24
REMARK                            x       y       z     vdW  Elec       q    Type
REMARK                         _______ _______ _______ _____ _____    ______ ____
ROOT
ATOM      1  C   UNL     1       2.866   6.216  19.574  0.00  0.00    +0.000 A 
ATOM      2  C   UNL     1       3.897   5.758  18.660  0.00  0.00    +0.000 A 
ATOM      3  C   UNL     1       4.129   6.369  17.400  0.00  0.00    +0.000 A 
ATOM      4  C   UNL     1       3.349   7.476  17.077  0.00  0.00    +0.000 A 
ATOM      5  C   UNL     1       2.485   8.036  18.028  0.00  0.00    +0.000 A 
ATOM      6  C   UNL     1       2.309   7.462  19.296  0.00  0.00    +0.000 A 
ENDROOT
BRANCH   3   7
ATOM      7  N   UNL     1       5.079   5.940  16.442  0.00  0.00    +0.000 N 
ATOM      8  C   UNL     1       5.423   4.674  16.010  0.00  0.00    +0.000 C 
ATOM      9  N   UNL     1       5.187   3.598  16.701  0.00  0.00    +0.000 NA
ATOM     10  H   UNL     1       5.586   6.690  15.975  0.00  0.00    +0.000 HD
ATOM     11  H   UNL     1       4.755   3.888  17.583  0.00  0.00    +0.000 HD
BRANCH   8  12
ATOM     12  C   UNL     1       6.169   4.540  14.684  0.00  0.00    +0.000 A 
ATOM     13  C   UNL     1       5.697   3.692  13.682  0.00  0.00    +0.000 A 
ATOM     14  C   UNL     1       6.352   3.664  12.447  0.00  0.00    +0.000 A 
ATOM     15  C   UNL     1       7.463   4.487  12.262  0.00  0.00    +0.000 A 
ATOM     16  C   UNL     1       7.885   5.275  13.326  0.00  0.00    +0.000 A 
ATOM     17  N   UNL     1       7.277   5.317  14.541  0.00  0.00    +0.000 NA
ENDBRANCH   8  12
ENDBRANCH   3   7
BRANCH   6  18
ATOM     18  C   UNL     1       1.625   8.240  20.292  0.00  0.00    +0.000 A 
ATOM     19  C   UNL     1       1.517   8.213  21.659  0.00  0.00    +0.000 A 
ATOM     20  N   UNL     1       0.700   9.221  22.074  0.00  0.00    +0.000 NA
ATOM     21  C   UNL     1       0.314   9.795  20.946  0.00  0.00    +0.000 A 
ATOM     22  O   UNL     1       0.824   9.237  19.819  0.00  0.00    +0.000 OA
BRANCH  21  23
ATOM     23  C   UNL     1      -0.669  10.837  20.757  0.00  0.00    +0.000 A 
ATOM     24  C   UNL     1      -1.228  11.166  19.513  0.00  0.00    +0.000 A 
ATOM     25  C   UNL     1      -2.188  12.177  19.434  0.00  0.00    +0.000 A 
ATOM     26  C   UNL     1      -2.605  12.842  20.591  0.00  0.00    +0.000 A 
ATOM     27  C   UNL     1      -2.056  12.510  21.827  0.00  0.00    +0.000 A 
ATOM     28  C   UNL     1      -1.084  11.521  21.904  0.00  0.00    +0.000 A 
ENDBRANCH  21  23
ENDBRANCH   6  18
BRANCH   1  29
ATOM     29  O   UNL     1       2.446   5.304  20.542  0.00  0.00    +0.000 OA
BRANCH  29  31
ATOM     30  C   UNL     1       2.065   3.014  21.648  0.00  0.00    +0.000 C 
ATOM     31  C   UNL     1       2.297   3.852  20.380  0.00  0.00    +0.000 C 
ATOM     32  C   UNL     1       1.081   3.512  19.476  0.00  0.00    +0.000 C 
ENDBRANCH  29  31
ENDBRANCH   1  29
TORSDOF 6
ENDMDL
MODEL 5
REMARK VINA RESULT:      -8.6      1.109      1.483
REMARK  Name = 
REMARK  8 active torsions:
REMARK  status: ('A' for Active; 'I' for Inactive)
REMARK    1  A    between atoms: C_1  and  C_2
REMARK    2  A    between atoms: C_2  and  C_3
REMARK    3  A    between atoms: C_2  and  O_4
REMARK    4  A    between atoms: O_4  and  C_5
REMARK    5  A    between atoms: C_7  and  N_8
REMARK    6  A    between atoms: C_9  and  C_11
REMARK    7  A    between atoms: C_19  and  C_20
REMARK    8  A    between atoms: C_23  and  C_24
REMARK                            x       y       z     vdW  Elec       q    Type
REMARK                         _______ _______ _______ _____ _____    ______ ____
ROOT
ATOM      1  C   UNL     1       2.701   6.012  19.529  0.00  0.00    +0.000 A 
ATOM      2  C   UNL     1       1.790   7.063  19.942  0.00  0.00    +0.000 A 
ATOM      3  C   UNL     1       1.765   8.341  19.325  0.00  0.00    +0.000 A 
ATOM      4  C   UNL     1       2.632   8.546  18.254  0.00  0.00    +0.000 A 
ATOM      5  C   UNL     1       3.377   7.481  17.732  0.00  0.00    +0.000 A 
ATOM      6  C   UNL     1       3.347   6.202  18.309  0.00  0.00    +0.000 A 
ENDROOT
BRANCH   3   7
ATOM      7  N   UNL     1       0.941   9.425  19.712  0.00  0.00    +0.000 N 
ATOM      8  C   UNL     1       0.888  10.148  20.887  0.00  0.00    +0.000 C 
ATOM      9  N   UNL     1       1.349   9.701  22.019  0.00  0.00    +0.000 NA
ATOM     10  H   UNL     1       0.286   9.742  19.000  0.00  0.00    +0.000 HD
ATOM     11  H   UNL     1       1.698   8.753  21.855  0.00  0.00    +0.000 HD
BRANCH   8  12
ATOM     12  C   UNL     1       0.202  11.512  20.867  0.00  0.00    +0.000 A 
ATOM     13  C   UNL     1      -0.172  12.106  19.662  0.00  0.00    +0.000 A 
ATOM     14  C   UNL     1      -0.881  13.311  19.685  0.00  0.00    +0.000 A 
ATOM     15  C   UNL     1      -1.187  13.881  20.920  0.00  0.00    +0.000 A 
ATOM     16  C   UNL     1      -0.746  13.239  22.071  0.00  0.00    +0.000 A 
ATOM     17  N   UNL     1      -0.046  12.074  22.082  0.00  0.00    +0.000 NA
ENDBRANCH   8  12
ENDBRANCH   3   7
BRANCH   6  18
ATOM     18  C   UNL     1       3.918   5.118  17.561  0.00  0.00    +0.000 A 
ATOM     19  C   UNL     1       4.062   3.766  17.742  0.00  0.00    +0.000 A 
ATOM     20  N   UNL     1       4.713   3.227  16.673  0.00  0.00    +0.000 NA
ATOM     21  C   UNL     1       4.972   4.273  15.906  0.00  0.00    +0.000 A 
ATOM     22  O   UNL     1       4.533   5.461  16.394  0.00  0.00    +0.000 OA
BRANCH  21  23
ATOM     23  C   UNL     1       5.766   4.330  14.700  0.00  0.00    +0.000 A 
ATOM     24  C   UNL     1       6.981   5.023  14.597  0.00  0.00    +0.000 A 
ATOM     25  C   UNL     1       7.688   5.002  13.393  0.00  0.00    +0.000 A 
ATOM     26  C   UNL     1       7.197   4.276  12.304  0.00  0.00    +0.000 A 
ATOM     27  C   UNL     1       5.996   3.580  12.408  0.00  0.00    +0.000 A 
ATOM     28  C   UNL     1       5.280   3.619  13.597  0.00  0.00    +0.000 A 
ENDBRANCH  21  23
ENDBRANCH   6  18
BRANCH   1  29
ATOM     29  O   UNL     1       2.939   4.998  20.456  0.00  0.00    +0.000 OA
BRANCH  29  31
ATOM     30  C   UNL     1       0.880   3.511  20.052  0.00  0.00    +0.000 C 
ATOM     31  C   UNL     1       1.954   4.057  21.007  0.00  0.00    +0.000 C 
ATOM     32  C   UNL     1       2.649   2.783  21.561  0.00  0.00    +0.000 C 
ENDBRANCH  29  31
ENDBRANCH   1  29
TORSDOF 6
ENDMDL
MODEL 6
REMARK VINA RESULT:      -8.6      2.126      9.603
REMARK  Name = 
REMARK  8 active torsions:
REMARK  status: ('A' for Active; 'I' for Inactive)
REMARK    1  A    between atoms: C_1  and  C_2
REMARK    2  A    between atoms: C_2  and  C_3
REMARK    3  A    between atoms: C_2  and  O_4
REMARK    4  A    between atoms: O_4  and  C_5
REMARK    5  A    between atoms: C_7  and  N_8
REMARK    6  A    between atoms: C_9  and  C_11
REMARK    7  A    between atoms: C_19  and  C_20
REMARK    8  A    between atoms: C_23  and  C_24
REMARK                            x       y       z     vdW  Elec       q    Type
REMARK                         _______ _______ _______ _____ _____    ______ ____
ROOT
ATOM      1  C   UNL     1       2.313   6.672  19.870  0.00  0.00    +0.000 A 
ATOM      2  C   UNL     1       3.229   6.214  18.842  0.00  0.00    +0.000 A 
ATOM      3  C   UNL     1       3.465   6.943  17.647  0.00  0.00    +0.000 A 
ATOM      4  C   UNL     1       2.809   8.164  17.508  0.00  0.00    +0.000 A 
ATOM      5  C   UNL     1       2.073   8.698  18.573  0.00  0.00    +0.000 A 
ATOM      6  C   UNL     1       1.897   7.998  19.777  0.00  0.00    +0.000 A 
ENDROOT
BRANCH   3   7
ATOM      7  N   UNL     1       4.302   6.529  16.583  0.00  0.00    +0.000 N 
ATOM      8  C   UNL     1       5.594   6.042  16.584  0.00  0.00    +0.000 C 
ATOM      9  N   UNL     1       6.427   6.236  17.564  0.00  0.00    +0.000 NA
ATOM     10  H   UNL     1       3.878   6.580  15.659  0.00  0.00    +0.000 HD
ATOM     11  H   UNL     1       5.952   6.816  18.260  0.00  0.00    +0.000 HD
BRANCH   8  12
ATOM     12  C   UNL     1       6.085   5.290  15.348  0.00  0.00    +0.000 A 
ATOM     13  C   UNL     1       5.261   4.373  14.697  0.00  0.00    +0.000 A 
ATOM     14  C   UNL     1       5.708   3.772  13.516  0.00  0.00    +0.000 A 
ATOM     15  C   UNL     1       6.970   4.112  13.030  0.00  0.00    +0.000 A 
ATOM     16  C   UNL     1       7.738   5.010  13.762  0.00  0.00    +0.000 A 
ATOM     17  N   UNL     1       7.338   5.602  14.918  0.00  0.00    +0.000 NA
ENDBRANCH   8  12
ENDBRANCH   3   7
BRANCH   6  18
ATOM     18  C   UNL     1       1.368   8.722  20.899  0.00  0.00    +0.000 A 
ATOM     19  C   UNL     1       1.540   8.689  22.260  0.00  0.00    +0.000 A 
ATOM     20  N   UNL     1       0.746   9.630  22.844  0.00  0.00    +0.000 NA
ATOM     21  C   UNL     1       0.099  10.169  21.823  0.00  0.00    +0.000 A 
ATOM     22  O   UNL     1       0.414   9.651  20.610  0.00  0.00    +0.000 OA
BRANCH  21  23
ATOM     23  C   UNL     1      -0.980  11.130  21.850  0.00  0.00    +0.000 A 
ATOM     24  C   UNL     1      -1.432  11.827  20.719  0.00  0.00    +0.000 A 
ATOM     25  C   UNL     1      -2.497  12.722  20.840  0.00  0.00    +0.000 A 
ATOM     26  C   UNL     1      -3.123  12.906  22.076  0.00  0.00    +0.000 A 
ATOM     27  C   UNL     1      -2.681  12.208  23.197  0.00  0.00    +0.000 A 
ATOM     28  C   UNL     1      -1.606  11.335  23.083  0.00  0.00    +0.000 A 
ENDBRANCH  21  23
ENDBRANCH   6  18
BRANCH   1  29
ATOM     29  O   UNL     1       1.839   5.703  20.753  0.00  0.00    +0.000 OA
BRANCH  29  31
ATOM     30  C   UNL     1       2.177   3.431  21.911  0.00  0.00    +0.000 C 
ATOM     31  C   UNL     1       1.977   4.246  20.622  0.00  0.00    +0.000 C 
ATOM     32  C   UNL     1       0.711   3.621  19.975  0.00  0.00    +0.000 C 
ENDBRANCH  29  31
ENDBRANCH   1  29
TORSDOF 6
ENDMDL
MODEL 7
REMARK VINA RESULT:      -8.4      1.284      1.587
REMARK  Name = 
REMARK  8 active torsions:
REMARK  status: ('A' for Active; 'I' for Inactive)
REMARK    1  A    between atoms: C_1  and  C_2
REMARK    2  A    between atoms: C_2  and  C_3
REMARK    3  A    between atoms: C_2  and  O_4
REMARK    4  A    between atoms: O_4  and  C_5
REMARK    5  A    between atoms: C_7  and  N_8
REMARK    6  A    between atoms: C_9  and  C_11
REMARK    7  A    between atoms: C_19  and  C_20
REMARK    8  A    between atoms: C_23  and  C_24
REMARK                            x       y       z     vdW  Elec       q    Type
REMARK                         _______ _______ _______ _____ _____    ______ ____
ROOT
ATOM      1  C   UNL     1       3.079   5.534  19.397  0.00  0.00    +0.000 A 
ATOM      2  C   UNL     1       2.135   6.499  19.928  0.00  0.00    +0.000 A 
ATOM      3  C   UNL     1       1.999   7.809  19.397  0.00  0.00    +0.000 A 
ATOM      4  C   UNL     1       2.787   8.133  18.296  0.00  0.00    +0.000 A 
ATOM      5  C   UNL     1       3.561   7.151  17.665  0.00  0.00    +0.000 A 
ATOM      6  C   UNL     1       3.641   5.840  18.159  0.00  0.00    +0.000 A 
ENDROOT
BRANCH   3   7
ATOM      7  N   UNL     1       1.137   8.813  19.899  0.00  0.00    +0.000 N 
ATOM      8  C   UNL     1       1.069   9.410  21.143  0.00  0.00    +0.000 C 
ATOM      9  N   UNL     1       1.561   8.871  22.219  0.00  0.00    +0.000 NA
ATOM     10  H   UNL     1       0.461   9.174  19.228  0.00  0.00    +0.000 HD
ATOM     11  H   UNL     1       1.945   7.959  21.957  0.00  0.00    +0.000 HD
BRANCH   8  12
ATOM     12  C   UNL     1       0.329  10.740  21.267  0.00  0.00    +0.000 A 
ATOM     13  C   UNL     1      -0.456  11.019  22.386  0.00  0.00    +0.000 A 
ATOM     14  C   UNL     1      -1.044  12.282  22.511  0.00  0.00    +0.000 A 
ATOM     15  C   UNL     1      -0.825  13.222  21.504  0.00  0.00    +0.000 A 
ATOM     16  C   UNL     1      -0.057  12.848  20.407  0.00  0.00    +0.000 A 
ATOM     17  N   UNL     1       0.518  11.626  20.251  0.00  0.00    +0.000 NA
ENDBRANCH   8  12
ENDBRANCH   3   7
BRANCH   6  18
ATOM     18  C   UNL     1       4.229   4.841  17.310  0.00  0.00    +0.000 A 
ATOM     19  C   UNL     1       4.408   3.482  17.369  0.00  0.00    +0.000 A 
ATOM     20  N   UNL     1       5.059   3.057  16.249  0.00  0.00    +0.000 NA
ATOM     21  C   UNL     1       5.282   4.175  15.576  0.00  0.00    +0.000 A 
ATOM     22  O   UNL     1       4.820   5.302  16.172  0.00  0.00    +0.000 OA
BRANCH  21  23
ATOM     23  C   UNL     1       6.059   4.358  14.371  0.00  0.00    +0.000 A 
ATOM     24  C   UNL     1       7.174   5.205  14.283  0.00  0.00    +0.000 A 
ATOM     25  C   UNL     1       7.874   5.301  13.079  0.00  0.00    +0.000 A 
ATOM     26  C   UNL     1       7.479   4.541  11.974  0.00  0.00    +0.000 A 
ATOM     27  C   UNL     1       6.378   3.694  12.063  0.00  0.00    +0.000 A 
ATOM     28  C   UNL     1       5.665   3.615  13.254  0.00  0.00    +0.000 A 
ENDBRANCH  21  23
ENDBRANCH   6  18
BRANCH   1  29
ATOM     29  O   UNL     1       3.431   4.482  20.242  0.00  0.00    +0.000 OA
BRANCH  29  31
ATOM     30  C   UNL     1       1.957   3.111  21.843  0.00  0.00    +0.000 C 
ATOM     31  C   UNL     1       2.665   3.252  20.485  0.00  0.00    +0.000 C 
ATOM     32  C   UNL     1       1.522   3.091  19.446  0.00  0.00    +0.000 C 
ENDBRANCH  29  31
ENDBRANCH   1  29
TORSDOF 6
ENDMDL
MODEL 8
REMARK VINA RESULT:      -8.4      1.978      9.390
REMARK  Name = 
REMARK  8 active torsions:
REMARK  status: ('A' for Active; 'I' for Inactive)
REMARK    1  A    between atoms: C_1  and  C_2
REMARK    2  A    between atoms: C_2  and  C_3
REMARK    3  A    between atoms: C_2  and  O_4
REMARK    4  A    between atoms: O_4  and  C_5
REMARK    5  A    between atoms: C_7  and  N_8
REMARK    6  A    between atoms: C_9  and  C_11
REMARK    7  A    between atoms: C_19  and  C_20
REMARK    8  A    between atoms: C_23  and  C_24
REMARK                            x       y       z     vdW  Elec       q    Type
REMARK                         _______ _______ _______ _____ _____    ______ ____
ROOT
ATOM      1  C   UNL     1       2.900   6.048  19.352  0.00  0.00    +0.000 A 
ATOM      2  C   UNL     1       3.914   5.677  18.383  0.00  0.00    +0.000 A 
ATOM      3  C   UNL     1       4.143   6.416  17.193  0.00  0.00    +0.000 A 
ATOM      4  C   UNL     1       3.376   7.562  17.000  0.00  0.00    +0.000 A 
ATOM      5  C   UNL     1       2.530   8.028  18.014  0.00  0.00    +0.000 A 
ATOM      6  C   UNL     1       2.358   7.325  19.216  0.00  0.00    +0.000 A 
ENDROOT
BRANCH   3   7
ATOM      7  N   UNL     1       5.077   6.079  16.184  0.00  0.00    +0.000 N 
ATOM      8  C   UNL     1       5.828   4.937  15.988  0.00  0.00    +0.000 C 
ATOM      9  N   UNL     1       6.093   4.089  16.937  0.00  0.00    +0.000 NA
ATOM     10  H   UNL     1       5.208   6.790  15.466  0.00  0.00    +0.000 HD
ATOM     11  H   UNL     1       5.680   4.454  17.800  0.00  0.00    +0.000 HD
BRANCH   8  12
ATOM     12  C   UNL     1       6.423   4.691  14.603  0.00  0.00    +0.000 A 
ATOM     13  C   UNL     1       5.828   3.791  13.720  0.00  0.00    +0.000 A 
ATOM     14  C   UNL     1       6.345   3.659  12.427  0.00  0.00    +0.000 A 
ATOM     15  C   UNL     1       7.447   4.435  12.067  0.00  0.00    +0.000 A 
ATOM     16  C   UNL     1       7.998   5.281  13.022  0.00  0.00    +0.000 A 
ATOM     17  N   UNL     1       7.526   5.423  14.289  0.00  0.00    +0.000 NA
ENDBRANCH   8  12
ENDBRANCH   3   7
BRANCH   6  18
ATOM     18  C   UNL     1       1.696   8.000  20.297  0.00  0.00    +0.000 A 
ATOM     19  C   UNL     1       1.167   7.636  21.508  0.00  0.00    +0.000 A 
ATOM     20  N   UNL     1       0.641   8.730  22.127  0.00  0.00    +0.000 NA
ATOM     21  C   UNL     1       0.837   9.705  21.255  0.00  0.00    +0.000 A 
ATOM     22  O   UNL     1       1.457   9.329  20.108  0.00  0.00    +0.000 OA
BRANCH  21  23
ATOM     23  C   UNL     1       0.363  11.070  21.309  0.00  0.00    +0.000 A 
ATOM     24  C   UNL     1      -0.634  11.514  22.190  0.00  0.00    +0.000 A 
ATOM     25  C   UNL     1      -1.012  12.859  22.184  0.00  0.00    +0.000 A 
ATOM     26  C   UNL     1      -0.383  13.760  21.319  0.00  0.00    +0.000 A 
ATOM     27  C   UNL     1       0.612  13.321  20.450  0.00  0.00    +0.000 A 
ATOM     28  C   UNL     1       0.972  11.979  20.439  0.00  0.00    +0.000 A 
ENDBRANCH  21  23
ENDBRANCH   6  18
BRANCH   1  29
ATOM     29  O   UNL     1       2.476   5.044  20.222  0.00  0.00    +0.000 OA
BRANCH  29  31
ATOM     30  C   UNL     1       1.216   3.369  18.732  0.00  0.00    +0.000 C 
ATOM     31  C   UNL     1       1.318   4.157  20.048  0.00  0.00    +0.000 C 
ATOM     32  C   UNL     1       1.283   3.061  21.147  0.00  0.00    +0.000 C 
ENDBRANCH  29  31
ENDBRANCH   1  29
TORSDOF 6
ENDMDL
MODEL 9
REMARK VINA RESULT:      -8.2      1.348      1.967
REMARK  Name = 
REMARK  8 active torsions:
REMARK  status: ('A' for Active; 'I' for Inactive)
REMARK    1  A    between atoms: C_1  and  C_2
REMARK    2  A    between atoms: C_2  and  C_3
REMARK    3  A    between atoms: C_2  and  O_4
REMARK    4  A    between atoms: O_4  and  C_5
REMARK    5  A    between atoms: C_7  and  N_8
REMARK    6  A    between atoms: C_9  and  C_11
REMARK    7  A    between atoms: C_19  and  C_20
REMARK    8  A    between atoms: C_23  and  C_24
REMARK                            x       y       z     vdW  Elec       q    Type
REMARK                         _______ _______ _______ _____ _____    ______ ____
ROOT
ATOM      1  C   UNL     1       3.392   6.059  18.993  0.00  0.00    +0.000 A 
ATOM      2  C   UNL     1       2.167   6.814  19.179  0.00  0.00    +0.000 A 
ATOM      3  C   UNL     1       1.939   8.070  18.557  0.00  0.00    +0.000 A 
ATOM      4  C   UNL     1       2.934   8.547  17.707  0.00  0.00    +0.000 A 
ATOM      5  C   UNL     1       4.031   7.741  17.377  0.00  0.00    +0.000 A 
ATOM      6  C   UNL     1       4.216   6.472  17.948  0.00  0.00    +0.000 A 
ENDROOT
BRANCH   3   7
ATOM      7  N   UNL     1       0.793   8.880  18.737  0.00  0.00    +0.000 N 
ATOM      8  C   UNL     1       0.556  10.200  18.411  0.00  0.00    +0.000 C 
ATOM      9  N   UNL     1       1.506  11.065  18.211  0.00  0.00    +0.000 NA
ATOM     10  H   UNL     1      -0.003   8.408  19.164  0.00  0.00    +0.000 HD
ATOM     11  H   UNL     1       2.396  10.587  18.374  0.00  0.00    +0.000 HD
BRANCH   8  12
ATOM     12  C   UNL     1      -0.893  10.680  18.339  0.00  0.00    +0.000 A 
ATOM     13  C   UNL     1      -1.800  10.083  17.464  0.00  0.00    +0.000 A 
ATOM     14  C   UNL     1      -3.140  10.484  17.491  0.00  0.00    +0.000 A 
ATOM     15  C   UNL     1      -3.522  11.474  18.396  0.00  0.00    +0.000 A 
ATOM     16  C   UNL     1      -2.545  12.038  19.208  0.00  0.00    +0.000 A 
ATOM     17  N   UNL     1      -1.234  11.679  19.198  0.00  0.00    +0.000 NA
ENDBRANCH   8  12
ENDBRANCH   3   7
BRANCH   6  18
ATOM     18  C   UNL     1       5.205   5.613  17.359  0.00  0.00    +0.000 A 
ATOM     19  C   UNL     1       6.286   4.901  17.814  0.00  0.00    +0.000 A 
ATOM     20  N   UNL     1       6.880   4.255  16.772  0.00  0.00    +0.000 NA
ATOM     21  C   UNL     1       6.163   4.629  15.724  0.00  0.00    +0.000 A 
ATOM     22  O   UNL     1       5.138   5.471  16.005  0.00  0.00    +0.000 OA
BRANCH  21  23
ATOM     23  C   UNL     1       6.411   4.364  14.325  0.00  0.00    +0.000 A 
ATOM     24  C   UNL     1       5.642   3.483  13.550  0.00  0.00    +0.000 A 
ATOM     25  C   UNL     1       5.946   3.308  12.198  0.00  0.00    +0.000 A 
ATOM     26  C   UNL     1       6.996   4.025  11.616  0.00  0.00    +0.000 A 
ATOM     27  C   UNL     1       7.753   4.906  12.383  0.00  0.00    +0.000 A 
ATOM     28  C   UNL     1       7.467   5.063  13.733  0.00  0.00    +0.000 A 
ENDBRANCH  21  23
ENDBRANCH   6  18
BRANCH   1  29
ATOM     29  O   UNL     1       3.682   5.099  19.962  0.00  0.00    +0.000 OA
BRANCH  29  31
ATOM     30  C   UNL     1       1.813   3.640  20.957  0.00  0.00    +0.000 C 
ATOM     31  C   UNL     1       3.077   3.766  20.091  0.00  0.00    +0.000 C 
ATOM     32  C   UNL     1       2.642   3.213  18.707  0.00  0.00    +0.000 C 
ENDBRANCH  29  31
ENDBRANCH   1  29
TORSDOF 6
ENDMDL
