MODEL 1
REMARK VINA RESULT:      -7.6      0.000      0.000
REMARK  Name = 
REMARK  4 active torsions:
REMARK  status: ('A' for Active; 'I' for Inactive)
REMARK    1  A    between atoms: C_1  and  C_2
REMARK    2  A    between atoms: N_5  and  C_6
REMARK    3  A    between atoms: C_8  and  C_9
REMARK    4  A    between atoms: C_17  and  C_18
REMARK                            x       y       z     vdW  Elec       q    Type
REMARK                         _______ _______ _______ _____ _____    ______ ____
ROOT
ATOM      1  C   UNL     1       3.328   5.228  19.711  0.00  0.00    +0.000 A 
ATOM      2  O   UNL     1       3.063   6.564  19.465  0.00  0.00    +0.000 OA
ATOM      3  C   UNL     1       1.982   6.860  20.257  0.00  0.00    +0.000 A 
ATOM      4  N   UNL     1       1.529   5.842  20.958  0.00  0.00    +0.000 NA
ATOM      5  C   UNL     1       2.397   4.833  20.655  0.00  0.00    +0.000 A 
ENDROOT
BRANCH   1  10
ATOM      6  C   UNL     1       6.505   4.911  15.358  0.00  0.00    +0.000 C 
ATOM      7  C   UNL     1       6.067   4.412  16.733  0.00  0.00    +0.000 C 
ATOM      8  C   UNL     1       4.598   3.977  16.704  0.00  0.00    +0.000 C 
ATOM      9  C   UNL     1       4.127   3.536  18.089  0.00  0.00    +0.000 C 
ATOM     10  N   UNL     1       4.353   4.621  19.047  0.00  0.00    +0.000 N 
ATOM     11  C   UNL     1       5.744   5.049  19.175  0.00  0.00    +0.000 C 
ATOM     12  C   UNL     1       6.281   5.490  17.809  0.00  0.00    +0.000 C 
ENDBRANCH   1  10
BRANCH   3  13
ATOM     13  C   UNL     1       1.420   8.209  20.270  0.00  0.00    +0.000 A 
ATOM     14  C   UNL     1       1.019   8.717  21.526  0.00  0.00    +0.000 A 
ATOM     15  C   UNL     1       0.654  10.054  21.694  0.00  0.00    +0.000 A 
ATOM     16  C   UNL     1       0.682  10.915  20.605  0.00  0.00    +0.000 A 
ATOM     17  C   UNL     1       1.048  10.428  19.348  0.00  0.00    +0.000 A 
ATOM     18  C   UNL     1       1.410   9.082  19.175  0.00  0.00    +0.000 A 
ATOM     19 CL   UNL     1       1.914   8.607  17.591  0.00  0.00    +0.000 Cl
ENDBRANCH   3  13
BRANCH   5  20
ATOM     20  C   UNL     1       2.283   3.585  21.333  0.00  0.00    +0.000 C 
ATOM     21  N   UNL     1       2.176   2.574  21.892  0.00  0.00    +0.000 NA
ENDBRANCH   5  20
TORSDOF 3
ENDMDL
MODEL 2
REMARK VINA RESULT:      -7.4      1.219      1.643
REMARK  Name = 
REMARK  4 active torsions:
REMARK  status: ('A' for Active; 'I' for Inactive)
REMARK    1  A    between atoms: C_1  and  C_2
REMARK    2  A    between atoms: N_5  and  C_6
REMARK    3  A    between atoms: C_8  and  C_9
REMARK    4  A    between atoms: C_17  and  C_18
REMARK                            x       y       z     vdW  Elec       q    Type
REMARK                         _______ _______ _______ _____ _____    ______ ____
ROOT
ATOM      1  C   UNL     1       3.474   5.439  19.508  0.00  0.00    +0.000 A 
ATOM      2  O   UNL     1       3.227   6.732  19.080  0.00  0.00    +0.000 OA
ATOM      3  C   UNL     1       2.120   7.131  19.786  0.00  0.00    +0.000 A 
ATOM      4  N   UNL     1       1.634   6.214  20.596  0.00  0.00    +0.000 NA
ATOM      5  C   UNL     1       2.505   5.172  20.459  0.00  0.00    +0.000 A 
ENDROOT
BRANCH   1  10
ATOM      6  C   UNL     1       6.983   4.729  15.467  0.00  0.00    +0.000 C 
ATOM      7  C   UNL     1       6.407   4.328  16.823  0.00  0.00    +0.000 C 
ATOM      8  C   UNL     1       4.924   3.962  16.691  0.00  0.00    +0.000 C 
ATOM      9  C   UNL     1       4.318   3.622  18.051  0.00  0.00    +0.000 C 
ATOM     10  N   UNL     1       4.518   4.748  18.966  0.00  0.00    +0.000 N 
ATOM     11  C   UNL     1       5.913   5.117  19.192  0.00  0.00    +0.000 C 
ATOM     12  C   UNL     1       6.585   5.455  17.857  0.00  0.00    +0.000 C 
ENDBRANCH   1  10
BRANCH   3  13
ATOM     13  C   UNL     1       1.568   8.471  19.602  0.00  0.00    +0.000 A 
ATOM     14  C   UNL     1       1.356   8.894  18.271  0.00  0.00    +0.000 A 
ATOM     15  C   UNL     1       0.656  10.065  17.975  0.00  0.00    +0.000 A 
ATOM     16  C   UNL     1       0.151  10.842  19.009  0.00  0.00    +0.000 A 
ATOM     17  C   UNL     1       0.374  10.459  20.334  0.00  0.00    +0.000 A 
ATOM     18  C   UNL     1       1.082   9.284  20.635  0.00  0.00    +0.000 A 
ATOM     19 CL   UNL     1       1.234   8.871  22.307  0.00  0.00    +0.000 Cl
ENDBRANCH   3  13
BRANCH   5  20
ATOM     20  C   UNL     1       2.358   4.024  21.289  0.00  0.00    +0.000 C 
ATOM     21  N   UNL     1       2.223   3.085  21.957  0.00  0.00    +0.000 NA
ENDBRANCH   5  20
TORSDOF 3
ENDMDL
MODEL 3
REMARK VINA RESULT:      -7.1      3.803      7.664
REMARK  Name = 
REMARK  4 active torsions:
REMARK  status: ('A' for Active; 'I' for Inactive)
REMARK    1  A    between atoms: C_1  and  C_2
REMARK    2  A    between atoms: N_5  and  C_6
REMARK    3  A    between atoms: C_8  and  C_9
REMARK    4  A    between atoms: C_17  and  C_18
REMARK                            x       y       z     vdW  Elec       q    Type
REMARK                         _______ _______ _______ _____ _____    ______ ____
ROOT
ATOM      1  C   UNL     1       5.613   5.710  17.164  0.00  0.00    +0.000 A 
ATOM      2  O   UNL     1       5.339   4.961  16.033  0.00  0.00    +0.000 OA
ATOM      3  C   UNL     1       6.439   5.123  15.229  0.00  0.00    +0.000 A 
ATOM      4  N   UNL     1       7.364   5.914  15.728  0.00  0.00    +0.000 NA
ATOM      5  C   UNL     1       6.872   6.245  16.958  0.00  0.00    +0.000 A 
ENDROOT
BRANCH   1  10
ATOM      6  C   UNL     1       1.166   3.733  19.501  0.00  0.00    +0.000 C 
ATOM      7  C   UNL     1       2.305   4.748  19.438  0.00  0.00    +0.000 C 
ATOM      8  C   UNL     1       2.256   5.530  18.121  0.00  0.00    +0.000 C 
ATOM      9  C   UNL     1       3.427   6.505  18.016  0.00  0.00    +0.000 C 
ATOM     10  N   UNL     1       4.685   5.769  18.162  0.00  0.00    +0.000 N 
ATOM     11  C   UNL     1       4.832   5.046  19.423  0.00  0.00    +0.000 C 
ATOM     12  C   UNL     1       3.672   4.060  19.597  0.00  0.00    +0.000 C 
ENDBRANCH   1  10
BRANCH   3  13
ATOM     13  C   UNL     1       6.513   4.455  13.931  0.00  0.00    +0.000 A 
ATOM     14  C   UNL     1       5.464   3.564  13.616  0.00  0.00    +0.000 A 
ATOM     15  C   UNL     1       5.321   3.020  12.337  0.00  0.00    +0.000 A 
ATOM     16  C   UNL     1       6.229   3.359  11.343  0.00  0.00    +0.000 A 
ATOM     17  C   UNL     1       7.292   4.216  11.640  0.00  0.00    +0.000 A 
ATOM     18  C   UNL     1       7.441   4.760  12.927  0.00  0.00    +0.000 A 
ATOM     19 CL   UNL     1       8.750   5.865  13.160  0.00  0.00    +0.000 Cl
ENDBRANCH   3  13
BRANCH   5  20
ATOM     20  C   UNL     1       7.675   7.013  17.850  0.00  0.00    +0.000 C 
ATOM     21  N   UNL     1       8.316   7.647  18.581  0.00  0.00    +0.000 NA
ENDBRANCH   5  20
TORSDOF 3
ENDMDL
MODEL 4
REMARK VINA RESULT:      -7.1      1.071      1.250
REMARK  Name = 
REMARK  4 active torsions:
REMARK  status: ('A' for Active; 'I' for Inactive)
REMARK    1  A    between atoms: C_1  and  C_2
REMARK    2  A    between atoms: N_5  and  C_6
REMARK    3  A    between atoms: C_8  and  C_9
REMARK    4  A    between atoms: C_17  and  C_18
REMARK                            x       y       z     vdW  Elec       q    Type
REMARK                         _______ _______ _______ _____ _____    ______ ____
ROOT
ATOM      1  C   UNL     1       3.723   5.879  18.942  0.00  0.00    +0.000 A 
ATOM      2  O   UNL     1       3.244   7.172  19.060  0.00  0.00    +0.000 OA
ATOM      3  C   UNL     1       2.181   7.076  19.922  0.00  0.00    +0.000 A 
ATOM      4  N   UNL     1       1.930   5.854  20.340  0.00  0.00    +0.000 NA
ATOM      5  C   UNL     1       2.921   5.110  19.766  0.00  0.00    +0.000 A 
ENDROOT
BRANCH   1  10
ATOM      6  C   UNL     1       5.631   4.281  14.151  0.00  0.00    +0.000 C 
ATOM      7  C   UNL     1       5.849   4.780  15.578  0.00  0.00    +0.000 C 
ATOM      8  C   UNL     1       5.253   3.795  16.589  0.00  0.00    +0.000 C 
ATOM      9  C   UNL     1       5.405   4.313  18.018  0.00  0.00    +0.000 C 
ATOM     10  N   UNL     1       4.786   5.637  18.123  0.00  0.00    +0.000 N 
ATOM     11  C   UNL     1       5.345   6.649  17.230  0.00  0.00    +0.000 C 
ATOM     12  C   UNL     1       5.237   6.179  15.776  0.00  0.00    +0.000 C 
ENDBRANCH   1  10
BRANCH   3  13
ATOM     13  C   UNL     1       1.423   8.268  20.299  0.00  0.00    +0.000 A 
ATOM     14  C   UNL     1       1.136   8.429  21.672  0.00  0.00    +0.000 A 
ATOM     15  C   UNL     1       0.595   9.614  22.175  0.00  0.00    +0.000 A 
ATOM     16  C   UNL     1       0.328  10.667  21.310  0.00  0.00    +0.000 A 
ATOM     17  C   UNL     1       0.576  10.519  19.943  0.00  0.00    +0.000 A 
ATOM     18  C   UNL     1       1.115   9.326  19.434  0.00  0.00    +0.000 A 
ATOM     19 CL   UNL     1       1.448   9.282  17.738  0.00  0.00    +0.000 Cl
ENDBRANCH   3  13
BRANCH   5  20
ATOM     20  C   UNL     1       3.039   3.729  20.096  0.00  0.00    +0.000 C 
ATOM     21  N   UNL     1       3.122   2.606  20.375  0.00  0.00    +0.000 NA
ENDBRANCH   5  20
TORSDOF 3
ENDMDL
MODEL 5
REMARK VINA RESULT:      -7.0      1.196      1.389
REMARK  Name = 
REMARK  4 active torsions:
REMARK  status: ('A' for Active; 'I' for Inactive)
REMARK    1  A    between atoms: C_1  and  C_2
REMARK    2  A    between atoms: N_5  and  C_6
REMARK    3  A    between atoms: C_8  and  C_9
REMARK    4  A    between atoms: C_17  and  C_18
REMARK                            x       y       z     vdW  Elec       q    Type
REMARK                         _______ _______ _______ _____ _____    ______ ____
ROOT
ATOM      1  C   UNL     1       2.904   5.976  19.701  0.00  0.00    +0.000 A 
ATOM      2  O   UNL     1       2.495   7.296  19.615  0.00  0.00    +0.000 OA
ATOM      3  C   UNL     1       1.478   7.408  20.530  0.00  0.00    +0.000 A 
ATOM      4  N   UNL     1       1.192   6.291  21.163  0.00  0.00    +0.000 NA
ATOM      5  C   UNL     1       2.113   5.405  20.681  0.00  0.00    +0.000 A 
ENDROOT
BRANCH   1  10
ATOM      6  C   UNL     1       7.640   6.866  17.266  0.00  0.00    +0.000 C 
ATOM      7  C   UNL     1       6.434   5.977  17.559  0.00  0.00    +0.000 C 
ATOM      8  C   UNL     1       5.139   6.658  17.101  0.00  0.00    +0.000 C 
ATOM      9  C   UNL     1       3.918   5.809  17.447  0.00  0.00    +0.000 C 
ATOM     10  N   UNL     1       3.907   5.538  18.887  0.00  0.00    +0.000 N 
ATOM     11  C   UNL     1       5.084   4.833  19.389  0.00  0.00    +0.000 C 
ATOM     12  C   UNL     1       6.350   5.631  19.057  0.00  0.00    +0.000 C 
ENDBRANCH   1  10
BRANCH   3  13
ATOM     13  C   UNL     1       0.800   8.688  20.730  0.00  0.00    +0.000 A 
ATOM     14  C   UNL     1       0.427   9.007  22.054  0.00  0.00    +0.000 A 
ATOM     15  C   UNL     1      -0.045  10.276  22.398  0.00  0.00    +0.000 A 
ATOM     16  C   UNL     1      -0.155  11.255  21.420  0.00  0.00    +0.000 A 
ATOM     17  C   UNL     1       0.180  10.952  20.098  0.00  0.00    +0.000 A 
ATOM     18  C   UNL     1       0.650   9.676  19.749  0.00  0.00    +0.000 A 
ATOM     19 CL   UNL     1       1.104   9.437  18.097  0.00  0.00    +0.000 Cl
ENDBRANCH   3  13
BRANCH   5  20
ATOM     20  C   UNL     1       2.183   4.096  21.238  0.00  0.00    +0.000 C 
ATOM     21  N   UNL     1       2.223   3.027  21.688  0.00  0.00    +0.000 NA
ENDBRANCH   5  20
TORSDOF 3
ENDMDL
MODEL 6
REMARK VINA RESULT:      -6.9      4.002      7.545
REMARK  Name = 
REMARK  4 active torsions:
REMARK  status: ('A' for Active; 'I' for Inactive)
REMARK    1  A    between atoms: C_1  and  C_2
REMARK    2  A    between atoms: N_5  and  C_6
REMARK    3  A    between atoms: C_8  and  C_9
REMARK    4  A    between atoms: C_17  and  C_18
REMARK                            x       y       z     vdW  Elec       q    Type
REMARK                         _______ _______ _______ _____ _____    ______ ____
ROOT
ATOM      1  C   UNL     1       5.351   4.669  17.323  0.00  0.00    +0.000 A 
ATOM      2  O   UNL     1       5.132   4.325  16.000  0.00  0.00    +0.000 OA
ATOM      3  C   UNL     1       6.358   4.451  15.397  0.00  0.00    +0.000 A 
ATOM      4  N   UNL     1       7.318   4.860  16.199  0.00  0.00    +0.000 NA
ATOM      5  C   UNL     1       6.702   4.953  17.414  0.00  0.00    +0.000 A 
ENDROOT
BRANCH   1  10
ATOM      6  C   UNL     1       0.641   2.560  18.907  0.00  0.00    +0.000 C 
ATOM      7  C   UNL     1       1.776   3.568  19.069  0.00  0.00    +0.000 C 
ATOM      8  C   UNL     1       1.898   4.446  17.818  0.00  0.00    +0.000 C 
ATOM      9  C   UNL     1       3.071   5.416  17.939  0.00  0.00    +0.000 C 
ATOM     10  N   UNL     1       4.301   4.661  18.193  0.00  0.00    +0.000 N 
ATOM     11  C   UNL     1       4.283   3.847  19.406  0.00  0.00    +0.000 C 
ATOM     12  C   UNL     1       3.112   2.859  19.353  0.00  0.00    +0.000 C 
ENDBRANCH   1  10
BRANCH   3  13
ATOM     13  C   UNL     1       6.519   4.151  13.976  0.00  0.00    +0.000 A 
ATOM     14  C   UNL     1       5.555   3.299  13.394  0.00  0.00    +0.000 A 
ATOM     15  C   UNL     1       5.488   3.099  12.014  0.00  0.00    +0.000 A 
ATOM     16  C   UNL     1       6.390   3.750  11.182  0.00  0.00    +0.000 A 
ATOM     17  C   UNL     1       7.371   4.575  11.738  0.00  0.00    +0.000 A 
ATOM     18  C   UNL     1       7.443   4.773  13.127  0.00  0.00    +0.000 A 
ATOM     19 CL   UNL     1       8.651   5.872  13.696  0.00  0.00    +0.000 Cl
ENDBRANCH   3  13
BRANCH   5  20
ATOM     20  C   UNL     1       7.476   5.262  18.569  0.00  0.00    +0.000 C 
ATOM     21  N   UNL     1       8.121   5.512  19.501  0.00  0.00    +0.000 NA
ENDBRANCH   5  20
TORSDOF 3
ENDMDL
MODEL 7
REMARK VINA RESULT:      -6.9      2.415      7.011
REMARK  Name = 
REMARK  4 active torsions:
REMARK  status: ('A' for Active; 'I' for Inactive)
REMARK    1  A    between atoms: C_1  and  C_2
REMARK    2  A    between atoms: N_5  and  C_6
REMARK    3  A    between atoms: C_8  and  C_9
REMARK    4  A    between atoms: C_17  and  C_18
REMARK                            x       y       z     vdW  Elec       q    Type
REMARK                         _______ _______ _______ _____ _____    ______ ____
ROOT
ATOM      1  C   UNL     1       1.415   8.946  18.795  0.00  0.00    +0.000 A 
ATOM      2  O   UNL     1       1.980   8.170  17.798  0.00  0.00    +0.000 OA
ATOM      3  C   UNL     1       2.568   7.121  18.459  0.00  0.00    +0.000 A 
ATOM      4  N   UNL     1       2.449   7.171  19.769  0.00  0.00    +0.000 NA
ATOM      5  C   UNL     1       1.688   8.285  19.979  0.00  0.00    +0.000 A 
ENDROOT
BRANCH   1  10
ATOM      6  C   UNL     1      -2.134  12.822  20.034  0.00  0.00    +0.000 C 
ATOM      7  C   UNL     1      -1.135  12.181  19.073  0.00  0.00    +0.000 C 
ATOM      8  C   UNL     1      -1.574  10.758  18.711  0.00  0.00    +0.000 C 
ATOM      9  C   UNL     1      -0.550  10.081  17.802  0.00  0.00    +0.000 C 
ATOM     10  N   UNL     1       0.762  10.094  18.453  0.00  0.00    +0.000 N 
ATOM     11  C   UNL     1       1.276  11.423  18.774  0.00  0.00    +0.000 C 
ATOM     12  C   UNL     1       0.282  12.163  19.675  0.00  0.00    +0.000 C 
ENDBRANCH   1  10
BRANCH   3  13
ATOM     13  C   UNL     1       3.263   6.073  17.716  0.00  0.00    +0.000 A 
ATOM     14  C   UNL     1       4.495   6.425  17.123  0.00  0.00    +0.000 A 
ATOM     15  C   UNL     1       5.340   5.467  16.560  0.00  0.00    +0.000 A 
ATOM     16  C   UNL     1       4.968   4.129  16.577  0.00  0.00    +0.000 A 
ATOM     17  C   UNL     1       3.740   3.761  17.132  0.00  0.00    +0.000 A 
ATOM     18  C   UNL     1       2.886   4.724  17.694  0.00  0.00    +0.000 A 
ATOM     19 CL   UNL     1       1.426   4.144  18.416  0.00  0.00    +0.000 Cl
ENDBRANCH   3  13
BRANCH   5  20
ATOM     20  C   UNL     1       1.251   8.595  21.299  0.00  0.00    +0.000 C 
ATOM     21  N   UNL     1       0.884   8.834  22.374  0.00  0.00    +0.000 NA
ENDBRANCH   5  20
TORSDOF 3
ENDMDL
MODEL 8
REMARK VINA RESULT:      -6.7      3.583      7.169
REMARK  Name = 
REMARK  4 active torsions:
REMARK  status: ('A' for Active; 'I' for Inactive)
REMARK    1  A    between atoms: C_1  and  C_2
REMARK    2  A    between atoms: N_5  and  C_6
REMARK    3  A    between atoms: C_8  and  C_9
REMARK    4  A    between atoms: C_17  and  C_18
REMARK                            x       y       z     vdW  Elec       q    Type
REMARK                         _______ _______ _______ _____ _____    ______ ____
ROOT
ATOM      1  C   UNL     1       3.825   3.762  17.478  0.00  0.00    +0.000 A 
ATOM      2  O   UNL     1       4.622   3.301  16.445  0.00  0.00    +0.000 OA
ATOM      3  C   UNL     1       5.037   4.433  15.789  0.00  0.00    +0.000 A 
ATOM      4  N   UNL     1       4.565   5.554  16.291  0.00  0.00    +0.000 NA
ATOM      5  C   UNL     1       3.844   5.141  17.375  0.00  0.00    +0.000 A 
ENDROOT
BRANCH   1  10
ATOM      6  C   UNL     1       1.205   2.709  22.080  0.00  0.00    +0.000 C 
ATOM      7  C   UNL     1       1.841   2.252  20.769  0.00  0.00    +0.000 C 
ATOM      8  C   UNL     1       3.332   2.609  20.742  0.00  0.00    +0.000 C 
ATOM      9  C   UNL     1       3.967   2.217  19.409  0.00  0.00    +0.000 C 
ATOM     10  N   UNL     1       3.235   2.860  18.315  0.00  0.00    +0.000 N 
ATOM     11  C   UNL     1       1.817   2.518  18.238  0.00  0.00    +0.000 C 
ATOM     12  C   UNL     1       1.124   2.874  19.558  0.00  0.00    +0.000 C 
ENDBRANCH   1  10
BRANCH   3  13
ATOM     13  C   UNL     1       5.922   4.336  14.630  0.00  0.00    +0.000 A 
ATOM     14  C   UNL     1       5.453   3.577  13.536  0.00  0.00    +0.000 A 
ATOM     15  C   UNL     1       6.115   3.573  12.307  0.00  0.00    +0.000 A 
ATOM     16  C   UNL     1       7.266   4.333  12.146  0.00  0.00    +0.000 A 
ATOM     17  C   UNL     1       7.765   5.069  13.224  0.00  0.00    +0.000 A 
ATOM     18  C   UNL     1       7.103   5.070  14.463  0.00  0.00    +0.000 A 
ATOM     19 CL   UNL     1       7.770   6.074  15.702  0.00  0.00    +0.000 Cl
ENDBRANCH   3  13
BRANCH   5  20
ATOM     20  C   UNL     1       3.273   6.112  18.247  0.00  0.00    +0.000 C 
ATOM     21  N   UNL     1       2.817   6.915  18.950  0.00  0.00    +0.000 NA
ENDBRANCH   5  20
TORSDOF 3
ENDMDL
MODEL 9
REMARK VINA RESULT:      -6.7      4.080      5.529
REMARK  Name = 
REMARK  4 active torsions:
REMARK  status: ('A' for Active; 'I' for Inactive)
REMARK    1  A    between atoms: C_1  and  C_2
REMARK    2  A    between atoms: N_5  and  C_6
REMARK    3  A    between atoms: C_8  and  C_9
REMARK    4  A    between atoms: C_17  and  C_18
REMARK                            x       y       z     vdW  Elec       q    Type
REMARK                         _______ _______ _______ _____ _____    ______ ____
ROOT
ATOM      1  C   UNL     1       5.943   4.736  17.418  0.00  0.00    +0.000 A 
ATOM      2  O   UNL     1       5.190   4.549  18.564  0.00  0.00    +0.000 OA
ATOM      3  C   UNL     1       4.109   3.808  18.157  0.00  0.00    +0.000 A 
ATOM      4  N   UNL     1       4.095   3.530  16.871  0.00  0.00    +0.000 NA
ATOM      5  C   UNL     1       5.264   4.069  16.414  0.00  0.00    +0.000 A 
ENDROOT
BRANCH   1  10
ATOM      6  C   UNL     1       8.523   9.202  19.016  0.00  0.00    +0.000 C 
ATOM      7  C   UNL     1       8.509   7.843  18.320  0.00  0.00    +0.000 C 
ATOM      8  C   UNL     1       7.516   7.847  17.152  0.00  0.00    +0.000 C 
ATOM      9  C   UNL     1       7.443   6.473  16.487  0.00  0.00    +0.000 C 
ATOM     10  N   UNL     1       7.094   5.466  17.491  0.00  0.00    +0.000 N 
ATOM     11  C   UNL     1       8.029   5.360  18.608  0.00  0.00    +0.000 C 
ATOM     12  C   UNL     1       8.160   6.716  19.309  0.00  0.00    +0.000 C 
ENDBRANCH   1  10
BRANCH   3  13
ATOM     13  C   UNL     1       3.087   3.400  19.119  0.00  0.00    +0.000 A 
ATOM     14  C   UNL     1       3.543   2.823  20.324  0.00  0.00    +0.000 A 
ATOM     15  C   UNL     1       2.680   2.577  21.394  0.00  0.00    +0.000 A 
ATOM     16  C   UNL     1       1.335   2.903  21.278  0.00  0.00    +0.000 A 
ATOM     17  C   UNL     1       0.856   3.447  20.084  0.00  0.00    +0.000 A 
ATOM     18  C   UNL     1       1.721   3.691  19.005  0.00  0.00    +0.000 A 
ATOM     19 CL   UNL     1       1.032   4.434  17.605  0.00  0.00    +0.000 Cl
ENDBRANCH   3  13
BRANCH   5  20
ATOM     20  C   UNL     1       5.650   3.857  15.060  0.00  0.00    +0.000 C 
ATOM     21  N   UNL     1       5.949   3.676  13.953  0.00  0.00    +0.000 NA
ENDBRANCH   5  20
TORSDOF 3
ENDMDL
