MODEL 1
REMARK VINA RESULT:      -8.2      0.000      0.000
REMARK  Name = 
REMARK  7 active torsions:
REMARK  status: ('A' for Active; 'I' for Inactive)
REMARK    1  A    between atoms: N_1  and  C_2
REMARK    2  A    between atoms: C_2  and  C_3
REMARK    3  A    between atoms: C_3  and  C_4
REMARK    4  A    between atoms: N_6  and  C_7
REMARK    5  A    between atoms: C_7  and  C_8
REMARK    6  A    between atoms: C_11  and  C_12
REMARK    7  A    between atoms: C_15  and  O_16
REMARK                            x       y       z     vdW  Elec       q    Type
REMARK                         _______ _______ _______ _____ _____    ______ ____
ROOT
ATOM      1  C   UNL     1       2.910   6.918  18.006  0.00  0.00    +0.000 A 
ATOM      2  C   UNL     1       4.171   7.227  17.532  0.00  0.00    +0.000 A 
ATOM      3  N   UNL     1       4.798   6.061  17.169  0.00  0.00    +0.000 N 
ATOM      4  C   UNL     1       3.951   4.989  17.364  0.00  0.00    +0.000 A 
ATOM      5  C   UNL     1       4.131   3.614  17.135  0.00  0.00    +0.000 A 
ATOM      6  C   UNL     1       3.077   2.750  17.438  0.00  0.00    +0.000 A 
ATOM      7  C   UNL     1       1.882   3.235  17.960  0.00  0.00    +0.000 A 
ATOM      8  C   UNL     1       1.713   4.604  18.192  0.00  0.00    +0.000 A 
ATOM      9  C   UNL     1       2.762   5.500  17.891  0.00  0.00    +0.000 A 
ENDROOT
BRANCH   1  10
ATOM     10  C   UNL     1       1.912   7.889  18.553  0.00  0.00    +0.000 C 
BRANCH  10  11
ATOM     11  C   UNL     1       1.929   9.211  17.777  0.00  0.00    +0.000 C 
BRANCH  11  12
ATOM     12  N   UNL     1       0.647   9.908  17.868  0.00  0.00    +0.000 NA
ATOM     13  H   UNL     1       0.391   9.997  18.851  0.00  0.00    +0.000 HD
ATOM     14  H   UNL     1      -0.081   9.338  17.439  0.00  0.00    +0.000 HD
ENDBRANCH  11  12
ENDBRANCH  10  11
ENDBRANCH   1  10
BRANCH   3  15
ATOM     15  C   UNL     1       6.134   5.999  16.588  0.00  0.00    +0.000 C 
BRANCH  15  16
ATOM     16  C   UNL     1       7.109   6.784  17.388  0.00  0.00    +0.000 A 
ATOM     17  C   UNL     1       7.831   6.399  18.494  0.00  0.00    +0.000 A 
ATOM     18  O   UNL     1       8.539   7.473  18.939  0.00  0.00    +0.000 OA
ATOM     19  C   UNL     1       8.205   8.483  18.074  0.00  0.00    +0.000 A 
ATOM     20  N   UNL     1       7.356   8.118  17.128  0.00  0.00    +0.000 NA
BRANCH  19  21
ATOM     21  C   UNL     1       8.736   9.811  18.374  0.00  0.00    +0.000 A 
ATOM     22  C   UNL     1       9.530  10.054  19.509  0.00  0.00    +0.000 A 
ATOM     23  C   UNL     1       9.925  11.353  19.844  0.00  0.00    +0.000 A 
ATOM     24  C   UNL     1       9.539  12.414  19.033  0.00  0.00    +0.000 A 
ATOM     25  C   UNL     1       8.800  12.194  17.878  0.00  0.00    +0.000 A 
ATOM     26  C   UNL     1       8.399  10.897  17.550  0.00  0.00    +0.000 A 
BRANCH  24  27
ATOM     27  O   UNL     1       9.853  13.702  19.351  0.00  0.00    +0.000 OA
ATOM     28  H   UNL     1       9.811  13.801  20.317  0.00  0.00    +0.000 HD
ENDBRANCH  24  27
ENDBRANCH  19  21
ENDBRANCH  15  16
ENDBRANCH   3  15
TORSDOF 7
ENDMDL
MODEL 2
REMARK VINA RESULT:      -8.0      0.983      1.418
REMARK  Name = 
REMARK  7 active torsions:
REMARK  status: ('A' for Active; 'I' for Inactive)
REMARK    1  A    between atoms: N_1  and  C_2
REMARK    2  A    between atoms: C_2  and  C_3
REMARK    3  A    between atoms: C_3  and  C_4
REMARK    4  A    between atoms: N_6  and  C_7
REMARK    5  A    between atoms: C_7  and  C_8
REMARK    6  A    between atoms: C_11  and  C_12
REMARK    7  A    between atoms: C_15  and  O_16
REMARK                            x       y       z     vdW  Elec       q    Type
REMARK                         _______ _______ _______ _____ _____    ______ ____
ROOT
ATOM      1  C   UNL     1       2.865   6.629  17.912  0.00  0.00    +0.000 A 
ATOM      2  C   UNL     1       4.107   6.997  17.431  0.00  0.00    +0.000 A 
ATOM      3  N   UNL     1       4.810   5.860  17.117  0.00  0.00    +0.000 N 
ATOM      4  C   UNL     1       4.030   4.746  17.353  0.00  0.00    +0.000 A 
ATOM      5  C   UNL     1       4.299   3.377  17.179  0.00  0.00    +0.000 A 
ATOM      6  C   UNL     1       3.299   2.460  17.512  0.00  0.00    +0.000 A 
ATOM      7  C   UNL     1       2.072   2.889  18.010  0.00  0.00    +0.000 A 
ATOM      8  C   UNL     1       1.816   4.253  18.185  0.00  0.00    +0.000 A 
ATOM      9  C   UNL     1       2.808   5.201  17.854  0.00  0.00    +0.000 A 
ENDROOT
BRANCH   1  10
ATOM     10  C   UNL     1       1.804   7.555  18.415  0.00  0.00    +0.000 C 
BRANCH  10  11
ATOM     11  C   UNL     1       2.046   7.947  19.878  0.00  0.00    +0.000 C 
BRANCH  11  12
ATOM     12  N   UNL     1       1.783   6.833  20.787  0.00  0.00    +0.000 NA
ATOM     13  H   UNL     1       2.610   6.675  21.361  0.00  0.00    +0.000 HD
ATOM     14  H   UNL     1       1.648   5.979  20.247  0.00  0.00    +0.000 HD
ENDBRANCH  11  12
ENDBRANCH  10  11
ENDBRANCH   1  10
BRANCH   3  15
ATOM     15  C   UNL     1       6.150   5.860  16.546  0.00  0.00    +0.000 C 
BRANCH  15  16
ATOM     16  C   UNL     1       7.084   6.684  17.355  0.00  0.00    +0.000 A 
ATOM     17  C   UNL     1       7.800   6.333  18.477  0.00  0.00    +0.000 A 
ATOM     18  O   UNL     1       8.463   7.434  18.924  0.00  0.00    +0.000 OA
ATOM     19  C   UNL     1       8.111   8.425  18.043  0.00  0.00    +0.000 A 
ATOM     20  N   UNL     1       7.292   8.023  17.087  0.00  0.00    +0.000 NA
BRANCH  19  21
ATOM     21  C   UNL     1       8.593   9.773  18.340  0.00  0.00    +0.000 A 
ATOM     22  C   UNL     1       8.241  10.878  17.547  0.00  0.00    +0.000 A 
ATOM     23  C   UNL     1       8.810  12.136  17.774  0.00  0.00    +0.000 A 
ATOM     24  C   UNL     1       9.725  12.293  18.809  0.00  0.00    +0.000 A 
ATOM     25  C   UNL     1      10.049  11.228  19.640  0.00  0.00    +0.000 A 
ATOM     26  C   UNL     1       9.485   9.972  19.405  0.00  0.00    +0.000 A 
BRANCH  24  27
ATOM     27  O   UNL     1      10.347  13.485  19.032  0.00  0.00    +0.000 OA
ATOM     28  H   UNL     1       9.686  14.124  19.348  0.00  0.00    +0.000 HD
ENDBRANCH  24  27
ENDBRANCH  19  21
ENDBRANCH  15  16
ENDBRANCH   3  15
TORSDOF 7
ENDMDL
MODEL 3
REMARK VINA RESULT:      -7.9      1.533      3.393
REMARK  Name = 
REMARK  7 active torsions:
REMARK  status: ('A' for Active; 'I' for Inactive)
REMARK    1  A    between atoms: N_1  and  C_2
REMARK    2  A    between atoms: C_2  and  C_3
REMARK    3  A    between atoms: C_3  and  C_4
REMARK    4  A    between atoms: N_6  and  C_7
REMARK    5  A    between atoms: C_7  and  C_8
REMARK    6  A    between atoms: C_11  and  C_12
REMARK    7  A    between atoms: C_15  and  O_16
REMARK                            x       y       z     vdW  Elec       q    Type
REMARK                         _______ _______ _______ _____ _____    ______ ____
ROOT
ATOM      1  C   UNL     1       3.806   3.667  17.645  0.00  0.00    +0.000 A 
ATOM      2  C   UNL     1       5.034   3.786  17.022  0.00  0.00    +0.000 A 
ATOM      3  N   UNL     1       5.285   5.117  16.800  0.00  0.00    +0.000 N 
ATOM      4  C   UNL     1       4.251   5.881  17.301  0.00  0.00    +0.000 A 
ATOM      5  C   UNL     1       4.056   7.273  17.323  0.00  0.00    +0.000 A 
ATOM      6  C   UNL     1       2.887   7.767  17.906  0.00  0.00    +0.000 A 
ATOM      7  C   UNL     1       1.937   6.906  18.446  0.00  0.00    +0.000 A 
ATOM      8  C   UNL     1       2.136   5.521  18.415  0.00  0.00    +0.000 A 
ATOM      9  C   UNL     1       3.310   4.995  17.833  0.00  0.00    +0.000 A 
ENDROOT
BRANCH   1  10
ATOM     10  C   UNL     1       3.128   2.388  18.021  0.00  0.00    +0.000 C 
BRANCH  10  11
ATOM     11  C   UNL     1       4.105   1.404  18.675  0.00  0.00    +0.000 C 
BRANCH  11  12
ATOM     12  N   UNL     1       4.742   1.981  19.858  0.00  0.00    +0.000 NA
ATOM     13  H   UNL     1       5.464   1.340  20.187  0.00  0.00    +0.000 HD
ATOM     14  H   UNL     1       4.061   2.047  20.613  0.00  0.00    +0.000 HD
ENDBRANCH  11  12
ENDBRANCH  10  11
ENDBRANCH   1  10
BRANCH   3  15
ATOM     15  C   UNL     1       6.508   5.628  16.194  0.00  0.00    +0.000 C 
BRANCH  15  16
ATOM     16  C   UNL     1       7.274   6.471  17.147  0.00  0.00    +0.000 A 
ATOM     17  C   UNL     1       7.776   6.142  18.385  0.00  0.00    +0.000 A 
ATOM     18  O   UNL     1       8.339   7.254  18.929  0.00  0.00    +0.000 OA
ATOM     19  C   UNL     1       8.145   8.231  17.985  0.00  0.00    +0.000 A 
ATOM     20  N   UNL     1       7.516   7.808  16.902  0.00  0.00    +0.000 NA
BRANCH  19  21
ATOM     21  C   UNL     1       8.555   9.586  18.344  0.00  0.00    +0.000 A 
ATOM     22  C   UNL     1       8.232  10.696  17.545  0.00  0.00    +0.000 A 
ATOM     23  C   UNL     1       8.738  11.967  17.842  0.00  0.00    +0.000 A 
ATOM     24  C   UNL     1       9.560  12.132  18.951  0.00  0.00    +0.000 A 
ATOM     25  C   UNL     1       9.851  11.061  19.786  0.00  0.00    +0.000 A 
ATOM     26  C   UNL     1       9.351   9.792  19.483  0.00  0.00    +0.000 A 
BRANCH  24  27
ATOM     27  O   UNL     1      10.121  13.339  19.246  0.00  0.00    +0.000 OA
ATOM     28  H   UNL     1      11.027  13.351  18.896  0.00  0.00    +0.000 HD
ENDBRANCH  24  27
ENDBRANCH  19  21
ENDBRANCH  15  16
ENDBRANCH   3  15
TORSDOF 7
ENDMDL
MODEL 4
REMARK VINA RESULT:      -7.8      0.441      1.060
REMARK  Name = 
REMARK  7 active torsions:
REMARK  status: ('A' for Active; 'I' for Inactive)
REMARK    1  A    between atoms: N_1  and  C_2
REMARK    2  A    between atoms: C_2  and  C_3
REMARK    3  A    between atoms: C_3  and  C_4
REMARK    4  A    between atoms: N_6  and  C_7
REMARK    5  A    between atoms: C_7  and  C_8
REMARK    6  A    between atoms: C_11  and  C_12
REMARK    7  A    between atoms: C_15  and  O_16
REMARK                            x       y       z     vdW  Elec       q    Type
REMARK                         _______ _______ _______ _____ _____    ______ ____
ROOT
ATOM      1  C   UNL     1       2.858   6.920  17.700  0.00  0.00    +0.000 A 
ATOM      2  C   UNL     1       4.072   7.278  17.145  0.00  0.00    +0.000 A 
ATOM      3  N   UNL     1       4.875   6.165  17.096  0.00  0.00    +0.000 N 
ATOM      4  C   UNL     1       4.191   5.069  17.581  0.00  0.00    +0.000 A 
ATOM      5  C   UNL     1       4.579   3.725  17.723  0.00  0.00    +0.000 A 
ATOM      6  C   UNL     1       3.656   2.824  18.259  0.00  0.00    +0.000 A 
ATOM      7  C   UNL     1       2.389   3.246  18.649  0.00  0.00    +0.000 A 
ATOM      8  C   UNL     1       2.012   4.586  18.510  0.00  0.00    +0.000 A 
ATOM      9  C   UNL     1       2.925   5.517  17.968  0.00  0.00    +0.000 A 
ENDROOT
BRANCH   1  10
ATOM     10  C   UNL     1       1.713   7.840  17.982  0.00  0.00    +0.000 C 
BRANCH  10  11
ATOM     11  C   UNL     1       2.178   9.295  18.113  0.00  0.00    +0.000 C 
BRANCH  11  12
ATOM     12  N   UNL     1       1.127  10.235  17.727  0.00  0.00    +0.000 NA
ATOM     13  H   UNL     1       0.296  10.046  18.286  0.00  0.00    +0.000 HD
ATOM     14  H   UNL     1       0.859  10.066  16.758  0.00  0.00    +0.000 HD
ENDBRANCH  11  12
ENDBRANCH  10  11
ENDBRANCH   1  10
BRANCH   3  15
ATOM     15  C   UNL     1       6.220   6.153  16.536  0.00  0.00    +0.000 C 
BRANCH  15  16
ATOM     16  C   UNL     1       7.163   6.938  17.373  0.00  0.00    +0.000 A 
ATOM     17  C   UNL     1       7.863   6.545  18.490  0.00  0.00    +0.000 A 
ATOM     18  O   UNL     1       8.543   7.621  18.971  0.00  0.00    +0.000 OA
ATOM     19  C   UNL     1       8.215   8.642  18.114  0.00  0.00    +0.000 A 
ATOM     20  N   UNL     1       7.396   8.280  17.142  0.00  0.00    +0.000 NA
BRANCH  19  21
ATOM     21  C   UNL     1       8.719   9.972  18.450  0.00  0.00    +0.000 A 
ATOM     22  C   UNL     1       8.520  11.076  17.604  0.00  0.00    +0.000 A 
ATOM     23  C   UNL     1       9.115  12.312  17.884  0.00  0.00    +0.000 A 
ATOM     24  C   UNL     1       9.900  12.448  19.022  0.00  0.00    +0.000 A 
ATOM     25  C   UNL     1      10.069  11.386  19.902  0.00  0.00    +0.000 A 
ATOM     26  C   UNL     1       9.481  10.152  19.615  0.00  0.00    +0.000 A 
BRANCH  24  27
ATOM     27  O   UNL     1      10.545  13.616  19.305  0.00  0.00    +0.000 OA
ATOM     28  H   UNL     1       9.911  14.226  19.717  0.00  0.00    +0.000 HD
ENDBRANCH  24  27
ENDBRANCH  19  21
ENDBRANCH  15  16
ENDBRANCH   3  15
TORSDOF 7
ENDMDL
MODEL 5
REMARK VINA RESULT:      -7.7      1.639      3.489
REMARK  Name = 
REMARK  7 active torsions:
REMARK  status: ('A' for Active; 'I' for Inactive)
REMARK    1  A    between atoms: N_1  and  C_2
REMARK    2  A    between atoms: C_2  and  C_3
REMARK    3  A    between atoms: C_3  and  C_4
REMARK    4  A    between atoms: N_6  and  C_7
REMARK    5  A    between atoms: C_7  and  C_8
REMARK    6  A    between atoms: C_11  and  C_12
REMARK    7  A    between atoms: C_15  and  O_16
REMARK                            x       y       z     vdW  Elec       q    Type
REMARK                         _______ _______ _______ _____ _____    ______ ____
ROOT
ATOM      1  C   UNL     1       4.450   4.052  18.938  0.00  0.00    +0.000 A 
ATOM      2  C   UNL     1       5.479   4.383  18.078  0.00  0.00    +0.000 A 
ATOM      3  N   UNL     1       5.279   5.664  17.628  0.00  0.00    +0.000 N 
ATOM      4  C   UNL     1       4.146   6.196  18.210  0.00  0.00    +0.000 A 
ATOM      5  C   UNL     1       3.543   7.458  18.075  0.00  0.00    +0.000 A 
ATOM      6  C   UNL     1       2.377   7.715  18.800  0.00  0.00    +0.000 A 
ATOM      7  C   UNL     1       1.823   6.744  19.630  0.00  0.00    +0.000 A 
ATOM      8  C   UNL     1       2.426   5.489  19.754  0.00  0.00    +0.000 A 
ATOM      9  C   UNL     1       3.607   5.204  19.033  0.00  0.00    +0.000 A 
ENDROOT
BRANCH   1  10
ATOM     10  C   UNL     1       4.255   2.733  19.614  0.00  0.00    +0.000 C 
BRANCH  10  11
ATOM     11  C   UNL     1       3.376   1.796  18.776  0.00  0.00    +0.000 C 
BRANCH  11  12
ATOM     12  N   UNL     1       4.108   0.602  18.354  0.00  0.00    +0.000 NA
ATOM     13  H   UNL     1       4.294   0.025  19.173  0.00  0.00    +0.000 HD
ATOM     14  H   UNL     1       5.020   0.874  17.989  0.00  0.00    +0.000 HD
ENDBRANCH  11  12
ENDBRANCH  10  11
ENDBRANCH   1  10
BRANCH   3  15
ATOM     15  C   UNL     1       6.187   6.366  16.729  0.00  0.00    +0.000 C 
BRANCH  15  16
ATOM     16  C   UNL     1       7.203   7.143  17.485  0.00  0.00    +0.000 A 
ATOM     17  C   UNL     1       8.035   6.726  18.498  0.00  0.00    +0.000 A 
ATOM     18  O   UNL     1       8.743   7.801  18.941  0.00  0.00    +0.000 OA
ATOM     19  C   UNL     1       8.297   8.844  18.169  0.00  0.00    +0.000 A 
ATOM     20  N   UNL     1       7.379   8.498  17.283  0.00  0.00    +0.000 NA
BRANCH  19  21
ATOM     21  C   UNL     1       8.807  10.173  18.499  0.00  0.00    +0.000 A 
ATOM     22  C   UNL     1       8.589  11.281  17.662  0.00  0.00    +0.000 A 
ATOM     23  C   UNL     1       9.189  12.515  17.932  0.00  0.00    +0.000 A 
ATOM     24  C   UNL     1      10.000  12.648  19.053  0.00  0.00    +0.000 A 
ATOM     25  C   UNL     1      10.189  11.583  19.925  0.00  0.00    +0.000 A 
ATOM     26  C   UNL     1       9.595  10.349  19.647  0.00  0.00    +0.000 A 
BRANCH  24  27
ATOM     27  O   UNL     1      10.650  13.815  19.326  0.00  0.00    +0.000 OA
ATOM     28  H   UNL     1      10.071  14.555  19.081  0.00  0.00    +0.000 HD
ENDBRANCH  24  27
ENDBRANCH  19  21
ENDBRANCH  15  16
ENDBRANCH   3  15
TORSDOF 7
ENDMDL
MODEL 6
REMARK VINA RESULT:      -7.7      2.521      3.751
REMARK  Name = 
REMARK  7 active torsions:
REMARK  status: ('A' for Active; 'I' for Inactive)
REMARK    1  A    between atoms: N_1  and  C_2
REMARK    2  A    between atoms: C_2  and  C_3
REMARK    3  A    between atoms: C_3  and  C_4
REMARK    4  A    between atoms: N_6  and  C_7
REMARK    5  A    between atoms: C_7  and  C_8
REMARK    6  A    between atoms: C_11  and  C_12
REMARK    7  A    between atoms: C_15  and  O_16
REMARK                            x       y       z     vdW  Elec       q    Type
REMARK                         _______ _______ _______ _____ _____    ______ ____
ROOT
ATOM      1  C   UNL     1       5.700   4.186  15.808  0.00  0.00    +0.000 A 
ATOM      2  C   UNL     1       6.897   4.708  16.260  0.00  0.00    +0.000 A 
ATOM      3  N   UNL     1       6.739   5.097  17.567  0.00  0.00    +0.000 N 
ATOM      4  C   UNL     1       5.459   4.804  17.993  0.00  0.00    +0.000 A 
ATOM      5  C   UNL     1       4.830   5.001  19.235  0.00  0.00    +0.000 A 
ATOM      6  C   UNL     1       3.500   4.600  19.373  0.00  0.00    +0.000 A 
ATOM      7  C   UNL     1       2.811   4.028  18.308  0.00  0.00    +0.000 A 
ATOM      8  C   UNL     1       3.442   3.842  17.073  0.00  0.00    +0.000 A 
ATOM      9  C   UNL     1       4.788   4.235  16.908  0.00  0.00    +0.000 A 
ENDROOT
BRANCH   1  10
ATOM     10  C   UNL     1       5.422   3.691  14.425  0.00  0.00    +0.000 C 
BRANCH  10  11
ATOM     11  C   UNL     1       6.565   4.033  13.462  0.00  0.00    +0.000 C 
BRANCH  11  12
ATOM     12  N   UNL     1       6.546   3.180  12.275  0.00  0.00    +0.000 NA
ATOM     13  H   UNL     1       5.880   2.424  12.425  0.00  0.00    +0.000 HD
ATOM     14  H   UNL     1       7.456   2.735  12.161  0.00  0.00    +0.000 HD
ENDBRANCH  11  12
ENDBRANCH  10  11
ENDBRANCH   1  10
BRANCH   3  15
ATOM     15  C   UNL     1       7.804   5.660  18.387  0.00  0.00    +0.000 C 
BRANCH  15  16
ATOM     16  C   UNL     1       7.876   7.136  18.243  0.00  0.00    +0.000 A 
ATOM     17  C   UNL     1       7.230   7.952  17.342  0.00  0.00    +0.000 A 
ATOM     18  O   UNL     1       7.660   9.228  17.534  0.00  0.00    +0.000 OA
ATOM     19  C   UNL     1       8.570   9.131  18.556  0.00  0.00    +0.000 A 
ATOM     20  N   UNL     1       8.729   7.901  19.014  0.00  0.00    +0.000 NA
BRANCH  19  21
ATOM     21  C   UNL     1       9.293  10.350  18.913  0.00  0.00    +0.000 A 
ATOM     22  C   UNL     1       9.947  11.134  17.947  0.00  0.00    +0.000 A 
ATOM     23  C   UNL     1      10.736  12.227  18.324  0.00  0.00    +0.000 A 
ATOM     24  C   UNL     1      10.860  12.547  19.671  0.00  0.00    +0.000 A 
ATOM     25  C   UNL     1      10.180  11.820  20.640  0.00  0.00    +0.000 A 
ATOM     26  C   UNL     1       9.401  10.724  20.262  0.00  0.00    +0.000 A 
BRANCH  24  27
ATOM     27  O   UNL     1      11.661  13.568  20.088  0.00  0.00    +0.000 OA
ATOM     28  H   UNL     1      11.261  14.408  19.809  0.00  0.00    +0.000 HD
ENDBRANCH  24  27
ENDBRANCH  19  21
ENDBRANCH  15  16
ENDBRANCH   3  15
TORSDOF 7
ENDMDL
MODEL 7
REMARK VINA RESULT:      -7.7      4.121      7.135
REMARK  Name = 
REMARK  7 active torsions:
REMARK  status: ('A' for Active; 'I' for Inactive)
REMARK    1  A    between atoms: N_1  and  C_2
REMARK    2  A    between atoms: C_2  and  C_3
REMARK    3  A    between atoms: C_3  and  C_4
REMARK    4  A    between atoms: N_6  and  C_7
REMARK    5  A    between atoms: C_7  and  C_8
REMARK    6  A    between atoms: C_11  and  C_12
REMARK    7  A    between atoms: C_15  and  O_16
REMARK                            x       y       z     vdW  Elec       q    Type
REMARK                         _______ _______ _______ _____ _____    ______ ____
ROOT
ATOM      1  C   UNL     1       5.424   5.262  17.959  0.00  0.00    +0.000 A 
ATOM      2  C   UNL     1       4.930   6.547  17.846  0.00  0.00    +0.000 A 
ATOM      3  N   UNL     1       3.563   6.483  17.738  0.00  0.00    +0.000 N 
ATOM      4  C   UNL     1       3.146   5.169  17.814  0.00  0.00    +0.000 A 
ATOM      5  C   UNL     1       1.861   4.603  17.763  0.00  0.00    +0.000 A 
ATOM      6  C   UNL     1       1.746   3.215  17.864  0.00  0.00    +0.000 A 
ATOM      7  C   UNL     1       2.874   2.412  18.004  0.00  0.00    +0.000 A 
ATOM      8  C   UNL     1       4.150   2.983  18.047  0.00  0.00    +0.000 A 
ATOM      9  C   UNL     1       4.294   4.384  17.950  0.00  0.00    +0.000 A 
ENDROOT
BRANCH   1  10
ATOM     10  C   UNL     1       6.866   4.876  18.049  0.00  0.00    +0.000 C 
BRANCH  10  11
ATOM     11  C   UNL     1       7.673   5.896  18.861  0.00  0.00    +0.000 C 
BRANCH  11  12
ATOM     12  N   UNL     1       7.890   5.444  20.234  0.00  0.00    +0.000 NA
ATOM     13  H   UNL     1       7.005   5.108  20.613  0.00  0.00    +0.000 HD
ATOM     14  H   UNL     1       8.161   6.237  20.814  0.00  0.00    +0.000 HD
ENDBRANCH  11  12
ENDBRANCH  10  11
ENDBRANCH   1  10
BRANCH   3  15
ATOM     15  C   UNL     1       2.696   7.650  17.639  0.00  0.00    +0.000 C 
BRANCH  15  16
ATOM     16  C   UNL     1       2.114   8.006  18.959  0.00  0.00    +0.000 A 
ATOM     17  C   UNL     1       2.147   7.300  20.139  0.00  0.00    +0.000 A 
ATOM     18  O   UNL     1       1.415   7.978  21.064  0.00  0.00    +0.000 OA
ATOM     19  C   UNL     1       0.954   9.081  20.393  0.00  0.00    +0.000 A 
ATOM     20  N   UNL     1       1.349   9.143  19.133  0.00  0.00    +0.000 NA
BRANCH  19  21
ATOM     21  C   UNL     1       0.030   9.954  21.114  0.00  0.00    +0.000 A 
ATOM     22  C   UNL     1      -0.520  11.104  20.523  0.00  0.00    +0.000 A 
ATOM     23  C   UNL     1      -1.304  11.991  21.269  0.00  0.00    +0.000 A 
ATOM     24  C   UNL     1      -1.552  11.720  22.609  0.00  0.00    +0.000 A 
ATOM     25  C   UNL     1      -1.064  10.562  23.203  0.00  0.00    +0.000 A 
ATOM     26  C   UNL     1      -0.274   9.683  22.458  0.00  0.00    +0.000 A 
BRANCH  24  27
ATOM     27  O   UNL     1      -2.262  12.583  23.389  0.00  0.00    +0.000 OA
ATOM     28  H   UNL     1      -2.745  12.068  24.057  0.00  0.00    +0.000 HD
ENDBRANCH  24  27
ENDBRANCH  19  21
ENDBRANCH  15  16
ENDBRANCH   3  15
TORSDOF 7
ENDMDL
MODEL 8
REMARK VINA RESULT:      -7.7      1.530      3.255
REMARK  Name = 
REMARK  7 active torsions:
REMARK  status: ('A' for Active; 'I' for Inactive)
REMARK    1  A    between atoms: N_1  and  C_2
REMARK    2  A    between atoms: C_2  and  C_3
REMARK    3  A    between atoms: C_3  and  C_4
REMARK    4  A    between atoms: N_6  and  C_7
REMARK    5  A    between atoms: C_7  and  C_8
REMARK    6  A    between atoms: C_11  and  C_12
REMARK    7  A    between atoms: C_15  and  O_16
REMARK                            x       y       z     vdW  Elec       q    Type
REMARK                         _______ _______ _______ _____ _____    ______ ____
ROOT
ATOM      1  C   UNL     1       3.750   3.562  17.924  0.00  0.00    +0.000 A 
ATOM      2  C   UNL     1       4.716   3.974  17.025  0.00  0.00    +0.000 A 
ATOM      3  N   UNL     1       4.716   5.346  16.982  0.00  0.00    +0.000 N 
ATOM      4  C   UNL     1       3.785   5.845  17.870  0.00  0.00    +0.000 A 
ATOM      5  C   UNL     1       3.427   7.167  18.189  0.00  0.00    +0.000 A 
ATOM      6  C   UNL     1       2.428   7.368  19.143  0.00  0.00    +0.000 A 
ATOM      7  C   UNL     1       1.798   6.291  19.758  0.00  0.00    +0.000 A 
ATOM      8  C   UNL     1       2.155   4.979  19.431  0.00  0.00    +0.000 A 
ATOM      9  C   UNL     1       3.165   4.747  18.471  0.00  0.00    +0.000 A 
ENDROOT
BRANCH   1  10
ATOM     10  C   UNL     1       3.384   2.146  18.236  0.00  0.00    +0.000 C 
BRANCH  10  11
ATOM     11  C   UNL     1       3.718   1.785  19.689  0.00  0.00    +0.000 C 
BRANCH  11  12
ATOM     12  N   UNL     1       5.107   2.100  20.018  0.00  0.00    +0.000 NA
ATOM     13  H   UNL     1       5.397   2.913  19.476  0.00  0.00    +0.000 HD
ATOM     14  H   UNL     1       5.710   1.334  19.720  0.00  0.00    +0.000 HD
ENDBRANCH  11  12
ENDBRANCH  10  11
ENDBRANCH   1  10
BRANCH   3  15
ATOM     15  C   UNL     1       5.631   6.137  16.169  0.00  0.00    +0.000 C 
BRANCH  15  16
ATOM     16  C   UNL     1       6.684   6.773  17.002  0.00  0.00    +0.000 A 
ATOM     17  C   UNL     1       7.448   6.220  18.004  0.00  0.00    +0.000 A 
ATOM     18  O   UNL     1       8.228   7.198  18.538  0.00  0.00    +0.000 OA
ATOM     19  C   UNL     1       7.894   8.325  17.830  0.00  0.00    +0.000 A 
ATOM     20  N   UNL     1       6.979   8.118  16.900  0.00  0.00    +0.000 NA
BRANCH  19  21
ATOM     21  C   UNL     1       8.503   9.580  18.265  0.00  0.00    +0.000 A 
ATOM     22  C   UNL     1       9.240   9.674  19.458  0.00  0.00    +0.000 A 
ATOM     23  C   UNL     1       9.709  10.910  19.917  0.00  0.00    +0.000 A 
ATOM     24  C   UNL     1       9.452  12.056  19.173  0.00  0.00    +0.000 A 
ATOM     25  C   UNL     1       8.772  11.982  17.964  0.00  0.00    +0.000 A 
ATOM     26  C   UNL     1       8.298  10.748  17.512  0.00  0.00    +0.000 A 
BRANCH  24  27
ATOM     27  O   UNL     1       9.840  13.288  19.609  0.00  0.00    +0.000 OA
ATOM     28  H   UNL     1      10.063  13.833  18.835  0.00  0.00    +0.000 HD
ENDBRANCH  24  27
ENDBRANCH  19  21
ENDBRANCH  15  16
ENDBRANCH   3  15
TORSDOF 7
ENDMDL
MODEL 9
REMARK VINA RESULT:      -7.5      3.504      6.416
REMARK  Name = 
REMARK  7 active torsions:
REMARK  status: ('A' for Active; 'I' for Inactive)
REMARK    1  A    between atoms: N_1  and  C_2
REMARK    2  A    between atoms: C_2  and  C_3
REMARK    3  A    between atoms: C_3  and  C_4
REMARK    4  A    between atoms: N_6  and  C_7
REMARK    5  A    between atoms: C_7  and  C_8
REMARK    6  A    between atoms: C_11  and  C_12
REMARK    7  A    between atoms: C_15  and  O_16
REMARK                            x       y       z     vdW  Elec       q    Type
REMARK                         _______ _______ _______ _____ _____    ______ ____
ROOT
ATOM      1  C   UNL     1       7.106   6.032  18.226  0.00  0.00    +0.000 A 
ATOM      2  C   UNL     1       6.220   5.559  19.176  0.00  0.00    +0.000 A 
ATOM      3  N   UNL     1       5.354   4.683  18.570  0.00  0.00    +0.000 N 
ATOM      4  C   UNL     1       5.682   4.545  17.236  0.00  0.00    +0.000 A 
ATOM      5  C   UNL     1       5.105   3.765  16.218  0.00  0.00    +0.000 A 
ATOM      6  C   UNL     1       5.660   3.834  14.938  0.00  0.00    +0.000 A 
ATOM      7  C   UNL     1       6.750   4.658  14.675  0.00  0.00    +0.000 A 
ATOM      8  C   UNL     1       7.314   5.435  15.692  0.00  0.00    +0.000 A 
ATOM      9  C   UNL     1       6.774   5.382  16.995  0.00  0.00    +0.000 A 
ENDROOT
BRANCH   1  10
ATOM     10  C   UNL     1       8.182   7.045  18.451  0.00  0.00    +0.000 C 
BRANCH  10  11
ATOM     11  C   UNL     1       7.858   8.374  17.759  0.00  0.00    +0.000 C 
BRANCH  11  12
ATOM     12  N   UNL     1       8.596   9.487  18.354  0.00  0.00    +0.000 NA
ATOM     13  H   UNL     1       9.229   9.873  17.655  0.00  0.00    +0.000 HD
ATOM     14  H   UNL     1       9.187   9.139  19.108  0.00  0.00    +0.000 HD
ENDBRANCH  11  12
ENDBRANCH  10  11
ENDBRANCH   1  10
BRANCH   3  15
ATOM     15  C   UNL     1       4.303   3.957  19.270  0.00  0.00    +0.000 C 
BRANCH  15  16
ATOM     16  C   UNL     1       3.281   4.883  19.822  0.00  0.00    +0.000 A 
ATOM     17  C   UNL     1       2.222   4.607  20.656  0.00  0.00    +0.000 A 
ATOM     18  O   UNL     1       1.509   5.751  20.837  0.00  0.00    +0.000 OA
ATOM     19  C   UNL     1       2.172   6.688  20.086  0.00  0.00    +0.000 A 
ATOM     20  N   UNL     1       3.239   6.216  19.465  0.00  0.00    +0.000 NA
BRANCH  19  21
ATOM     21  C   UNL     1       1.562   8.013  19.996  0.00  0.00    +0.000 A 
ATOM     22  C   UNL     1       1.641   8.789  18.827  0.00  0.00    +0.000 A 
ATOM     23  C   UNL     1       1.158  10.102  18.802  0.00  0.00    +0.000 A 
ATOM     24  C   UNL     1       0.580  10.638  19.946  0.00  0.00    +0.000 A 
ATOM     25  C   UNL     1       0.442   9.874  21.098  0.00  0.00    +0.000 A 
ATOM     26  C   UNL     1       0.933   8.566  21.123  0.00  0.00    +0.000 A 
BRANCH  24  27
ATOM     27  O   UNL     1       0.147  11.930  19.985  0.00  0.00    +0.000 OA
ATOM     28  H   UNL     1       0.326  12.341  19.124  0.00  0.00    +0.000 HD
ENDBRANCH  24  27
ENDBRANCH  19  21
ENDBRANCH  15  16
ENDBRANCH   3  15
TORSDOF 7
ENDMDL
