MODEL 1
REMARK VINA RESULT:      -8.8      0.000      0.000
REMARK  Name = 
REMARK  8 active torsions:
REMARK  status: ('A' for Active; 'I' for Inactive)
REMARK    1  A    between atoms: C_1  and  O_2
REMARK    2  A    between atoms: O_2  and  C_3
REMARK    3  A    between atoms: C_6  and  C_7
REMARK    4  A    between atoms: N_8  and  N_9
REMARK    5  A    between atoms: C_10  and  C_12
REMARK    6  A    between atoms: C_12  and  C_13
REMARK    7  A    between atoms: C_12  and  C_14
REMARK    8  A    between atoms: C_17  and  C_18
REMARK                            x       y       z     vdW  Elec       q    Type
REMARK                         _______ _______ _______ _____ _____    ______ ____
ROOT
ATOM      1  C   UNL     1       3.538   5.586  19.638  0.00  0.00    +0.000 C 
ATOM      2  C   UNL     1       2.925   4.306  20.217  0.00  0.00    +0.000 C 
ENDROOT
BRANCH   1   3
ATOM      3  C   UNL     1       4.139   5.303  18.272  0.00  0.00    +0.000 A 
ATOM      4  C   UNL     1       4.425   3.995  17.864  0.00  0.00    +0.000 A 
ATOM      5  C   UNL     1       5.017   3.743  16.620  0.00  0.00    +0.000 A 
ATOM      6  C   UNL     1       5.325   4.780  15.719  0.00  0.00    +0.000 A 
ATOM      7  C   UNL     1       5.040   6.085  16.155  0.00  0.00    +0.000 A 
ATOM      8  F   UNL     1       5.298   7.143  15.370  0.00  0.00    +0.000 F 
ATOM      9  C   UNL     1       4.466   6.349  17.405  0.00  0.00    +0.000 A 
BRANCH   6  10
ATOM     10  C   UNL     1       5.910   4.478  14.388  0.00  0.00    +0.000 A 
ATOM     11  C   UNL     1       7.138   5.045  13.990  0.00  0.00    +0.000 A 
ATOM     12  C   UNL     1       7.697   4.789  12.735  0.00  0.00    +0.000 A 
ATOM     13  C   UNL     1       7.048   3.940  11.846  0.00  0.00    +0.000 A 
ATOM     14  C   UNL     1       5.841   3.355  12.213  0.00  0.00    +0.000 A 
ATOM     15  C   UNL     1       5.277   3.626  13.465  0.00  0.00    +0.000 A 
ENDBRANCH   6  10
ENDBRANCH   1   3
BRANCH   1  17
ATOM     16  N   UNL     1       2.058   7.142  20.829  0.00  0.00    +0.000 N 
ATOM     17  C   UNL     1       2.477   6.694  19.580  0.00  0.00    +0.000 C 
ATOM     18  O   UNL     1       2.063   7.136  18.509  0.00  0.00    +0.000 OA
ATOM     19  H   UNL     1       2.443   6.770  21.687  0.00  0.00    +0.000 HD
BRANCH  16  21
ATOM     20  C   UNL     1       1.114   8.930  21.870  0.00  0.00    +0.000 C 
ATOM     21  N   UNL     1       1.110   8.117  20.870  0.00  0.00    +0.000 NA
BRANCH  20  25
ATOM     22  C   UNL     1      -1.785  12.077  22.090  0.00  0.00    +0.000 A 
ATOM     23  C   UNL     1      -1.031  11.893  20.931  0.00  0.00    +0.000 A 
ATOM     24  C   UNL     1      -0.096  10.859  20.852  0.00  0.00    +0.000 A 
ATOM     25  C   UNL     1       0.106  10.013  21.949  0.00  0.00    +0.000 A 
ATOM     26  C   UNL     1      -0.635  10.200  23.117  0.00  0.00    +0.000 A 
ATOM     27  C   UNL     1      -1.580  11.235  23.186  0.00  0.00    +0.000 A 
BRANCH  22  29
ATOM     28  C   UNL     1      -4.035  12.810  22.036  0.00  0.00    +0.000 C 
ATOM     29  O   UNL     1      -2.649  13.136  22.053  0.00  0.00    +0.000 OA
ENDBRANCH  22  29
ENDBRANCH  20  25
ENDBRANCH  16  21
ENDBRANCH   1  17
TORSDOF 6
ENDMDL
MODEL 2
REMARK VINA RESULT:      -8.7      0.732      1.171
REMARK  Name = 
REMARK  8 active torsions:
REMARK  status: ('A' for Active; 'I' for Inactive)
REMARK    1  A    between atoms: C_1  and  O_2
REMARK    2  A    between atoms: O_2  and  C_3
REMARK    3  A    between atoms: C_6  and  C_7
REMARK    4  A    between atoms: N_8  and  N_9
REMARK    5  A    between atoms: C_10  and  C_12
REMARK    6  A    between atoms: C_12  and  C_13
REMARK    7  A    between atoms: C_12  and  C_14
REMARK    8  A    between atoms: C_17  and  C_18
REMARK                            x       y       z     vdW  Elec       q    Type
REMARK                         _______ _______ _______ _____ _____    ______ ____
ROOT
ATOM      1  C   UNL     1       3.586   5.291  19.671  0.00  0.00    +0.000 C 
ATOM      2  C   UNL     1       2.914   3.990  20.125  0.00  0.00    +0.000 C 
ENDROOT
BRANCH   1   3
ATOM      3  C   UNL     1       4.237   5.094  18.313  0.00  0.00    +0.000 A 
ATOM      4  C   UNL     1       3.716   4.183  17.386  0.00  0.00    +0.000 A 
ATOM      5  C   UNL     1       4.344   3.976  16.152  0.00  0.00    +0.000 A 
ATOM      6  C   UNL     1       5.502   4.685  15.777  0.00  0.00    +0.000 A 
ATOM      7  C   UNL     1       6.013   5.585  16.728  0.00  0.00    +0.000 A 
ATOM      8  F   UNL     1       7.113   6.308  16.467  0.00  0.00    +0.000 F 
ATOM      9  C   UNL     1       5.403   5.785  17.973  0.00  0.00    +0.000 A 
BRANCH   6  10
ATOM     10  C   UNL     1       6.118   4.478  14.442  0.00  0.00    +0.000 A 
ATOM     11  C   UNL     1       7.265   5.199  14.054  0.00  0.00    +0.000 A 
ATOM     12  C   UNL     1       7.851   5.033  12.795  0.00  0.00    +0.000 A 
ATOM     13  C   UNL     1       7.312   4.123  11.894  0.00  0.00    +0.000 A 
ATOM     14  C   UNL     1       6.187   3.386  12.251  0.00  0.00    +0.000 A 
ATOM     15  C   UNL     1       5.595   3.567  13.506  0.00  0.00    +0.000 A 
ENDBRANCH   6  10
ENDBRANCH   1   3
BRANCH   1  17
ATOM     16  N   UNL     1       1.989   6.696  20.897  0.00  0.00    +0.000 N 
ATOM     17  C   UNL     1       2.560   6.432  19.656  0.00  0.00    +0.000 C 
ATOM     18  O   UNL     1       2.296   7.050  18.625  0.00  0.00    +0.000 OA
ATOM     19  H   UNL     1       2.253   6.182  21.727  0.00  0.00    +0.000 HD
BRANCH  16  21
ATOM     20  C   UNL     1       1.288   8.679  21.762  0.00  0.00    +0.000 C 
ATOM     21  N   UNL     1       1.059   7.687  20.972  0.00  0.00    +0.000 NA
BRANCH  20  25
ATOM     22  C   UNL     1      -1.564  11.862  22.069  0.00  0.00    +0.000 A 
ATOM     23  C   UNL     1      -1.374  10.981  23.134  0.00  0.00    +0.000 A 
ATOM     24  C   UNL     1      -0.435   9.952  23.041  0.00  0.00    +0.000 A 
ATOM     25  C   UNL     1       0.307   9.785  21.866  0.00  0.00    +0.000 A 
ATOM     26  C   UNL     1       0.112  10.654  20.791  0.00  0.00    +0.000 A 
ATOM     27  C   UNL     1      -0.826  11.693  20.895  0.00  0.00    +0.000 A 
BRANCH  22  29
ATOM     28  C   UNL     1      -2.788  13.679  21.175  0.00  0.00    +0.000 C 
ATOM     29  O   UNL     1      -2.527  12.812  22.272  0.00  0.00    +0.000 OA
ENDBRANCH  22  29
ENDBRANCH  20  25
ENDBRANCH  16  21
ENDBRANCH   1  17
TORSDOF 6
ENDMDL
MODEL 3
REMARK VINA RESULT:      -8.6      1.663      2.212
REMARK  Name = 
REMARK  8 active torsions:
REMARK  status: ('A' for Active; 'I' for Inactive)
REMARK    1  A    between atoms: C_1  and  O_2
REMARK    2  A    between atoms: O_2  and  C_3
REMARK    3  A    between atoms: C_6  and  C_7
REMARK    4  A    between atoms: N_8  and  N_9
REMARK    5  A    between atoms: C_10  and  C_12
REMARK    6  A    between atoms: C_12  and  C_13
REMARK    7  A    between atoms: C_12  and  C_14
REMARK    8  A    between atoms: C_17  and  C_18
REMARK                            x       y       z     vdW  Elec       q    Type
REMARK                         _______ _______ _______ _____ _____    ______ ____
ROOT
ATOM      1  C   UNL     1       3.747   4.102  19.921  0.00  0.00    +0.000 C 
ATOM      2  C   UNL     1       3.274   2.670  20.197  0.00  0.00    +0.000 C 
ENDROOT
BRANCH   1   3
ATOM      3  C   UNL     1       4.388   4.181  18.545  0.00  0.00    +0.000 A 
ATOM      4  C   UNL     1       3.623   4.047  17.381  0.00  0.00    +0.000 A 
ATOM      5  C   UNL     1       4.227   4.081  16.118  0.00  0.00    +0.000 A 
ATOM      6  C   UNL     1       5.612   4.275  15.959  0.00  0.00    +0.000 A 
ATOM      7  C   UNL     1       6.361   4.395  17.142  0.00  0.00    +0.000 A 
ATOM      8  F   UNL     1       7.689   4.582  17.098  0.00  0.00    +0.000 F 
ATOM      9  C   UNL     1       5.770   4.344  18.411  0.00  0.00    +0.000 A 
BRANCH   6  10
ATOM     10  C   UNL     1       6.216   4.352  14.605  0.00  0.00    +0.000 A 
ATOM     11  C   UNL     1       5.733   3.550  13.550  0.00  0.00    +0.000 A 
ATOM     12  C   UNL     1       6.299   3.593  12.272  0.00  0.00    +0.000 A 
ATOM     13  C   UNL     1       7.356   4.457  12.010  0.00  0.00    +0.000 A 
ATOM     14  C   UNL     1       7.847   5.270  13.025  0.00  0.00    +0.000 A 
ATOM     15  C   UNL     1       7.287   5.213  14.307  0.00  0.00    +0.000 A 
ENDBRANCH   6  10
ENDBRANCH   1   3
BRANCH   1  17
ATOM     16  N   UNL     1       2.947   6.418  20.076  0.00  0.00    +0.000 N 
ATOM     17  C   UNL     1       2.572   5.079  20.063  0.00  0.00    +0.000 C 
ATOM     18  O   UNL     1       1.409   4.683  20.144  0.00  0.00    +0.000 OA
ATOM     19  H   UNL     1       3.913   6.703  19.981  0.00  0.00    +0.000 HD
BRANCH  16  21
ATOM     20  C   UNL     1       1.931   8.324  19.364  0.00  0.00    +0.000 C 
ATOM     21  N   UNL     1       1.968   7.353  20.211  0.00  0.00    +0.000 NA
BRANCH  20  25
ATOM     22  C   UNL     1      -1.113  11.325  19.648  0.00  0.00    +0.000 A 
ATOM     23  C   UNL     1      -0.671  10.886  18.400  0.00  0.00    +0.000 A 
ATOM     24  C   UNL     1       0.311   9.898  18.305  0.00  0.00    +0.000 A 
ATOM     25  C   UNL     1       0.874   9.357  19.467  0.00  0.00    +0.000 A 
ATOM     26  C   UNL     1       0.446   9.802  20.720  0.00  0.00    +0.000 A 
ATOM     27  C   UNL     1      -0.549  10.788  20.807  0.00  0.00    +0.000 A 
BRANCH  22  29
ATOM     28  C   UNL     1      -2.686  12.624  20.849  0.00  0.00    +0.000 C 
ATOM     29  O   UNL     1      -2.060  12.311  19.609  0.00  0.00    +0.000 OA
ENDBRANCH  22  29
ENDBRANCH  20  25
ENDBRANCH  16  21
ENDBRANCH   1  17
TORSDOF 6
ENDMDL
MODEL 4
REMARK VINA RESULT:      -8.6      1.815      2.519
REMARK  Name = 
REMARK  8 active torsions:
REMARK  status: ('A' for Active; 'I' for Inactive)
REMARK    1  A    between atoms: C_1  and  O_2
REMARK    2  A    between atoms: O_2  and  C_3
REMARK    3  A    between atoms: C_6  and  C_7
REMARK    4  A    between atoms: N_8  and  N_9
REMARK    5  A    between atoms: C_10  and  C_12
REMARK    6  A    between atoms: C_12  and  C_13
REMARK    7  A    between atoms: C_12  and  C_14
REMARK    8  A    between atoms: C_17  and  C_18
REMARK                            x       y       z     vdW  Elec       q    Type
REMARK                         _______ _______ _______ _____ _____    ______ ____
ROOT
ATOM      1  C   UNL     1       3.949   4.022  19.894  0.00  0.00    +0.000 C 
ATOM      2  C   UNL     1       3.492   2.585  20.173  0.00  0.00    +0.000 C 
ENDROOT
BRANCH   1   3
ATOM      3  C   UNL     1       4.551   4.114  18.501  0.00  0.00    +0.000 A 
ATOM      4  C   UNL     1       3.771   3.890  17.360  0.00  0.00    +0.000 A 
ATOM      5  C   UNL     1       4.340   3.937  16.081  0.00  0.00    +0.000 A 
ATOM      6  C   UNL     1       5.702   4.233  15.883  0.00  0.00    +0.000 A 
ATOM      7  C   UNL     1       6.467   4.442  17.043  0.00  0.00    +0.000 A 
ATOM      8  F   UNL     1       7.776   4.730  16.961  0.00  0.00    +0.000 F 
ATOM      9  C   UNL     1       5.912   4.379  18.328  0.00  0.00    +0.000 A 
BRANCH   6  10
ATOM     10  C   UNL     1       6.266   4.321  14.512  0.00  0.00    +0.000 A 
ATOM     11  C   UNL     1       5.782   3.497  13.475  0.00  0.00    +0.000 A 
ATOM     12  C   UNL     1       6.311   3.551  12.182  0.00  0.00    +0.000 A 
ATOM     13  C   UNL     1       7.332   4.446  11.887  0.00  0.00    +0.000 A 
ATOM     14  C   UNL     1       7.823   5.281  12.884  0.00  0.00    +0.000 A 
ATOM     15  C   UNL     1       7.301   5.214  14.181  0.00  0.00    +0.000 A 
ENDBRANCH   6  10
ENDBRANCH   1   3
BRANCH   1  17
ATOM     16  N   UNL     1       3.105   6.326  19.874  0.00  0.00    +0.000 N 
ATOM     17  C   UNL     1       2.774   4.991  20.077  0.00  0.00    +0.000 C 
ATOM     18  O   UNL     1       1.646   4.591  20.365  0.00  0.00    +0.000 OA
ATOM     19  H   UNL     1       4.040   6.612  19.613  0.00  0.00    +0.000 HD
BRANCH  16  21
ATOM     20  C   UNL     1       2.024   8.190  19.145  0.00  0.00    +0.000 C 
ATOM     21  N   UNL     1       2.124   7.256  20.028  0.00  0.00    +0.000 NA
BRANCH  20  25
ATOM     22  C   UNL     1      -1.056  11.144  19.516  0.00  0.00    +0.000 A 
ATOM     23  C   UNL     1      -0.468  10.594  20.654  0.00  0.00    +0.000 A 
ATOM     24  C   UNL     1       0.547   9.642  20.536  0.00  0.00    +0.000 A 
ATOM     25  C   UNL     1       0.963   9.217  19.268  0.00  0.00    +0.000 A 
ATOM     26  C   UNL     1       0.368   9.752  18.124  0.00  0.00    +0.000 A 
ATOM     27  C   UNL     1      -0.644  10.716  18.251  0.00  0.00    +0.000 A 
BRANCH  22  29
ATOM     28  C   UNL     1      -3.216  11.931  18.950  0.00  0.00    +0.000 C 
ATOM     29  O   UNL     1      -2.053  12.048  19.762  0.00  0.00    +0.000 OA
ENDBRANCH  22  29
ENDBRANCH  20  25
ENDBRANCH  16  21
ENDBRANCH   1  17
TORSDOF 6
ENDMDL
MODEL 5
REMARK VINA RESULT:      -8.6      0.988      1.027
REMARK  Name = 
REMARK  8 active torsions:
REMARK  status: ('A' for Active; 'I' for Inactive)
REMARK    1  A    between atoms: C_1  and  O_2
REMARK    2  A    between atoms: O_2  and  C_3
REMARK    3  A    between atoms: C_6  and  C_7
REMARK    4  A    between atoms: N_8  and  N_9
REMARK    5  A    between atoms: C_10  and  C_12
REMARK    6  A    between atoms: C_12  and  C_13
REMARK    7  A    between atoms: C_12  and  C_14
REMARK    8  A    between atoms: C_17  and  C_18
REMARK                            x       y       z     vdW  Elec       q    Type
REMARK                         _______ _______ _______ _____ _____    ______ ____
ROOT
ATOM      1  C   UNL     1       3.596   5.250  19.681  0.00  0.00    +0.000 C 
ATOM      2  C   UNL     1       2.795   3.996  20.051  0.00  0.00    +0.000 C 
ENDROOT
BRANCH   1   3
ATOM      3  C   UNL     1       4.242   5.071  18.317  0.00  0.00    +0.000 A 
ATOM      4  C   UNL     1       3.656   4.259  17.340  0.00  0.00    +0.000 A 
ATOM      5  C   UNL     1       4.277   4.066  16.100  0.00  0.00    +0.000 A 
ATOM      6  C   UNL     1       5.494   4.693  15.771  0.00  0.00    +0.000 A 
ATOM      7  C   UNL     1       6.069   5.494  16.771  0.00  0.00    +0.000 A 
ATOM      8  F   UNL     1       7.229   6.134  16.557  0.00  0.00    +0.000 F 
ATOM      9  C   UNL     1       5.466   5.678  18.022  0.00  0.00    +0.000 A 
BRANCH   6  10
ATOM     10  C   UNL     1       6.104   4.506  14.430  0.00  0.00    +0.000 A 
ATOM     11  C   UNL     1       7.253   5.229  14.049  0.00  0.00    +0.000 A 
ATOM     12  C   UNL     1       7.833   5.081  12.786  0.00  0.00    +0.000 A 
ATOM     13  C   UNL     1       7.286   4.189  11.871  0.00  0.00    +0.000 A 
ATOM     14  C   UNL     1       6.159   3.452  12.220  0.00  0.00    +0.000 A 
ATOM     15  C   UNL     1       5.573   3.613  13.481  0.00  0.00    +0.000 A 
ENDBRANCH   6  10
ENDBRANCH   1   3
BRANCH   1  17
ATOM     16  N   UNL     1       1.961   6.608  20.909  0.00  0.00    +0.000 N 
ATOM     17  C   UNL     1       2.687   6.484  19.729  0.00  0.00    +0.000 C 
ATOM     18  O   UNL     1       2.636   7.285  18.795  0.00  0.00    +0.000 OA
ATOM     19  H   UNL     1       2.051   5.941  21.664  0.00  0.00    +0.000 HD
BRANCH  16  21
ATOM     20  C   UNL     1       1.471   8.642  21.801  0.00  0.00    +0.000 C 
ATOM     21  N   UNL     1       1.120   7.670  21.031  0.00  0.00    +0.000 NA
BRANCH  20  25
ATOM     22  C   UNL     1      -1.058  12.071  22.243  0.00  0.00    +0.000 A 
ATOM     23  C   UNL     1      -0.040  12.065  21.291  0.00  0.00    +0.000 A 
ATOM     24  C   UNL     1       0.777  10.943  21.135  0.00  0.00    +0.000 A 
ATOM     25  C   UNL     1       0.590   9.823  21.954  0.00  0.00    +0.000 A 
ATOM     26  C   UNL     1      -0.419   9.827  22.919  0.00  0.00    +0.000 A 
ATOM     27  C   UNL     1      -1.242  10.954  23.063  0.00  0.00    +0.000 A 
BRANCH  22  29
ATOM     28  C   UNL     1      -1.116  14.332  22.939  0.00  0.00    +0.000 C 
ATOM     29  O   UNL     1      -1.773  13.234  22.315  0.00  0.00    +0.000 OA
ENDBRANCH  22  29
ENDBRANCH  20  25
ENDBRANCH  16  21
ENDBRANCH   1  17
TORSDOF 6
ENDMDL
MODEL 6
REMARK VINA RESULT:      -8.5      0.750      1.489
REMARK  Name = 
REMARK  8 active torsions:
REMARK  status: ('A' for Active; 'I' for Inactive)
REMARK    1  A    between atoms: C_1  and  O_2
REMARK    2  A    between atoms: O_2  and  C_3
REMARK    3  A    between atoms: C_6  and  C_7
REMARK    4  A    between atoms: N_8  and  N_9
REMARK    5  A    between atoms: C_10  and  C_12
REMARK    6  A    between atoms: C_12  and  C_13
REMARK    7  A    between atoms: C_12  and  C_14
REMARK    8  A    between atoms: C_17  and  C_18
REMARK                            x       y       z     vdW  Elec       q    Type
REMARK                         _______ _______ _______ _____ _____    ______ ____
ROOT
ATOM      1  C   UNL     1       3.543   5.506  19.590  0.00  0.00    +0.000 C 
ATOM      2  C   UNL     1       2.871   4.212  20.066  0.00  0.00    +0.000 C 
ENDROOT
BRANCH   1   3
ATOM      3  C   UNL     1       4.215   5.278  18.246  0.00  0.00    +0.000 A 
ATOM      4  C   UNL     1       3.717   4.337  17.338  0.00  0.00    +0.000 A 
ATOM      5  C   UNL     1       4.365   4.103  16.119  0.00  0.00    +0.000 A 
ATOM      6  C   UNL     1       5.520   4.814  15.741  0.00  0.00    +0.000 A 
ATOM      7  C   UNL     1       6.008   5.745  16.673  0.00  0.00    +0.000 A 
ATOM      8  F   UNL     1       7.104   6.473  16.408  0.00  0.00    +0.000 F 
ATOM      9  C   UNL     1       5.379   5.973  17.904  0.00  0.00    +0.000 A 
BRANCH   6  10
ATOM     10  C   UNL     1       6.158   4.577  14.421  0.00  0.00    +0.000 A 
ATOM     11  C   UNL     1       5.597   3.670  13.498  0.00  0.00    +0.000 A 
ATOM     12  C   UNL     1       6.191   3.418  12.258  0.00  0.00    +0.000 A 
ATOM     13  C   UNL     1       7.357   4.083  11.899  0.00  0.00    +0.000 A 
ATOM     14  C   UNL     1       7.929   4.992  12.781  0.00  0.00    +0.000 A 
ATOM     15  C   UNL     1       7.339   5.231  14.028  0.00  0.00    +0.000 A 
ENDBRANCH   6  10
ENDBRANCH   1   3
BRANCH   1  17
ATOM     16  N   UNL     1       2.123   7.117  20.779  0.00  0.00    +0.000 N 
ATOM     17  C   UNL     1       2.512   6.640  19.531  0.00  0.00    +0.000 C 
ATOM     18  O   UNL     1       2.094   7.079  18.460  0.00  0.00    +0.000 OA
ATOM     19  H   UNL     1       2.511   6.747  21.637  0.00  0.00    +0.000 HD
BRANCH  16  21
ATOM     20  C   UNL     1       1.110   8.818  21.898  0.00  0.00    +0.000 C 
ATOM     21  N   UNL     1       1.202   8.117  20.820  0.00  0.00    +0.000 NA
BRANCH  20  25
ATOM     22  C   UNL     1      -1.744  12.003  22.147  0.00  0.00    +0.000 A 
ATOM     23  C   UNL     1      -1.503  11.186  23.251  0.00  0.00    +0.000 A 
ATOM     24  C   UNL     1      -0.562  10.156  23.177  0.00  0.00    +0.000 A 
ATOM     25  C   UNL     1       0.128   9.925  21.981  0.00  0.00    +0.000 A 
ATOM     26  C   UNL     1      -0.119  10.730  20.867  0.00  0.00    +0.000 A 
ATOM     27  C   UNL     1      -1.058  11.769  20.953  0.00  0.00    +0.000 A 
BRANCH  22  29
ATOM     28  C   UNL     1      -2.281  14.140  23.011  0.00  0.00    +0.000 C 
ATOM     29  O   UNL     1      -2.703  12.960  22.337  0.00  0.00    +0.000 OA
ENDBRANCH  22  29
ENDBRANCH  20  25
ENDBRANCH  16  21
ENDBRANCH   1  17
TORSDOF 6
ENDMDL
MODEL 7
REMARK VINA RESULT:      -8.5      1.348      1.917
REMARK  Name = 
REMARK  8 active torsions:
REMARK  status: ('A' for Active; 'I' for Inactive)
REMARK    1  A    between atoms: C_1  and  O_2
REMARK    2  A    between atoms: O_2  and  C_3
REMARK    3  A    between atoms: C_6  and  C_7
REMARK    4  A    between atoms: N_8  and  N_9
REMARK    5  A    between atoms: C_10  and  C_12
REMARK    6  A    between atoms: C_12  and  C_13
REMARK    7  A    between atoms: C_12  and  C_14
REMARK    8  A    between atoms: C_17  and  C_18
REMARK                            x       y       z     vdW  Elec       q    Type
REMARK                         _______ _______ _______ _____ _____    ______ ____
ROOT
ATOM      1  C   UNL     1       3.337   4.286  20.099  0.00  0.00    +0.000 C 
ATOM      2  C   UNL     1       2.715   2.907  20.353  0.00  0.00    +0.000 C 
ENDROOT
BRANCH   1   3
ATOM      3  C   UNL     1       4.013   4.309  18.738  0.00  0.00    +0.000 A 
ATOM      4  C   UNL     1       3.355   3.839  17.596  0.00  0.00    +0.000 A 
ATOM      5  C   UNL     1       3.998   3.826  16.352  0.00  0.00    +0.000 A 
ATOM      6  C   UNL     1       5.313   4.303  16.188  0.00  0.00    +0.000 A 
ATOM      7  C   UNL     1       5.956   4.759  17.350  0.00  0.00    +0.000 A 
ATOM      8  F   UNL     1       7.211   5.233  17.300  0.00  0.00    +0.000 F 
ATOM      9  C   UNL     1       5.329   4.759  18.603  0.00  0.00    +0.000 A 
BRANCH   6  10
ATOM     10  C   UNL     1       5.951   4.319  14.847  0.00  0.00    +0.000 A 
ATOM     11  C   UNL     1       5.400   3.589  13.774  0.00  0.00    +0.000 A 
ATOM     12  C   UNL     1       5.995   3.575  12.509  0.00  0.00    +0.000 A 
ATOM     13  C   UNL     1       7.152   4.309  12.278  0.00  0.00    +0.000 A 
ATOM     14  C   UNL     1       7.713   5.050  13.312  0.00  0.00    +0.000 A 
ATOM     15  C   UNL     1       7.123   5.049  14.581  0.00  0.00    +0.000 A 
ENDBRANCH   6  10
ENDBRANCH   1   3
BRANCH   1  17
ATOM     16  N   UNL     1       2.723   6.657  19.942  0.00  0.00    +0.000 N 
ATOM     17  C   UNL     1       2.264   5.375  20.227  0.00  0.00    +0.000 C 
ATOM     18  O   UNL     1       1.105   5.107  20.542  0.00  0.00    +0.000 OA
ATOM     19  H   UNL     1       3.679   6.833  19.661  0.00  0.00    +0.000 HD
BRANCH  16  21
ATOM     20  C   UNL     1       1.542   8.124  21.217  0.00  0.00    +0.000 C 
ATOM     21  N   UNL     1       1.839   7.687  20.042  0.00  0.00    +0.000 NA
BRANCH  20  25
ATOM     22  C   UNL     1      -1.217  11.370  21.673  0.00  0.00    +0.000 A 
ATOM     23  C   UNL     1      -0.761  10.671  22.790  0.00  0.00    +0.000 A 
ATOM     24  C   UNL     1       0.149   9.622  22.646  0.00  0.00    +0.000 A 
ATOM     25  C   UNL     1       0.592   9.252  21.370  0.00  0.00    +0.000 A 
ATOM     26  C   UNL     1       0.130   9.938  20.246  0.00  0.00    +0.000 A 
ATOM     27  C   UNL     1      -0.777  10.998  20.400  0.00  0.00    +0.000 A 
BRANCH  22  29
ATOM     28  C   UNL     1      -2.203  12.777  23.301  0.00  0.00    +0.000 C 
ATOM     29  O   UNL     1      -2.122  12.359  21.942  0.00  0.00    +0.000 OA
ENDBRANCH  22  29
ENDBRANCH  20  25
ENDBRANCH  16  21
ENDBRANCH   1  17
TORSDOF 6
ENDMDL
MODEL 8
REMARK VINA RESULT:      -8.4      1.850      2.223
REMARK  Name = 
REMARK  8 active torsions:
REMARK  status: ('A' for Active; 'I' for Inactive)
REMARK    1  A    between atoms: C_1  and  O_2
REMARK    2  A    between atoms: O_2  and  C_3
REMARK    3  A    between atoms: C_6  and  C_7
REMARK    4  A    between atoms: N_8  and  N_9
REMARK    5  A    between atoms: C_10  and  C_12
REMARK    6  A    between atoms: C_12  and  C_13
REMARK    7  A    between atoms: C_12  and  C_14
REMARK    8  A    between atoms: C_17  and  C_18
REMARK                            x       y       z     vdW  Elec       q    Type
REMARK                         _______ _______ _______ _____ _____    ______ ____
ROOT
ATOM      1  C   UNL     1       3.915   3.842  19.861  0.00  0.00    +0.000 C 
ATOM      2  C   UNL     1       3.403   2.415  20.086  0.00  0.00    +0.000 C 
ENDROOT
BRANCH   1   3
ATOM      3  C   UNL     1       4.518   3.965  18.471  0.00  0.00    +0.000 A 
ATOM      4  C   UNL     1       3.745   3.745  17.325  0.00  0.00    +0.000 A 
ATOM      5  C   UNL     1       4.317   3.820  16.049  0.00  0.00    +0.000 A 
ATOM      6  C   UNL     1       5.674   4.143  15.858  0.00  0.00    +0.000 A 
ATOM      7  C   UNL     1       6.432   4.348  17.023  0.00  0.00    +0.000 A 
ATOM      8  F   UNL     1       7.735   4.660  16.948  0.00  0.00    +0.000 F 
ATOM      9  C   UNL     1       5.875   4.257  18.305  0.00  0.00    +0.000 A 
BRANCH   6  10
ATOM     10  C   UNL     1       6.239   4.261  14.490  0.00  0.00    +0.000 A 
ATOM     11  C   UNL     1       7.284   5.166  14.214  0.00  0.00    +0.000 A 
ATOM     12  C   UNL     1       7.819   5.306  12.929  0.00  0.00    +0.000 A 
ATOM     13  C   UNL     1       7.331   4.528  11.886  0.00  0.00    +0.000 A 
ATOM     14  C   UNL     1       6.309   3.617  12.128  0.00  0.00    +0.000 A 
ATOM     15  C   UNL     1       5.766   3.490  13.412  0.00  0.00    +0.000 A 
ENDBRANCH   6  10
ENDBRANCH   1   3
BRANCH   1  17
ATOM     16  N   UNL     1       3.157   6.176  19.914  0.00  0.00    +0.000 N 
ATOM     17  C   UNL     1       2.779   4.848  20.085  0.00  0.00    +0.000 C 
ATOM     18  O   UNL     1       1.640   4.482  20.376  0.00  0.00    +0.000 OA
ATOM     19  H   UNL     1       4.098   6.434  19.648  0.00  0.00    +0.000 HD
BRANCH  16  21
ATOM     20  C   UNL     1       2.093   8.061  19.215  0.00  0.00    +0.000 C 
ATOM     21  N   UNL     1       2.212   7.136  20.105  0.00  0.00    +0.000 NA
BRANCH  20  25
ATOM     22  C   UNL     1      -0.854  11.136  19.673  0.00  0.00    +0.000 A 
ATOM     23  C   UNL     1      -0.329  10.846  18.414  0.00  0.00    +0.000 A 
ATOM     24  C   UNL     1       0.621   9.835  18.260  0.00  0.00    +0.000 A 
ATOM     25  C   UNL     1       1.069   9.120  19.377  0.00  0.00    +0.000 A 
ATOM     26  C   UNL     1       0.558   9.414  20.643  0.00  0.00    +0.000 A 
ATOM     27  C   UNL     1      -0.404  10.425  20.789  0.00  0.00    +0.000 A 
BRANCH  22  29
ATOM     28  C   UNL     1      -1.211  13.476  19.704  0.00  0.00    +0.000 C 
ATOM     29  O   UNL     1      -1.758  12.162  19.698  0.00  0.00    +0.000 OA
ENDBRANCH  22  29
ENDBRANCH  20  25
ENDBRANCH  16  21
ENDBRANCH   1  17
TORSDOF 6
ENDMDL
MODEL 9
REMARK VINA RESULT:      -8.4      0.980      1.612
REMARK  Name = 
REMARK  8 active torsions:
REMARK  status: ('A' for Active; 'I' for Inactive)
REMARK    1  A    between atoms: C_1  and  O_2
REMARK    2  A    between atoms: O_2  and  C_3
REMARK    3  A    between atoms: C_6  and  C_7
REMARK    4  A    between atoms: N_8  and  N_9
REMARK    5  A    between atoms: C_10  and  C_12
REMARK    6  A    between atoms: C_12  and  C_13
REMARK    7  A    between atoms: C_12  and  C_14
REMARK    8  A    between atoms: C_17  and  C_18
REMARK                            x       y       z     vdW  Elec       q    Type
REMARK                         _______ _______ _______ _____ _____    ______ ____
ROOT
ATOM      1  C   UNL     1       3.374   5.853  19.629  0.00  0.00    +0.000 C 
ATOM      2  C   UNL     1       2.607   4.628  20.139  0.00  0.00    +0.000 C 
ENDROOT
BRANCH   1   3
ATOM      3  C   UNL     1       4.047   5.530  18.305  0.00  0.00    +0.000 A 
ATOM      4  C   UNL     1       4.467   6.548  17.441  0.00  0.00    +0.000 A 
ATOM      5  C   UNL     1       5.049   6.243  16.204  0.00  0.00    +0.000 A 
ATOM      6  C   UNL     1       5.263   4.915  15.788  0.00  0.00    +0.000 A 
ATOM      7  C   UNL     1       4.823   3.912  16.667  0.00  0.00    +0.000 A 
ATOM      8  F   UNL     1       4.980   2.614  16.362  0.00  0.00    +0.000 F 
ATOM      9  C   UNL     1       4.222   4.205  17.898  0.00  0.00    +0.000 A 
BRANCH   6  10
ATOM     10  C   UNL     1       5.926   4.625  14.491  0.00  0.00    +0.000 A 
ATOM     11  C   UNL     1       7.167   5.209  14.165  0.00  0.00    +0.000 A 
ATOM     12  C   UNL     1       7.800   4.964  12.943  0.00  0.00    +0.000 A 
ATOM     13  C   UNL     1       7.212   4.111  12.016  0.00  0.00    +0.000 A 
ATOM     14  C   UNL     1       5.994   3.510  12.311  0.00  0.00    +0.000 A 
ATOM     15  C   UNL     1       5.356   3.769  13.531  0.00  0.00    +0.000 A 
ENDBRANCH   6  10
ENDBRANCH   1   3
BRANCH   1  17
ATOM     16  N   UNL     1       2.087   7.625  20.736  0.00  0.00    +0.000 N 
ATOM     17  C   UNL     1       2.427   7.054  19.514  0.00  0.00    +0.000 C 
ATOM     18  O   UNL     1       2.030   7.462  18.423  0.00  0.00    +0.000 OA
ATOM     19  H   UNL     1       2.456   7.276  21.611  0.00  0.00    +0.000 HD
BRANCH  16  21
ATOM     20  C   UNL     1       0.603   8.972  21.812  0.00  0.00    +0.000 C 
ATOM     21  N   UNL     1       1.240   8.691  20.728  0.00  0.00    +0.000 NA
BRANCH  20  25
ATOM     22  C   UNL     1      -2.082  12.309  21.932  0.00  0.00    +0.000 A 
ATOM     23  C   UNL     1      -1.804  11.586  23.092  0.00  0.00    +0.000 A 
ATOM     24  C   UNL     1      -0.918  10.507  23.059  0.00  0.00    +0.000 A 
ATOM     25  C   UNL     1      -0.320  10.131  21.850  0.00  0.00    +0.000 A 
ATOM     26  C   UNL     1      -0.605  10.840  20.682  0.00  0.00    +0.000 A 
ATOM     27  C   UNL     1      -1.488  11.930  20.725  0.00  0.00    +0.000 A 
BRANCH  22  29
ATOM     28  C   UNL     1      -3.788  13.271  23.261  0.00  0.00    +0.000 C 
ATOM     29  O   UNL     1      -2.981  13.327  22.089  0.00  0.00    +0.000 OA
ENDBRANCH  22  29
ENDBRANCH  20  25
ENDBRANCH  16  21
ENDBRANCH   1  17
TORSDOF 6
ENDMDL
