MODEL 1
REMARK VINA RESULT:      -9.0      0.000      0.000
REMARK  Name = 
REMARK  11 active torsions:
REMARK  status: ('A' for Active; 'I' for Inactive)
REMARK    1  A    between atoms: C_2  and  C_3
REMARK    2  A    between atoms: C_3  and  O_4
REMARK    3  A    between atoms: O_4  and  N_5
REMARK    4  A    between atoms: C_6  and  C_8
REMARK    5  A    between atoms: C_8  and  C_10
REMARK    6  A    between atoms: C_10  and  C_11
REMARK    7  A    between atoms: C_10  and  N_18
REMARK    8  A    between atoms: C_11  and  C_12
REMARK    9  A    between atoms: C_19  and  C_21
REMARK   10  A    between atoms: C_26  and  N_27
REMARK   11  A    between atoms: C_30  and  C_31
REMARK                            x       y       z     vdW  Elec       q    Type
REMARK                         _______ _______ _______ _____ _____    ______ ____
ROOT
ATOM      1  N   UNL     1       3.613   6.254  17.433  0.00  0.00    +0.000 N 
ATOM      2  C   UNL     1       4.695   5.407  17.557  0.00  0.00    +0.000 C 
ATOM      3  O   UNL     1       4.915   4.762  18.572  0.00  0.00    +0.000 OA
ATOM      4  H   UNL     1       3.494   6.787  16.583  0.00  0.00    +0.000 HD
ENDROOT
BRANCH   2   5
ATOM      5  C   UNL     1       5.526   5.258  16.325  0.00  0.00    +0.000 A 
ATOM      6  C   UNL     1       5.019   4.445  15.293  0.00  0.00    +0.000 A 
ATOM      7  C   UNL     1       5.767   4.206  14.143  0.00  0.00    +0.000 A 
ATOM      8  C   UNL     1       7.031   4.751  14.065  0.00  0.00    +0.000 A 
ATOM      9  N   UNL     1       7.586   5.478  15.057  0.00  0.00    +0.000 NA
ATOM     10  C   UNL     1       6.823   5.745  16.171  0.00  0.00    +0.000 A 
BRANCH  10  11
ATOM     11  N   UNL     1       7.458   6.553  17.163  0.00  0.00    +0.000 N 
ATOM     12  C   UNL     1       7.818   6.107  18.420  0.00  0.00    +0.000 A 
ATOM     13  C   UNL     1       8.292   7.200  19.096  0.00  0.00    +0.000 A 
ATOM     14  C   UNL     1       8.280   8.258  18.156  0.00  0.00    +0.000 A 
ATOM     15  N   UNL     1       7.854   7.834  16.959  0.00  0.00    +0.000 NA
BRANCH  14  16
ATOM     16  C   UNL     1       8.637   9.654  18.400  0.00  0.00    +0.000 A 
ATOM     17  C   UNL     1       9.325  10.014  19.565  0.00  0.00    +0.000 A 
ATOM     18  C   UNL     1       9.585  11.356  19.855  0.00  0.00    +0.000 A 
ATOM     19  C   UNL     1       9.158  12.350  18.977  0.00  0.00    +0.000 A 
ATOM     20  C   UNL     1       8.490  12.006  17.803  0.00  0.00    +0.000 A 
ATOM     21  C   UNL     1       8.233  10.663  17.510  0.00  0.00    +0.000 A 
ENDBRANCH  14  16
ENDBRANCH  10  11
ENDBRANCH   2   5
BRANCH   1  22
ATOM     22  C   UNL     1       2.770   6.622  18.582  0.00  0.00    +0.000 C 
BRANCH  22  23
ATOM     23  C   UNL     1       2.338   8.089  18.420  0.00  0.00    +0.000 C 
ATOM     24  O   UNL     1       2.511   8.777  17.416  0.00  0.00    +0.000 OA
BRANCH  23  26
ATOM     25  N   UNL     1       0.737   9.723  19.216  0.00  0.00    +0.000 N 
ATOM     26  C   UNL     1       1.585   8.713  19.597  0.00  0.00    +0.000 C 
ATOM     27  O   UNL     1       1.749   8.285  20.728  0.00  0.00    +0.000 OA
ATOM     28  H   UNL     1       0.732  10.105  18.274  0.00  0.00    +0.000 HD
BRANCH  25  29
ATOM     29  O   UNL     1      -0.064  10.286  20.233  0.00  0.00    +0.000 OA
BRANCH  29  30
ATOM     30  C   UNL     1       0.002  11.709  20.192  0.00  0.00    +0.000 C 
BRANCH  30  32
ATOM     31  C   UNL     1      -0.321  13.314  18.280  0.00  0.00    +0.000 C 
ATOM     32  C   UNL     1       0.053  12.118  18.752  0.00  0.00    +0.000 C 
ENDBRANCH  30  32
ENDBRANCH  29  30
ENDBRANCH  25  29
ENDBRANCH  23  26
ENDBRANCH  22  23
BRANCH  22  33
ATOM     33  C   UNL     1       1.547   5.689  18.637  0.00  0.00    +0.000 C 
BRANCH  33  34
ATOM     34  C   UNL     1       1.705   4.501  19.563  0.00  0.00    +0.000 A 
ATOM     35  C   UNL     1       2.105   4.675  20.896  0.00  0.00    +0.000 A 
ATOM     36  C   UNL     1       2.185   3.582  21.761  0.00  0.00    +0.000 A 
ATOM     37  C   UNL     1       1.867   2.304  21.303  0.00  0.00    +0.000 A 
ATOM     38  C   UNL     1       1.478   2.119  19.978  0.00  0.00    +0.000 A 
ATOM     39  C   UNL     1       1.395   3.210  19.113  0.00  0.00    +0.000 A 
ENDBRANCH  33  34
ENDBRANCH  22  33
ENDBRANCH   1  22
TORSDOF 11
ENDMDL
MODEL 2
REMARK VINA RESULT:      -8.9      0.687      1.492
REMARK  Name = 
REMARK  11 active torsions:
REMARK  status: ('A' for Active; 'I' for Inactive)
REMARK    1  A    between atoms: C_2  and  C_3
REMARK    2  A    between atoms: C_3  and  O_4
REMARK    3  A    between atoms: O_4  and  N_5
REMARK    4  A    between atoms: C_6  and  C_8
REMARK    5  A    between atoms: C_8  and  C_10
REMARK    6  A    between atoms: C_10  and  C_11
REMARK    7  A    between atoms: C_10  and  N_18
REMARK    8  A    between atoms: C_11  and  C_12
REMARK    9  A    between atoms: C_19  and  C_21
REMARK   10  A    between atoms: C_26  and  N_27
REMARK   11  A    between atoms: C_30  and  C_31
REMARK                            x       y       z     vdW  Elec       q    Type
REMARK                         _______ _______ _______ _____ _____    ______ ____
ROOT
ATOM      1  N   UNL     1       3.837   6.111  17.218  0.00  0.00    +0.000 N 
ATOM      2  C   UNL     1       4.686   5.025  17.179  0.00  0.00    +0.000 C 
ATOM      3  O   UNL     1       4.651   4.130  18.012  0.00  0.00    +0.000 OA
ATOM      4  H   UNL     1       3.928   6.838  16.522  0.00  0.00    +0.000 HD
ENDROOT
BRANCH   2   5
ATOM      5  C   UNL     1       5.588   4.969  15.991  0.00  0.00    +0.000 A 
ATOM      6  C   UNL     1       5.176   4.182  14.898  0.00  0.00    +0.000 A 
ATOM      7  C   UNL     1       5.996   4.029  13.782  0.00  0.00    +0.000 A 
ATOM      8  C   UNL     1       7.235   4.633  13.798  0.00  0.00    +0.000 A 
ATOM      9  N   UNL     1       7.701   5.339  14.850  0.00  0.00    +0.000 NA
ATOM     10  C   UNL     1       6.868   5.520  15.930  0.00  0.00    +0.000 A 
BRANCH  10  11
ATOM     11  N   UNL     1       7.409   6.309  16.990  0.00  0.00    +0.000 N 
ATOM     12  C   UNL     1       7.649   5.842  18.268  0.00  0.00    +0.000 A 
ATOM     13  C   UNL     1       8.061   6.923  19.002  0.00  0.00    +0.000 A 
ATOM     14  C   UNL     1       8.140   7.995  18.083  0.00  0.00    +0.000 A 
ATOM     15  N   UNL     1       7.826   7.592  16.844  0.00  0.00    +0.000 NA
BRANCH  14  16
ATOM     16  C   UNL     1       8.477   9.386  18.381  0.00  0.00    +0.000 A 
ATOM     17  C   UNL     1       8.093  10.409  17.507  0.00  0.00    +0.000 A 
ATOM     18  C   UNL     1       8.492  11.728  17.732  0.00  0.00    +0.000 A 
ATOM     19  C   UNL     1       9.280  12.034  18.839  0.00  0.00    +0.000 A 
ATOM     20  C   UNL     1       9.653  11.030  19.731  0.00  0.00    +0.000 A 
ATOM     21  C   UNL     1       9.251   9.710  19.509  0.00  0.00    +0.000 A 
ENDBRANCH  14  16
ENDBRANCH  10  11
ENDBRANCH   2   5
BRANCH   1  22
ATOM     22  C   UNL     1       2.979   6.394  18.381  0.00  0.00    +0.000 C 
BRANCH  22  23
ATOM     23  C   UNL     1       2.540   7.866  18.314  0.00  0.00    +0.000 C 
ATOM     24  O   UNL     1       2.609   8.587  17.321  0.00  0.00    +0.000 OA
BRANCH  23  26
ATOM     25  N   UNL     1       1.305   9.661  19.374  0.00  0.00    +0.000 N 
ATOM     26  C   UNL     1       1.919   8.451  19.584  0.00  0.00    +0.000 C 
ATOM     27  O   UNL     1       1.976   7.835  20.637  0.00  0.00    +0.000 OA
ATOM     28  H   UNL     1       1.392  10.172  18.499  0.00  0.00    +0.000 HD
BRANCH  25  29
ATOM     29  O   UNL     1       0.627  10.221  20.478  0.00  0.00    +0.000 OA
BRANCH  29  30
ATOM     30  C   UNL     1      -0.391  11.117  20.039  0.00  0.00    +0.000 C 
BRANCH  30  32
ATOM     31  C   UNL     1      -0.850  11.249  22.509  0.00  0.00    +0.000 C 
ATOM     32  C   UNL     1      -1.176  11.535  21.243  0.00  0.00    +0.000 C 
ENDBRANCH  30  32
ENDBRANCH  29  30
ENDBRANCH  25  29
ENDBRANCH  23  26
ENDBRANCH  22  23
BRANCH  22  33
ATOM     33  C   UNL     1       1.762   5.452  18.360  0.00  0.00    +0.000 C 
BRANCH  33  34
ATOM     34  C   UNL     1       1.717   4.458  19.501  0.00  0.00    +0.000 A 
ATOM     35  C   UNL     1       1.019   3.249  19.374  0.00  0.00    +0.000 A 
ATOM     36  C   UNL     1       1.036   2.309  20.407  0.00  0.00    +0.000 A 
ATOM     37  C   UNL     1       1.749   2.569  21.577  0.00  0.00    +0.000 A 
ATOM     38  C   UNL     1       2.436   3.773  21.717  0.00  0.00    +0.000 A 
ATOM     39  C   UNL     1       2.422   4.712  20.686  0.00  0.00    +0.000 A 
ENDBRANCH  33  34
ENDBRANCH  22  33
ENDBRANCH   1  22
TORSDOF 11
ENDMDL
MODEL 3
REMARK VINA RESULT:      -8.5      1.271      1.761
REMARK  Name = 
REMARK  11 active torsions:
REMARK  status: ('A' for Active; 'I' for Inactive)
REMARK    1  A    between atoms: C_2  and  C_3
REMARK    2  A    between atoms: C_3  and  O_4
REMARK    3  A    between atoms: O_4  and  N_5
REMARK    4  A    between atoms: C_6  and  C_8
REMARK    5  A    between atoms: C_8  and  C_10
REMARK    6  A    between atoms: C_10  and  C_11
REMARK    7  A    between atoms: C_10  and  N_18
REMARK    8  A    between atoms: C_11  and  C_12
REMARK    9  A    between atoms: C_19  and  C_21
REMARK   10  A    between atoms: C_26  and  N_27
REMARK   11  A    between atoms: C_30  and  C_31
REMARK                            x       y       z     vdW  Elec       q    Type
REMARK                         _______ _______ _______ _____ _____    ______ ____
ROOT
ATOM      1  N   UNL     1       3.817   6.527  17.096  0.00  0.00    +0.000 N 
ATOM      2  C   UNL     1       4.586   5.384  17.165  0.00  0.00    +0.000 C 
ATOM      3  O   UNL     1       4.461   4.559  18.059  0.00  0.00    +0.000 OA
ATOM      4  H   UNL     1       3.981   7.191  16.351  0.00  0.00    +0.000 HD
ENDROOT
BRANCH   2   5
ATOM      5  C   UNL     1       5.515   5.175  16.015  0.00  0.00    +0.000 A 
ATOM      6  C   UNL     1       5.059   4.379  14.946  0.00  0.00    +0.000 A 
ATOM      7  C   UNL     1       5.894   4.086  13.871  0.00  0.00    +0.000 A 
ATOM      8  C   UNL     1       7.188   4.561  13.904  0.00  0.00    +0.000 A 
ATOM      9  N   UNL     1       7.690   5.267  14.937  0.00  0.00    +0.000 NA
ATOM     10  C   UNL     1       6.846   5.588  15.976  0.00  0.00    +0.000 A 
BRANCH  10  11
ATOM     11  N   UNL     1       7.432   6.372  17.016  0.00  0.00    +0.000 N 
ATOM     12  C   UNL     1       7.692   5.908  18.292  0.00  0.00    +0.000 A 
ATOM     13  C   UNL     1       8.147   6.983  19.007  0.00  0.00    +0.000 A 
ATOM     14  C   UNL     1       8.230   8.047  18.078  0.00  0.00    +0.000 A 
ATOM     15  N   UNL     1       7.876   7.643  16.851  0.00  0.00    +0.000 NA
BRANCH  14  16
ATOM     16  C   UNL     1       8.607   9.431  18.358  0.00  0.00    +0.000 A 
ATOM     17  C   UNL     1       9.277   9.755  19.544  0.00  0.00    +0.000 A 
ATOM     18  C   UNL     1       9.555  11.085  19.866  0.00  0.00    +0.000 A 
ATOM     19  C   UNL     1       9.164  12.104  19.002  0.00  0.00    +0.000 A 
ATOM     20  C   UNL     1       8.515  11.797  17.806  0.00  0.00    +0.000 A 
ATOM     21  C   UNL     1       8.240  10.465  17.481  0.00  0.00    +0.000 A 
ENDBRANCH  14  16
ENDBRANCH  10  11
ENDBRANCH   2   5
BRANCH   1  22
ATOM     22  C   UNL     1       2.950   6.957  18.204  0.00  0.00    +0.000 C 
BRANCH  22  23
ATOM     23  C   UNL     1       2.618   8.447  18.013  0.00  0.00    +0.000 C 
ATOM     24  O   UNL     1       3.313   9.260  17.407  0.00  0.00    +0.000 OA
BRANCH  23  26
ATOM     25  N   UNL     1       1.234   8.863  19.957  0.00  0.00    +0.000 N 
ATOM     26  C   UNL     1       1.284   8.928  18.587  0.00  0.00    +0.000 C 
ATOM     27  O   UNL     1       0.408   9.341  17.843  0.00  0.00    +0.000 OA
ATOM     28  H   UNL     1       1.954   8.402  20.508  0.00  0.00    +0.000 HD
BRANCH  25  29
ATOM     29  O   UNL     1       0.070   9.376  20.568  0.00  0.00    +0.000 OA
BRANCH  29  30
ATOM     30  C   UNL     1      -0.282   8.598  21.709  0.00  0.00    +0.000 C 
BRANCH  30  32
ATOM     31  C   UNL     1      -1.004  10.421  23.285  0.00  0.00    +0.000 C 
ATOM     32  C   UNL     1      -0.136   9.472  22.916  0.00  0.00    +0.000 C 
ENDBRANCH  30  32
ENDBRANCH  29  30
ENDBRANCH  25  29
ENDBRANCH  23  26
ENDBRANCH  22  23
BRANCH  22  33
ATOM     33  C   UNL     1       1.670   6.103  18.212  0.00  0.00    +0.000 C 
BRANCH  33  34
ATOM     34  C   UNL     1       1.652   5.007  19.258  0.00  0.00    +0.000 A 
ATOM     35  C   UNL     1       1.156   3.731  18.953  0.00  0.00    +0.000 A 
ATOM     36  C   UNL     1       1.203   2.708  19.902  0.00  0.00    +0.000 A 
ATOM     37  C   UNL     1       1.745   2.949  21.165  0.00  0.00    +0.000 A 
ATOM     38  C   UNL     1       2.230   4.217  21.480  0.00  0.00    +0.000 A 
ATOM     39  C   UNL     1       2.186   5.240  20.533  0.00  0.00    +0.000 A 
ENDBRANCH  33  34
ENDBRANCH  22  33
ENDBRANCH   1  22
TORSDOF 11
ENDMDL
MODEL 4
REMARK VINA RESULT:      -8.5      1.073      1.823
REMARK  Name = 
REMARK  11 active torsions:
REMARK  status: ('A' for Active; 'I' for Inactive)
REMARK    1  A    between atoms: C_2  and  C_3
REMARK    2  A    between atoms: C_3  and  O_4
REMARK    3  A    between atoms: O_4  and  N_5
REMARK    4  A    between atoms: C_6  and  C_8
REMARK    5  A    between atoms: C_8  and  C_10
REMARK    6  A    between atoms: C_10  and  C_11
REMARK    7  A    between atoms: C_10  and  N_18
REMARK    8  A    between atoms: C_11  and  C_12
REMARK    9  A    between atoms: C_19  and  C_21
REMARK   10  A    between atoms: C_26  and  N_27
REMARK   11  A    between atoms: C_30  and  C_31
REMARK                            x       y       z     vdW  Elec       q    Type
REMARK                         _______ _______ _______ _____ _____    ______ ____
ROOT
ATOM      1  N   UNL     1       3.443   6.280  18.002  0.00  0.00    +0.000 N 
ATOM      2  C   UNL     1       4.731   5.802  18.127  0.00  0.00    +0.000 C 
ATOM      3  O   UNL     1       5.225   5.516  19.209  0.00  0.00    +0.000 OA
ATOM      4  H   UNL     1       3.093   6.530  17.087  0.00  0.00    +0.000 HD
ENDROOT
BRANCH   2   5
ATOM      5  C   UNL     1       5.446   5.564  16.839  0.00  0.00    +0.000 A 
ATOM      6  C   UNL     1       4.834   4.707  15.903  0.00  0.00    +0.000 A 
ATOM      7  C   UNL     1       5.473   4.386  14.708  0.00  0.00    +0.000 A 
ATOM      8  C   UNL     1       6.735   4.896  14.489  0.00  0.00    +0.000 A 
ATOM      9  N   UNL     1       7.390   5.663  15.384  0.00  0.00    +0.000 NA
ATOM     10  C   UNL     1       6.734   6.010  16.544  0.00  0.00    +0.000 A 
BRANCH  10  11
ATOM     11  N   UNL     1       7.469   6.857  17.428  0.00  0.00    +0.000 N 
ATOM     12  C   UNL     1       8.036   6.440  18.617  0.00  0.00    +0.000 A 
ATOM     13  C   UNL     1       8.551   7.561  19.213  0.00  0.00    +0.000 A 
ATOM     14  C   UNL     1       8.345   8.609  18.285  0.00  0.00    +0.000 A 
ATOM     15  N   UNL     1       7.765   8.155  17.165  0.00  0.00    +0.000 NA
BRANCH  14  16
ATOM     16  C   UNL     1       8.664  10.023  18.471  0.00  0.00    +0.000 A 
ATOM     17  C   UNL     1       8.211  10.977  17.552  0.00  0.00    +0.000 A 
ATOM     18  C   UNL     1       8.590  12.316  17.667  0.00  0.00    +0.000 A 
ATOM     19  C   UNL     1       9.428  12.712  18.707  0.00  0.00    +0.000 A 
ATOM     20  C   UNL     1       9.871  11.778  19.643  0.00  0.00    +0.000 A 
ATOM     21  C   UNL     1       9.488  10.438  19.531  0.00  0.00    +0.000 A 
ENDBRANCH  14  16
ENDBRANCH  10  11
ENDBRANCH   2   5
BRANCH   1  22
ATOM     22  C   UNL     1       2.644   6.697  19.166  0.00  0.00    +0.000 C 
BRANCH  22  23
ATOM     23  C   UNL     1       1.977   8.044  18.841  0.00  0.00    +0.000 C 
ATOM     24  O   UNL     1       1.696   8.448  17.715  0.00  0.00    +0.000 OA
BRANCH  23  26
ATOM     25  N   UNL     1       1.167  10.172  19.669  0.00  0.00    +0.000 N 
ATOM     26  C   UNL     1       1.591   8.919  20.036  0.00  0.00    +0.000 C 
ATOM     27  O   UNL     1       1.651   8.472  21.171  0.00  0.00    +0.000 OA
ATOM     28  H   UNL     1       1.249  10.518  18.716  0.00  0.00    +0.000 HD
BRANCH  25  29
ATOM     29  O   UNL     1       0.704  11.008  20.707  0.00  0.00    +0.000 OA
BRANCH  29  30
ATOM     30  C   UNL     1      -0.712  11.151  20.642  0.00  0.00    +0.000 C 
BRANCH  30  32
ATOM     31  C   UNL     1      -0.737  10.434  23.054  0.00  0.00    +0.000 C 
ATOM     32  C   UNL     1      -1.232  11.163  22.047  0.00  0.00    +0.000 C 
ENDBRANCH  30  32
ENDBRANCH  29  30
ENDBRANCH  25  29
ENDBRANCH  23  26
ENDBRANCH  22  23
BRANCH  22  33
ATOM     33  C   UNL     1       1.591   5.619  19.475  0.00  0.00    +0.000 C 
BRANCH  33  34
ATOM     34  C   UNL     1       2.044   4.200  19.199  0.00  0.00    +0.000 A 
ATOM     35  C   UNL     1       1.784   3.589  17.964  0.00  0.00    +0.000 A 
ATOM     36  C   UNL     1       2.262   2.305  17.694  0.00  0.00    +0.000 A 
ATOM     37  C   UNL     1       3.002   1.618  18.656  0.00  0.00    +0.000 A 
ATOM     38  C   UNL     1       3.257   2.213  19.890  0.00  0.00    +0.000 A 
ATOM     39  C   UNL     1       2.782   3.496  20.161  0.00  0.00    +0.000 A 
ENDBRANCH  33  34
ENDBRANCH  22  33
ENDBRANCH   1  22
TORSDOF 11
ENDMDL
MODEL 5
REMARK VINA RESULT:      -8.5      0.694      1.145
REMARK  Name = 
REMARK  11 active torsions:
REMARK  status: ('A' for Active; 'I' for Inactive)
REMARK    1  A    between atoms: C_2  and  C_3
REMARK    2  A    between atoms: C_3  and  O_4
REMARK    3  A    between atoms: O_4  and  N_5
REMARK    4  A    between atoms: C_6  and  C_8
REMARK    5  A    between atoms: C_8  and  C_10
REMARK    6  A    between atoms: C_10  and  C_11
REMARK    7  A    between atoms: C_10  and  N_18
REMARK    8  A    between atoms: C_11  and  C_12
REMARK    9  A    between atoms: C_19  and  C_21
REMARK   10  A    between atoms: C_26  and  N_27
REMARK   11  A    between atoms: C_30  and  C_31
REMARK                            x       y       z     vdW  Elec       q    Type
REMARK                         _______ _______ _______ _____ _____    ______ ____
ROOT
ATOM      1  N   UNL     1       3.437   6.490  17.722  0.00  0.00    +0.000 N 
ATOM      2  C   UNL     1       4.649   5.869  17.939  0.00  0.00    +0.000 C 
ATOM      3  O   UNL     1       5.025   5.528  19.051  0.00  0.00    +0.000 OA
ATOM      4  H   UNL     1       3.187   6.778  16.786  0.00  0.00    +0.000 HD
ENDROOT
BRANCH   2   5
ATOM      5  C   UNL     1       5.428   5.553  16.705  0.00  0.00    +0.000 A 
ATOM      6  C   UNL     1       4.831   4.697  15.759  0.00  0.00    +0.000 A 
ATOM      7  C   UNL     1       5.523   4.306  14.617  0.00  0.00    +0.000 A 
ATOM      8  C   UNL     1       6.822   4.744  14.461  0.00  0.00    +0.000 A 
ATOM      9  N   UNL     1       7.459   5.507  15.373  0.00  0.00    +0.000 NA
ATOM     10  C   UNL     1       6.753   5.924  16.478  0.00  0.00    +0.000 A 
BRANCH  10  11
ATOM     11  N   UNL     1       7.476   6.761  17.381  0.00  0.00    +0.000 N 
ATOM     12  C   UNL     1       8.025   6.333  18.575  0.00  0.00    +0.000 A 
ATOM     13  C   UNL     1       8.532   7.447  19.188  0.00  0.00    +0.000 A 
ATOM     14  C   UNL     1       8.341   8.504  18.267  0.00  0.00    +0.000 A 
ATOM     15  N   UNL     1       7.778   8.061  17.135  0.00  0.00    +0.000 NA
BRANCH  14  16
ATOM     16  C   UNL     1       8.660   9.916  18.471  0.00  0.00    +0.000 A 
ATOM     17  C   UNL     1       8.230  10.878  17.549  0.00  0.00    +0.000 A 
ATOM     18  C   UNL     1       8.610  12.215  17.683  0.00  0.00    +0.000 A 
ATOM     19  C   UNL     1       9.425  12.601  18.744  0.00  0.00    +0.000 A 
ATOM     20  C   UNL     1       9.844  11.659  19.683  0.00  0.00    +0.000 A 
ATOM     21  C   UNL     1       9.460  10.321  19.553  0.00  0.00    +0.000 A 
ENDBRANCH  14  16
ENDBRANCH  10  11
ENDBRANCH   2   5
BRANCH   1  22
ATOM     22  C   UNL     1       2.604   6.993  18.827  0.00  0.00    +0.000 C 
BRANCH  22  23
ATOM     23  C   UNL     1       2.084   8.389  18.447  0.00  0.00    +0.000 C 
ATOM     24  O   UNL     1       2.272   8.953  17.372  0.00  0.00    +0.000 OA
BRANCH  23  26
ATOM     25  N   UNL     1       0.279   9.932  18.928  0.00  0.00    +0.000 N 
ATOM     26  C   UNL     1       1.216   9.100  19.488  0.00  0.00    +0.000 C 
ATOM     27  O   UNL     1       1.377   8.878  20.678  0.00  0.00    +0.000 OA
ATOM     28  H   UNL     1       0.273  10.158  17.937  0.00  0.00    +0.000 HD
BRANCH  25  29
ATOM     29  O   UNL     1      -0.622  10.553  19.820  0.00  0.00    +0.000 OA
BRANCH  29  30
ATOM     30  C   UNL     1      -1.232  11.686  19.207  0.00  0.00    +0.000 C 
BRANCH  30  32
ATOM     31  C   UNL     1      -0.234  13.914  18.595  0.00  0.00    +0.000 C 
ATOM     32  C   UNL     1      -0.135  12.586  18.728  0.00  0.00    +0.000 C 
ENDBRANCH  30  32
ENDBRANCH  29  30
ENDBRANCH  25  29
ENDBRANCH  23  26
ENDBRANCH  22  23
BRANCH  22  33
ATOM     33  C   UNL     1       1.440   6.017  19.075  0.00  0.00    +0.000 C 
BRANCH  33  34
ATOM     34  C   UNL     1       1.840   4.556  19.102  0.00  0.00    +0.000 A 
ATOM     35  C   UNL     1       2.265   3.950  20.293  0.00  0.00    +0.000 A 
ATOM     36  C   UNL     1       2.569   2.587  20.324  0.00  0.00    +0.000 A 
ATOM     37  C   UNL     1       2.452   1.818  19.167  0.00  0.00    +0.000 A 
ATOM     38  C   UNL     1       2.040   2.414  17.977  0.00  0.00    +0.000 A 
ATOM     39  C   UNL     1       1.734   3.775  17.943  0.00  0.00    +0.000 A 
ENDBRANCH  33  34
ENDBRANCH  22  33
ENDBRANCH   1  22
TORSDOF 11
ENDMDL
MODEL 6
REMARK VINA RESULT:      -8.4      0.735      1.135
REMARK  Name = 
REMARK  11 active torsions:
REMARK  status: ('A' for Active; 'I' for Inactive)
REMARK    1  A    between atoms: C_2  and  C_3
REMARK    2  A    between atoms: C_3  and  O_4
REMARK    3  A    between atoms: O_4  and  N_5
REMARK    4  A    between atoms: C_6  and  C_8
REMARK    5  A    between atoms: C_8  and  C_10
REMARK    6  A    between atoms: C_10  and  C_11
REMARK    7  A    between atoms: C_10  and  N_18
REMARK    8  A    between atoms: C_11  and  C_12
REMARK    9  A    between atoms: C_19  and  C_21
REMARK   10  A    between atoms: C_26  and  N_27
REMARK   11  A    between atoms: C_30  and  C_31
REMARK                            x       y       z     vdW  Elec       q    Type
REMARK                         _______ _______ _______ _____ _____    ______ ____
ROOT
ATOM      1  N   UNL     1       3.491   6.426  17.778  0.00  0.00    +0.000 N 
ATOM      2  C   UNL     1       4.714   5.819  17.974  0.00  0.00    +0.000 C 
ATOM      3  O   UNL     1       5.107   5.469  19.078  0.00  0.00    +0.000 OA
ATOM      4  H   UNL     1       3.227   6.722  16.848  0.00  0.00    +0.000 HD
ENDROOT
BRANCH   2   5
ATOM      5  C   UNL     1       5.483   5.529  16.728  0.00  0.00    +0.000 A 
ATOM      6  C   UNL     1       4.896   4.659  15.788  0.00  0.00    +0.000 A 
ATOM      7  C   UNL     1       5.583   4.291  14.634  0.00  0.00    +0.000 A 
ATOM      8  C   UNL     1       6.866   4.765  14.462  0.00  0.00    +0.000 A 
ATOM      9  N   UNL     1       7.495   5.543  15.367  0.00  0.00    +0.000 NA
ATOM     10  C   UNL     1       6.794   5.937  16.483  0.00  0.00    +0.000 A 
BRANCH  10  11
ATOM     11  N   UNL     1       7.507   6.792  17.379  0.00  0.00    +0.000 N 
ATOM     12  C   UNL     1       8.018   6.393  18.598  0.00  0.00    +0.000 A 
ATOM     13  C   UNL     1       8.526   7.518  19.190  0.00  0.00    +0.000 A 
ATOM     14  C   UNL     1       8.375   8.548  18.233  0.00  0.00    +0.000 A 
ATOM     15  N   UNL     1       7.834   8.079  17.101  0.00  0.00    +0.000 NA
BRANCH  14  16
ATOM     16  C   UNL     1       8.709   9.962  18.402  0.00  0.00    +0.000 A 
ATOM     17  C   UNL     1       9.438  10.387  19.519  0.00  0.00    +0.000 A 
ATOM     18  C   UNL     1       9.678  11.745  19.740  0.00  0.00    +0.000 A 
ATOM     19  C   UNL     1       9.190  12.690  18.841  0.00  0.00    +0.000 A 
ATOM     20  C   UNL     1       8.480  12.282  17.713  0.00  0.00    +0.000 A 
ATOM     21  C   UNL     1       8.243  10.922  17.488  0.00  0.00    +0.000 A 
ENDBRANCH  14  16
ENDBRANCH  10  11
ENDBRANCH   2   5
BRANCH   1  22
ATOM     22  C   UNL     1       2.664   6.905  18.898  0.00  0.00    +0.000 C 
BRANCH  22  23
ATOM     23  C   UNL     1       2.108   8.292  18.535  0.00  0.00    +0.000 C 
ATOM     24  O   UNL     1       2.240   8.851  17.449  0.00  0.00    +0.000 OA
BRANCH  23  26
ATOM     25  N   UNL     1       0.435   9.950  19.099  0.00  0.00    +0.000 N 
ATOM     26  C   UNL     1       1.280   8.997  19.611  0.00  0.00    +0.000 C 
ATOM     27  O   UNL     1       1.391   8.674  20.783  0.00  0.00    +0.000 OA
ATOM     28  H   UNL     1       0.474  10.249  18.128  0.00  0.00    +0.000 HD
BRANCH  25  29
ATOM     29  O   UNL     1      -0.431  10.581  20.018  0.00  0.00    +0.000 OA
BRANCH  29  30
ATOM     30  C   UNL     1       0.022  11.900  20.308  0.00  0.00    +0.000 C 
BRANCH  30  32
ATOM     31  C   UNL     1       0.838  13.496  18.542  0.00  0.00    +0.000 C 
ATOM     32  C   UNL     1      -0.116  12.712  19.057  0.00  0.00    +0.000 C 
ENDBRANCH  30  32
ENDBRANCH  29  30
ENDBRANCH  25  29
ENDBRANCH  23  26
ENDBRANCH  22  23
BRANCH  22  33
ATOM     33  C   UNL     1       1.525   5.903  19.156  0.00  0.00    +0.000 C 
BRANCH  33  34
ATOM     34  C   UNL     1       1.930   4.447  19.045  0.00  0.00    +0.000 A 
ATOM     35  C   UNL     1       1.843   3.768  17.821  0.00  0.00    +0.000 A 
ATOM     36  C   UNL     1       2.280   2.446  17.712  0.00  0.00    +0.000 A 
ATOM     37  C   UNL     1       2.806   1.790  18.824  0.00  0.00    +0.000 A 
ATOM     38  C   UNL     1       2.887   2.453  20.046  0.00  0.00    +0.000 A 
ATOM     39  C   UNL     1       2.453   3.774  20.158  0.00  0.00    +0.000 A 
ENDBRANCH  33  34
ENDBRANCH  22  33
ENDBRANCH   1  22
TORSDOF 11
ENDMDL
MODEL 7
REMARK VINA RESULT:      -7.9      2.247      7.549
REMARK  Name = 
REMARK  11 active torsions:
REMARK  status: ('A' for Active; 'I' for Inactive)
REMARK    1  A    between atoms: C_2  and  C_3
REMARK    2  A    between atoms: C_3  and  O_4
REMARK    3  A    between atoms: O_4  and  N_5
REMARK    4  A    between atoms: C_6  and  C_8
REMARK    5  A    between atoms: C_8  and  C_10
REMARK    6  A    between atoms: C_10  and  C_11
REMARK    7  A    between atoms: C_10  and  N_18
REMARK    8  A    between atoms: C_11  and  C_12
REMARK    9  A    between atoms: C_19  and  C_21
REMARK   10  A    between atoms: C_26  and  N_27
REMARK   11  A    between atoms: C_30  and  C_31
REMARK                            x       y       z     vdW  Elec       q    Type
REMARK                         _______ _______ _______ _____ _____    ______ ____
ROOT
ATOM      1  N   UNL     1       4.506   4.363  17.522  0.00  0.00    +0.000 N 
ATOM      2  C   UNL     1       3.207   4.035  17.854  0.00  0.00    +0.000 C 
ATOM      3  O   UNL     1       2.334   3.870  17.014  0.00  0.00    +0.000 OA
ATOM      4  H   UNL     1       5.182   4.518  18.257  0.00  0.00    +0.000 HD
ENDROOT
BRANCH   2   5
ATOM      5  C   UNL     1       2.967   3.798  19.308  0.00  0.00    +0.000 A 
ATOM      6  C   UNL     1       3.140   2.486  19.791  0.00  0.00    +0.000 A 
ATOM      7  C   UNL     1       2.869   2.177  21.121  0.00  0.00    +0.000 A 
ATOM      8  C   UNL     1       2.387   3.179  21.937  0.00  0.00    +0.000 A 
ATOM      9  N   UNL     1       2.139   4.431  21.502  0.00  0.00    +0.000 NA
ATOM     10  C   UNL     1       2.449   4.739  20.197  0.00  0.00    +0.000 A 
BRANCH  10  11
ATOM     11  N   UNL     1       2.199   6.092  19.816  0.00  0.00    +0.000 N 
ATOM     12  C   UNL     1       2.838   6.743  18.778  0.00  0.00    +0.000 A 
ATOM     13  C   UNL     1       2.401   8.040  18.808  0.00  0.00    +0.000 A 
ATOM     14  C   UNL     1       1.424   8.085  19.831  0.00  0.00    +0.000 A 
ATOM     15  N   UNL     1       1.245   6.876  20.379  0.00  0.00    +0.000 NA
BRANCH  14  16
ATOM     16  C   UNL     1       0.698   9.263  20.301  0.00  0.00    +0.000 A 
ATOM     17  C   UNL     1       0.073  10.119  19.387  0.00  0.00    +0.000 A 
ATOM     18  C   UNL     1      -0.541  11.298  19.817  0.00  0.00    +0.000 A 
ATOM     19  C   UNL     1      -0.534  11.629  21.170  0.00  0.00    +0.000 A 
ATOM     20  C   UNL     1       0.066  10.776  22.096  0.00  0.00    +0.000 A 
ATOM     21  C   UNL     1       0.676   9.594  21.667  0.00  0.00    +0.000 A 
ENDBRANCH  14  16
ENDBRANCH  10  11
ENDBRANCH   2   5
BRANCH   1  22
ATOM     22  C   UNL     1       4.890   4.762  16.158  0.00  0.00    +0.000 C 
BRANCH  22  23
ATOM     23  C   UNL     1       5.364   6.224  16.193  0.00  0.00    +0.000 C 
ATOM     24  O   UNL     1       4.963   7.122  15.456  0.00  0.00    +0.000 OA
BRANCH  23  26
ATOM     25  N   UNL     1       7.076   7.736  17.000  0.00  0.00    +0.000 N 
ATOM     26  C   UNL     1       6.382   6.585  17.277  0.00  0.00    +0.000 C 
ATOM     27  O   UNL     1       6.491   5.889  18.275  0.00  0.00    +0.000 OA
ATOM     28  H   UNL     1       7.018   8.205  16.099  0.00  0.00    +0.000 HD
BRANCH  25  29
ATOM     29  O   UNL     1       7.968   8.187  17.996  0.00  0.00    +0.000 OA
BRANCH  29  30
ATOM     30  C   UNL     1       8.343   9.541  17.758  0.00  0.00    +0.000 C 
BRANCH  30  32
ATOM     31  C   UNL     1      10.075  10.538  19.287  0.00  0.00    +0.000 C 
ATOM     32  C   UNL     1       8.828  10.112  19.055  0.00  0.00    +0.000 C 
ENDBRANCH  30  32
ENDBRANCH  29  30
ENDBRANCH  25  29
ENDBRANCH  23  26
ENDBRANCH  22  23
BRANCH  22  33
ATOM     33  C   UNL     1       6.004   3.830  15.649  0.00  0.00    +0.000 C 
BRANCH  33  34
ATOM     34  C   UNL     1       6.427   4.080  14.216  0.00  0.00    +0.000 A 
ATOM     35  C   UNL     1       7.444   4.997  13.916  0.00  0.00    +0.000 A 
ATOM     36  C   UNL     1       7.873   5.173  12.598  0.00  0.00    +0.000 A 
ATOM     37  C   UNL     1       7.289   4.436  11.569  0.00  0.00    +0.000 A 
ATOM     38  C   UNL     1       6.270   3.530  11.856  0.00  0.00    +0.000 A 
ATOM     39  C   UNL     1       5.842   3.351  13.171  0.00  0.00    +0.000 A 
ENDBRANCH  33  34
ENDBRANCH  22  33
ENDBRANCH   1  22
TORSDOF 11
ENDMDL
MODEL 8
REMARK VINA RESULT:      -7.8      2.355      7.627
REMARK  Name = 
REMARK  11 active torsions:
REMARK  status: ('A' for Active; 'I' for Inactive)
REMARK    1  A    between atoms: C_2  and  C_3
REMARK    2  A    between atoms: C_3  and  O_4
REMARK    3  A    between atoms: O_4  and  N_5
REMARK    4  A    between atoms: C_6  and  C_8
REMARK    5  A    between atoms: C_8  and  C_10
REMARK    6  A    between atoms: C_10  and  C_11
REMARK    7  A    between atoms: C_10  and  N_18
REMARK    8  A    between atoms: C_11  and  C_12
REMARK    9  A    between atoms: C_19  and  C_21
REMARK   10  A    between atoms: C_26  and  N_27
REMARK   11  A    between atoms: C_30  and  C_31
REMARK                            x       y       z     vdW  Elec       q    Type
REMARK                         _______ _______ _______ _____ _____    ______ ____
ROOT
ATOM      1  N   UNL     1       5.693   4.916  18.808  0.00  0.00    +0.000 N 
ATOM      2  C   UNL     1       4.363   4.676  18.530  0.00  0.00    +0.000 C 
ATOM      3  O   UNL     1       3.898   4.767  17.403  0.00  0.00    +0.000 OA
ATOM      4  H   UNL     1       6.019   4.856  19.762  0.00  0.00    +0.000 HD
ENDROOT
BRANCH   2   5
ATOM      5  C   UNL     1       3.551   4.200  19.689  0.00  0.00    +0.000 A 
ATOM      6  C   UNL     1       3.739   2.871  20.115  0.00  0.00    +0.000 A 
ATOM      7  C   UNL     1       2.970   2.338  21.146  0.00  0.00    +0.000 A 
ATOM      8  C   UNL     1       1.993   3.133  21.705  0.00  0.00    +0.000 A 
ATOM      9  N   UNL     1       1.728   4.387  21.285  0.00  0.00    +0.000 NA
ATOM     10  C   UNL     1       2.522   4.920  20.295  0.00  0.00    +0.000 A 
BRANCH  10  11
ATOM     11  N   UNL     1       2.212   6.265  19.926  0.00  0.00    +0.000 N 
ATOM     12  C   UNL     1       2.678   6.890  18.786  0.00  0.00    +0.000 A 
ATOM     13  C   UNL     1       2.250   8.188  18.854  0.00  0.00    +0.000 A 
ATOM     14  C   UNL     1       1.447   8.259  20.018  0.00  0.00    +0.000 A 
ATOM     15  N   UNL     1       1.359   7.064  20.616  0.00  0.00    +0.000 NA
BRANCH  14  16
ATOM     16  C   UNL     1       0.802   9.450  20.569  0.00  0.00    +0.000 A 
ATOM     17  C   UNL     1       0.872  10.671  19.889  0.00  0.00    +0.000 A 
ATOM     18  C   UNL     1       0.344  11.834  20.453  0.00  0.00    +0.000 A 
ATOM     19  C   UNL     1      -0.260  11.783  21.707  0.00  0.00    +0.000 A 
ATOM     20  C   UNL     1      -0.357  10.571  22.388  0.00  0.00    +0.000 A 
ATOM     21  C   UNL     1       0.168   9.405  21.822  0.00  0.00    +0.000 A 
ENDBRANCH  14  16
ENDBRANCH  10  11
ENDBRANCH   2   5
BRANCH   1  22
ATOM     22  C   UNL     1       6.604   5.516  17.820  0.00  0.00    +0.000 C 
BRANCH  22  23
ATOM     23  C   UNL     1       7.609   6.410  18.565  0.00  0.00    +0.000 C 
ATOM     24  O   UNL     1       8.272   6.076  19.545  0.00  0.00    +0.000 OA
BRANCH  23  26
ATOM     25  N   UNL     1       8.645   8.589  18.777  0.00  0.00    +0.000 N 
ATOM     26  C   UNL     1       7.829   7.813  17.993  0.00  0.00    +0.000 C 
ATOM     27  O   UNL     1       7.321   8.129  16.929  0.00  0.00    +0.000 OA
ATOM     28  H   UNL     1       8.942   8.304  19.706  0.00  0.00    +0.000 HD
BRANCH  25  29
ATOM     29  O   UNL     1       8.972   9.866  18.270  0.00  0.00    +0.000 OA
BRANCH  29  30
ATOM     30  C   UNL     1       9.313  10.754  19.331  0.00  0.00    +0.000 C 
BRANCH  30  32
ATOM     31  C   UNL     1      11.135  11.822  17.963  0.00  0.00    +0.000 C 
ATOM     32  C   UNL     1      10.711  11.234  19.088  0.00  0.00    +0.000 C 
ENDBRANCH  30  32
ENDBRANCH  29  30
ENDBRANCH  25  29
ENDBRANCH  23  26
ENDBRANCH  22  23
BRANCH  22  33
ATOM     33  C   UNL     1       7.325   4.399  17.046  0.00  0.00    +0.000 C 
BRANCH  33  34
ATOM     34  C   UNL     1       7.027   4.369  15.561  0.00  0.00    +0.000 A 
ATOM     35  C   UNL     1       5.963   3.606  15.057  0.00  0.00    +0.000 A 
ATOM     36  C   UNL     1       5.654   3.635  13.696  0.00  0.00    +0.000 A 
ATOM     37  C   UNL     1       6.404   4.424  12.825  0.00  0.00    +0.000 A 
ATOM     38  C   UNL     1       7.469   5.177  13.314  0.00  0.00    +0.000 A 
ATOM     39  C   UNL     1       7.779   5.151  14.674  0.00  0.00    +0.000 A 
ENDBRANCH  33  34
ENDBRANCH  22  33
ENDBRANCH   1  22
TORSDOF 11
ENDMDL
MODEL 9
REMARK VINA RESULT:      -7.8      4.896     10.578
REMARK  Name = 
REMARK  11 active torsions:
REMARK  status: ('A' for Active; 'I' for Inactive)
REMARK    1  A    between atoms: C_2  and  C_3
REMARK    2  A    between atoms: C_3  and  O_4
REMARK    3  A    between atoms: O_4  and  N_5
REMARK    4  A    between atoms: C_6  and  C_8
REMARK    5  A    between atoms: C_8  and  C_10
REMARK    6  A    between atoms: C_10  and  C_11
REMARK    7  A    between atoms: C_10  and  N_18
REMARK    8  A    between atoms: C_11  and  C_12
REMARK    9  A    between atoms: C_19  and  C_21
REMARK   10  A    between atoms: C_26  and  N_27
REMARK   11  A    between atoms: C_30  and  C_31
REMARK                            x       y       z     vdW  Elec       q    Type
REMARK                         _______ _______ _______ _____ _____    ______ ____
ROOT
ATOM      1  N   UNL     1      -0.150  12.236  21.558  0.00  0.00    +0.000 N 
ATOM      2  C   UNL     1      -0.250  12.507  20.209  0.00  0.00    +0.000 C 
ATOM      3  O   UNL     1      -1.209  12.160  19.536  0.00  0.00    +0.000 OA
ATOM      4  H   UNL     1       0.679  12.521  22.062  0.00  0.00    +0.000 HD
ENDROOT
BRANCH   2   5
ATOM      5  C   UNL     1       0.853  13.343  19.649  0.00  0.00    +0.000 A 
ATOM      6  C   UNL     1       1.628  12.788  18.611  0.00  0.00    +0.000 A 
ATOM      7  C   UNL     1       2.714  13.483  18.085  0.00  0.00    +0.000 A 
ATOM      8  C   UNL     1       3.033  14.705  18.638  0.00  0.00    +0.000 A 
ATOM      9  N   UNL     1       2.364  15.245  19.677  0.00  0.00    +0.000 NA
ATOM     10  C   UNL     1       1.266  14.572  20.162  0.00  0.00    +0.000 A 
BRANCH  10  11
ATOM     11  N   UNL     1       0.582  15.219  21.236  0.00  0.00    +0.000 N 
ATOM     12  C   UNL     1       1.207  15.881  22.275  0.00  0.00    +0.000 A 
ATOM     13  C   UNL     1       0.217  16.262  23.141  0.00  0.00    +0.000 A 
ATOM     14  C   UNL     1      -0.995  15.883  22.517  0.00  0.00    +0.000 A 
ATOM     15  N   UNL     1      -0.768  15.329  21.319  0.00  0.00    +0.000 NA
BRANCH  14  16
ATOM     16  C   UNL     1      -2.344  16.016  23.064  0.00  0.00    +0.000 A 
ATOM     17  C   UNL     1      -3.408  16.395  22.238  0.00  0.00    +0.000 A 
ATOM     18  C   UNL     1      -4.680  16.619  22.768  0.00  0.00    +0.000 A 
ATOM     19  C   UNL     1      -4.898  16.464  24.135  0.00  0.00    +0.000 A 
ATOM     20  C   UNL     1      -3.854  16.065  24.969  0.00  0.00    +0.000 A 
ATOM     21  C   UNL     1      -2.581  15.837  24.438  0.00  0.00    +0.000 A 
ENDBRANCH  14  16
ENDBRANCH  10  11
ENDBRANCH   2   5
BRANCH   1  22
ATOM     22  C   UNL     1      -1.073  11.318  22.244  0.00  0.00    +0.000 C 
BRANCH  22  23
ATOM     23  C   UNL     1      -0.279  10.085  22.708  0.00  0.00    +0.000 C 
ATOM     24  O   UNL     1       0.104   9.874  23.857  0.00  0.00    +0.000 OA
BRANCH  23  26
ATOM     25  N   UNL     1       1.101   9.307  20.875  0.00  0.00    +0.000 N 
ATOM     26  C   UNL     1       0.004   9.018  21.649  0.00  0.00    +0.000 C 
ATOM     27  O   UNL     1      -0.699   8.022  21.576  0.00  0.00    +0.000 OA
ATOM     28  H   UNL     1       1.573  10.206  20.913  0.00  0.00    +0.000 HD
BRANCH  25  29
ATOM     29  O   UNL     1       1.483   8.325  19.936  0.00  0.00    +0.000 OA
BRANCH  29  30
ATOM     30  C   UNL     1       1.586   8.891  18.632  0.00  0.00    +0.000 C 
BRANCH  30  32
ATOM     31  C   UNL     1       3.055   6.916  18.111  0.00  0.00    +0.000 C 
ATOM     32  C   UNL     1       2.706   8.194  17.923  0.00  0.00    +0.000 C 
ENDBRANCH  30  32
ENDBRANCH  29  30
ENDBRANCH  25  29
ENDBRANCH  23  26
ENDBRANCH  22  23
BRANCH  22  33
ATOM     33  C   UNL     1      -1.720  12.041  23.438  0.00  0.00    +0.000 C 
BRANCH  33  34
ATOM     34  C   UNL     1      -3.191  12.355  23.262  0.00  0.00    +0.000 A 
ATOM     35  C   UNL     1      -4.059  12.376  24.364  0.00  0.00    +0.000 A 
ATOM     36  C   UNL     1      -5.400  12.731  24.202  0.00  0.00    +0.000 A 
ATOM     37  C   UNL     1      -5.887  13.066  22.940  0.00  0.00    +0.000 A 
ATOM     38  C   UNL     1      -5.035  13.038  21.838  0.00  0.00    +0.000 A 
ATOM     39  C   UNL     1      -3.694  12.686  21.996  0.00  0.00    +0.000 A 
ENDBRANCH  33  34
ENDBRANCH  22  33
ENDBRANCH   1  22
TORSDOF 11
ENDMDL
