MODEL 1
REMARK VINA RESULT:      -8.4      0.000      0.000
REMARK  Name = 
REMARK  8 active torsions:
REMARK  status: ('A' for Active; 'I' for Inactive)
REMARK    1  A    between atoms: C_1  and  C_2
REMARK    2  A    between atoms: C_4  and  C_5
REMARK    3  A    between atoms: C_6  and  O_7
REMARK    4  A    between atoms: O_7  and  C_8
REMARK    5  A    between atoms: N_11  and  C_12
REMARK    6  A    between atoms: N_15  and  C_16
REMARK    7  A    between atoms: C_16  and  C_17
REMARK    8  A    between atoms: C_33  and  C_34
REMARK                            x       y       z     vdW  Elec       q    Type
REMARK                         _______ _______ _______ _____ _____    ______ ____
ROOT
ATOM      1  C   UNL     1      -1.643  12.774  23.009  0.00  0.00    +0.000 A 
ATOM      2  C   UNL     1      -2.702  12.169  22.432  0.00  0.00    +0.000 A 
ATOM      3  C   UNL     1      -4.084  12.786  22.580  0.00  0.00    +0.000 A 
ATOM      4  N   UNL     1      -5.125  12.191  21.863  0.00  0.00    +0.000 N 
ATOM      5  N   UNL     1      -4.283  13.837  23.333  0.00  0.00    +0.000 NA
ATOM      6  C   UNL     1      -3.203  14.373  23.987  0.00  0.00    +0.000 A 
ATOM      7  N   UNL     1      -3.177  15.311  24.915  0.00  0.00    +0.000 NA
ATOM      8  C   UNL     1      -1.853  15.475  25.173  0.00  0.00    +0.000 A 
ATOM      9  N   UNL     1      -1.026  14.722  24.453  0.00  0.00    +0.000 NA
ATOM     10  N   UNL     1      -1.887  13.924  23.770  0.00  0.00    +0.000 N 
ATOM     11  H   UNL     1      -5.174  11.182  21.971  0.00  0.00    +0.000 HD
ENDROOT
BRANCH   4  12
ATOM     12  C   UNL     1      -6.438  12.802  21.565  0.00  0.00    +0.000 C 
ATOM     13  C   UNL     1      -7.340  11.864  20.745  0.00  0.00    +0.000 C 
ATOM     14  C   UNL     1      -6.833  11.628  19.309  0.00  0.00    +0.000 C 
ATOM     15  N   UNL     1      -6.419  12.820  18.509  0.00  0.00    +0.000 NA
ATOM     16  C   UNL     1      -5.700  13.787  19.346  0.00  0.00    +0.000 C 
ATOM     17  C   UNL     1      -6.310  14.066  20.727  0.00  0.00    +0.000 C 
BRANCH  15  18
ATOM     18  C   UNL     1      -5.588  12.305  17.367  0.00  0.00    +0.000 C 
BRANCH  18  19
ATOM     19  C   UNL     1      -4.235  11.611  17.434  0.00  0.00    +0.000 A 
ATOM     20  C   UNL     1      -3.268  11.601  18.442  0.00  0.00    +0.000 A 
ATOM     21  F   UNL     1      -3.381  12.343  19.546  0.00  0.00    +0.000 F 
ATOM     22  C   UNL     1      -2.119  10.789  18.373  0.00  0.00    +0.000 A 
ATOM     23  C   UNL     1      -1.891   9.953  17.284  0.00  0.00    +0.000 A 
ATOM     24  C   UNL     1      -2.825   9.936  16.262  0.00  0.00    +0.000 A 
ATOM     25  C   UNL     1      -3.964  10.745  16.347  0.00  0.00    +0.000 A 
ATOM     26  F   UNL     1      -4.864  10.647  15.349  0.00  0.00    +0.000 F 
ENDBRANCH  18  19
ENDBRANCH  15  18
ENDBRANCH   4  12
BRANCH   1  27
ATOM     27  O   UNL     1      -0.352  12.251  22.811  0.00  0.00    +0.000 OA
BRANCH  27  33
ATOM     28  C   UNL     1       1.816   9.323  18.389  0.00  0.00    +0.000 C 
ATOM     29  C   UNL     1       1.184  10.129  19.487  0.00  0.00    +0.000 A 
ATOM     30  C   UNL     1       1.056  11.518  19.422  0.00  0.00    +0.000 A 
ATOM     31  C   UNL     1       0.533  12.274  20.502  0.00  0.00    +0.000 A 
ATOM     32  C   UNL     1       0.614  13.770  20.385  0.00  0.00    +0.000 C 
ATOM     33  C   UNL     1       0.043  11.602  21.646  0.00  0.00    +0.000 A 
ATOM     34  C   UNL     1       0.133  10.187  21.693  0.00  0.00    +0.000 A 
ATOM     35  C   UNL     1      -0.434   9.333  22.793  0.00  0.00    +0.000 C 
ATOM     36  C   UNL     1       0.727   9.480  20.628  0.00  0.00    +0.000 A 
ENDBRANCH  27  33
ENDBRANCH   1  27
TORSDOF 5
ENDMDL
MODEL 2
REMARK VINA RESULT:      -8.1      6.171      9.047
REMARK  Name = 
REMARK  8 active torsions:
REMARK  status: ('A' for Active; 'I' for Inactive)
REMARK    1  A    between atoms: C_1  and  C_2
REMARK    2  A    between atoms: C_4  and  C_5
REMARK    3  A    between atoms: C_6  and  O_7
REMARK    4  A    between atoms: O_7  and  C_8
REMARK    5  A    between atoms: N_11  and  C_12
REMARK    6  A    between atoms: N_15  and  C_16
REMARK    7  A    between atoms: C_16  and  C_17
REMARK    8  A    between atoms: C_33  and  C_34
REMARK                            x       y       z     vdW  Elec       q    Type
REMARK                         _______ _______ _______ _____ _____    ______ ____
ROOT
ATOM      1  C   UNL     1       3.823   4.900  19.739  0.00  0.00    +0.000 A 
ATOM      2  C   UNL     1       3.432   6.190  19.773  0.00  0.00    +0.000 A 
ATOM      3  C   UNL     1       2.088   6.546  20.391  0.00  0.00    +0.000 A 
ATOM      4  N   UNL     1       1.785   7.904  20.512  0.00  0.00    +0.000 N 
ATOM      5  N   UNL     1       1.264   5.619  20.807  0.00  0.00    +0.000 NA
ATOM      6  C   UNL     1       1.648   4.309  20.670  0.00  0.00    +0.000 A 
ATOM      7  N   UNL     1       0.937   3.213  20.856  0.00  0.00    +0.000 NA
ATOM      8  C   UNL     1       1.822   2.209  20.622  0.00  0.00    +0.000 A 
ATOM      9  N   UNL     1       3.060   2.589  20.323  0.00  0.00    +0.000 NA
ATOM     10  N   UNL     1       2.933   3.938  20.235  0.00  0.00    +0.000 N 
ATOM     11  H   UNL     1       1.933   8.436  19.660  0.00  0.00    +0.000 HD
ENDROOT
BRANCH   4  12
ATOM     12  C   UNL     1       0.741   8.489  21.381  0.00  0.00    +0.000 C 
ATOM     13  C   UNL     1      -0.566   8.756  20.616  0.00  0.00    +0.000 C 
ATOM     14  C   UNL     1      -0.444   9.878  19.567  0.00  0.00    +0.000 C 
ATOM     15  N   UNL     1       0.212  11.155  19.983  0.00  0.00    +0.000 NA
ATOM     16  C   UNL     1       1.365  10.891  20.852  0.00  0.00    +0.000 C 
ATOM     17  C   UNL     1       1.153   9.839  21.950  0.00  0.00    +0.000 C 
BRANCH  15  18
ATOM     18  C   UNL     1       0.586  11.878  18.720  0.00  0.00    +0.000 C 
BRANCH  18  19
ATOM     19  C   UNL     1       1.096  13.306  18.576  0.00  0.00    +0.000 A 
ATOM     20  C   UNL     1       0.485  14.524  18.884  0.00  0.00    +0.000 A 
ATOM     21  F   UNL     1      -0.781  14.602  19.301  0.00  0.00    +0.000 F 
ATOM     22  C   UNL     1       1.171  15.752  18.797  0.00  0.00    +0.000 A 
ATOM     23  C   UNL     1       2.501  15.807  18.393  0.00  0.00    +0.000 A 
ATOM     24  C   UNL     1       3.142  14.621  18.076  0.00  0.00    +0.000 A 
ATOM     25  C   UNL     1       2.448  13.409  18.172  0.00  0.00    +0.000 A 
ATOM     26  F   UNL     1       3.138  12.283  17.903  0.00  0.00    +0.000 F 
ENDBRANCH  18  19
ENDBRANCH  15  18
ENDBRANCH   4  12
BRANCH   1  27
ATOM     27  O   UNL     1       5.096   4.573  19.238  0.00  0.00    +0.000 OA
BRANCH  27  33
ATOM     28  C   UNL     1       6.877   4.945  13.806  0.00  0.00    +0.000 C 
ATOM     29  C   UNL     1       6.406   4.944  15.231  0.00  0.00    +0.000 A 
ATOM     30  C   UNL     1       7.070   5.639  16.243  0.00  0.00    +0.000 A 
ATOM     31  C   UNL     1       6.661   5.561  17.599  0.00  0.00    +0.000 A 
ATOM     32  C   UNL     1       7.561   6.205  18.617  0.00  0.00    +0.000 C 
ATOM     33  C   UNL     1       5.497   4.832  17.931  0.00  0.00    +0.000 A 
ATOM     34  C   UNL     1       4.797   4.162  16.896  0.00  0.00    +0.000 A 
ATOM     35  C   UNL     1       3.494   3.435  17.081  0.00  0.00    +0.000 C 
ATOM     36  C   UNL     1       5.279   4.205  15.572  0.00  0.00    +0.000 A 
ENDBRANCH  27  33
ENDBRANCH   1  27
TORSDOF 5
ENDMDL
MODEL 3
REMARK VINA RESULT:      -8.1      1.160      1.416
REMARK  Name = 
REMARK  8 active torsions:
REMARK  status: ('A' for Active; 'I' for Inactive)
REMARK    1  A    between atoms: C_1  and  C_2
REMARK    2  A    between atoms: C_4  and  C_5
REMARK    3  A    between atoms: C_6  and  O_7
REMARK    4  A    between atoms: O_7  and  C_8
REMARK    5  A    between atoms: N_11  and  C_12
REMARK    6  A    between atoms: N_15  and  C_16
REMARK    7  A    between atoms: C_16  and  C_17
REMARK    8  A    between atoms: C_33  and  C_34
REMARK                            x       y       z     vdW  Elec       q    Type
REMARK                         _______ _______ _______ _____ _____    ______ ____
ROOT
ATOM      1  C   UNL     1      -2.581  13.528  22.886  0.00  0.00    +0.000 A 
ATOM      2  C   UNL     1      -3.385  12.608  22.313  0.00  0.00    +0.000 A 
ATOM      3  C   UNL     1      -4.888  12.846  22.285  0.00  0.00    +0.000 A 
ATOM      4  N   UNL     1      -5.662  11.926  21.575  0.00  0.00    +0.000 N 
ATOM      5  N   UNL     1      -5.424  13.876  22.886  0.00  0.00    +0.000 NA
ATOM      6  C   UNL     1      -4.590  14.744  23.544  0.00  0.00    +0.000 A 
ATOM      7  N   UNL     1      -4.899  15.742  24.349  0.00  0.00    +0.000 NA
ATOM      8  C   UNL     1      -3.695  16.278  24.679  0.00  0.00    +0.000 A 
ATOM      9  N   UNL     1      -2.634  15.705  24.119  0.00  0.00    +0.000 NA
ATOM     10  N   UNL     1      -3.188  14.642  23.479  0.00  0.00    +0.000 N 
ATOM     11  H   UNL     1      -5.462  10.957  21.802  0.00  0.00    +0.000 HD
ENDROOT
BRANCH   4  12
ATOM     12  C   UNL     1      -7.051  12.133  21.110  0.00  0.00    +0.000 C 
ATOM     13  C   UNL     1      -7.526  10.999  20.187  0.00  0.00    +0.000 C 
ATOM     14  C   UNL     1      -6.801  10.970  18.828  0.00  0.00    +0.000 C 
ATOM     15  N   UNL     1      -6.665  12.257  18.081  0.00  0.00    +0.000 NA
ATOM     16  C   UNL     1      -6.373  13.365  18.998  0.00  0.00    +0.000 C 
ATOM     17  C   UNL     1      -7.202  13.405  20.289  0.00  0.00    +0.000 C 
BRANCH  15  18
ATOM     18  C   UNL     1      -5.586  12.048  17.055  0.00  0.00    +0.000 C 
BRANCH  18  19
ATOM     19  C   UNL     1      -4.177  11.512  17.276  0.00  0.00    +0.000 A 
ATOM     20  C   UNL     1      -3.304  11.670  18.355  0.00  0.00    +0.000 A 
ATOM     21  F   UNL     1      -3.588  12.462  19.392  0.00  0.00    +0.000 F 
ATOM     22  C   UNL     1      -2.075  10.988  18.432  0.00  0.00    +0.000 A 
ATOM     23  C   UNL     1      -1.668  10.118  17.425  0.00  0.00    +0.000 A 
ATOM     24  C   UNL     1      -2.505   9.936  16.337  0.00  0.00    +0.000 A 
ATOM     25  C   UNL     1      -3.726  10.617  16.276  0.00  0.00    +0.000 A 
ATOM     26  F   UNL     1      -4.523  10.360  15.220  0.00  0.00    +0.000 F 
ENDBRANCH  18  19
ENDBRANCH  15  18
ENDBRANCH   4  12
BRANCH   1  27
ATOM     27  O   UNL     1      -1.186  13.350  22.847  0.00  0.00    +0.000 OA
BRANCH  27  33
ATOM     28  C   UNL     1       2.297  12.262  18.430  0.00  0.00    +0.000 C 
ATOM     29  C   UNL     1       1.319  12.579  19.525  0.00  0.00    +0.000 A 
ATOM     30  C   UNL     1       0.763  13.848  19.692  0.00  0.00    +0.000 A 
ATOM     31  C   UNL     1      -0.095  14.154  20.779  0.00  0.00    +0.000 A 
ATOM     32  C   UNL     1      -0.482  15.596  20.953  0.00  0.00    +0.000 C 
ATOM     33  C   UNL     1      -0.473  13.126  21.674  0.00  0.00    +0.000 A 
ATOM     34  C   UNL     1       0.057  11.826  21.478  0.00  0.00    +0.000 A 
ATOM     35  C   UNL     1      -0.331  10.617  22.283  0.00  0.00    +0.000 C 
ATOM     36  C   UNL     1       0.964  11.582  20.427  0.00  0.00    +0.000 A 
ENDBRANCH  27  33
ENDBRANCH   1  27
TORSDOF 5
ENDMDL
MODEL 4
REMARK VINA RESULT:      -8.0      6.175      9.073
REMARK  Name = 
REMARK  8 active torsions:
REMARK  status: ('A' for Active; 'I' for Inactive)
REMARK    1  A    between atoms: C_1  and  C_2
REMARK    2  A    between atoms: C_4  and  C_5
REMARK    3  A    between atoms: C_6  and  O_7
REMARK    4  A    between atoms: O_7  and  C_8
REMARK    5  A    between atoms: N_11  and  C_12
REMARK    6  A    between atoms: N_15  and  C_16
REMARK    7  A    between atoms: C_16  and  C_17
REMARK    8  A    between atoms: C_33  and  C_34
REMARK                            x       y       z     vdW  Elec       q    Type
REMARK                         _______ _______ _______ _____ _____    ______ ____
ROOT
ATOM      1  C   UNL     1       3.826   4.928  19.722  0.00  0.00    +0.000 A 
ATOM      2  C   UNL     1       3.427   6.217  19.738  0.00  0.00    +0.000 A 
ATOM      3  C   UNL     1       2.079   6.571  20.348  0.00  0.00    +0.000 A 
ATOM      4  N   UNL     1       1.766   7.929  20.451  0.00  0.00    +0.000 N 
ATOM      5  N   UNL     1       1.259   5.645  20.772  0.00  0.00    +0.000 NA
ATOM      6  C   UNL     1       1.651   4.335  20.653  0.00  0.00    +0.000 A 
ATOM      7  N   UNL     1       0.947   3.238  20.850  0.00  0.00    +0.000 NA
ATOM      8  C   UNL     1       1.839   2.236  20.631  0.00  0.00    +0.000 A 
ATOM      9  N   UNL     1       3.076   2.620  20.332  0.00  0.00    +0.000 NA
ATOM     10  N   UNL     1       2.941   3.967  20.227  0.00  0.00    +0.000 N 
ATOM     11  H   UNL     1       1.915   8.451  19.593  0.00  0.00    +0.000 HD
ENDROOT
BRANCH   4  12
ATOM     12  C   UNL     1       0.716   8.518  21.308  0.00  0.00    +0.000 C 
ATOM     13  C   UNL     1      -0.563   8.842  20.518  0.00  0.00    +0.000 C 
ATOM     14  C   UNL     1      -0.382   9.990  19.506  0.00  0.00    +0.000 C 
ATOM     15  N   UNL     1       0.296  11.236  19.975  0.00  0.00    +0.000 NA
ATOM     16  C   UNL     1       1.418  10.916  20.866  0.00  0.00    +0.000 C 
ATOM     17  C   UNL     1       1.148   9.839  21.927  0.00  0.00    +0.000 C 
BRANCH  15  18
ATOM     18  C   UNL     1       0.724  11.984  18.743  0.00  0.00    +0.000 C 
BRANCH  18  19
ATOM     19  C   UNL     1       1.323  13.382  18.659  0.00  0.00    +0.000 A 
ATOM     20  C   UNL     1       2.596  13.802  18.268  0.00  0.00    +0.000 A 
ATOM     21  F   UNL     1       3.573  12.940  17.975  0.00  0.00    +0.000 F 
ATOM     22  C   UNL     1       2.930  15.164  18.134  0.00  0.00    +0.000 A 
ATOM     23  C   UNL     1       1.996  16.163  18.392  0.00  0.00    +0.000 A 
ATOM     24  C   UNL     1       0.722  15.787  18.784  0.00  0.00    +0.000 A 
ATOM     25  C   UNL     1       0.405  14.430  18.908  0.00  0.00    +0.000 A 
ATOM     26  F   UNL     1      -0.865  14.123  19.242  0.00  0.00    +0.000 F 
ENDBRANCH  18  19
ENDBRANCH  15  18
ENDBRANCH   4  12
BRANCH   1  27
ATOM     27  O   UNL     1       5.104   4.604  19.230  0.00  0.00    +0.000 OA
BRANCH  27  33
ATOM     28  C   UNL     1       6.900   4.934  13.799  0.00  0.00    +0.000 C 
ATOM     29  C   UNL     1       6.425   4.944  15.224  0.00  0.00    +0.000 A 
ATOM     30  C   UNL     1       7.089   5.643  16.233  0.00  0.00    +0.000 A 
ATOM     31  C   UNL     1       6.676   5.576  17.588  0.00  0.00    +0.000 A 
ATOM     32  C   UNL     1       7.576   6.223  18.604  0.00  0.00    +0.000 C 
ATOM     33  C   UNL     1       5.508   4.853  17.922  0.00  0.00    +0.000 A 
ATOM     34  C   UNL     1       4.809   4.178  16.890  0.00  0.00    +0.000 A 
ATOM     35  C   UNL     1       3.502   3.457  17.076  0.00  0.00    +0.000 C 
ATOM     36  C   UNL     1       5.294   4.211  15.567  0.00  0.00    +0.000 A 
ENDBRANCH  27  33
ENDBRANCH   1  27
TORSDOF 5
ENDMDL
MODEL 5
REMARK VINA RESULT:      -8.0      1.458      1.953
REMARK  Name = 
REMARK  8 active torsions:
REMARK  status: ('A' for Active; 'I' for Inactive)
REMARK    1  A    between atoms: C_1  and  C_2
REMARK    2  A    between atoms: C_4  and  C_5
REMARK    3  A    between atoms: C_6  and  O_7
REMARK    4  A    between atoms: O_7  and  C_8
REMARK    5  A    between atoms: N_11  and  C_12
REMARK    6  A    between atoms: N_15  and  C_16
REMARK    7  A    between atoms: C_16  and  C_17
REMARK    8  A    between atoms: C_33  and  C_34
REMARK                            x       y       z     vdW  Elec       q    Type
REMARK                         _______ _______ _______ _____ _____    ______ ____
ROOT
ATOM      1  C   UNL     1      -1.595  13.562  23.607  0.00  0.00    +0.000 A 
ATOM      2  C   UNL     1      -2.825  13.029  23.448  0.00  0.00    +0.000 A 
ATOM      3  C   UNL     1      -4.041  13.806  23.930  0.00  0.00    +0.000 A 
ATOM      4  N   UNL     1      -5.295  13.268  23.633  0.00  0.00    +0.000 N 
ATOM      5  N   UNL     1      -3.915  14.935  24.578  0.00  0.00    +0.000 NA
ATOM      6  C   UNL     1      -2.646  15.404  24.810  0.00  0.00    +0.000 A 
ATOM      7  N   UNL     1      -2.262  16.411  25.571  0.00  0.00    +0.000 NA
ATOM      8  C   UNL     1      -0.914  16.451  25.399  0.00  0.00    +0.000 A 
ATOM      9  N   UNL     1      -0.412  15.551  24.560  0.00  0.00    +0.000 NA
ATOM     10  N   UNL     1      -1.502  14.795  24.264  0.00  0.00    +0.000 N 
ATOM     11  H   UNL     1      -5.387  12.285  23.869  0.00  0.00    +0.000 HD
ENDROOT
BRANCH   4  12
ATOM     12  C   UNL     1      -6.584  13.991  23.671  0.00  0.00    +0.000 C 
ATOM     13  C   UNL     1      -7.782  13.051  23.459  0.00  0.00    +0.000 C 
ATOM     14  C   UNL     1      -7.858  12.466  22.036  0.00  0.00    +0.000 C 
ATOM     15  N   UNL     1      -7.694  13.404  20.885  0.00  0.00    +0.000 NA
ATOM     16  C   UNL     1      -6.656  14.403  21.168  0.00  0.00    +0.000 C 
ATOM     17  C   UNL     1      -6.695  15.033  22.568  0.00  0.00    +0.000 C 
BRANCH  15  18
ATOM     18  C   UNL     1      -7.377  12.559  19.682  0.00  0.00    +0.000 C 
BRANCH  18  19
ATOM     19  C   UNL     1      -6.013  12.289  19.062  0.00  0.00    +0.000 A 
ATOM     20  C   UNL     1      -4.769  12.076  19.661  0.00  0.00    +0.000 A 
ATOM     21  F   UNL     1      -4.585  12.183  20.979  0.00  0.00    +0.000 F 
ATOM     22  C   UNL     1      -3.629  11.714  18.917  0.00  0.00    +0.000 A 
ATOM     23  C   UNL     1      -3.691  11.552  17.536  0.00  0.00    +0.000 A 
ATOM     24  C   UNL     1      -4.906  11.755  16.905  0.00  0.00    +0.000 A 
ATOM     25  C   UNL     1      -6.031  12.111  17.658  0.00  0.00    +0.000 A 
ATOM     26  F   UNL     1      -7.198  12.243  16.996  0.00  0.00    +0.000 F 
ENDBRANCH  18  19
ENDBRANCH  15  18
ENDBRANCH   4  12
BRANCH   1  27
ATOM     27  O   UNL     1      -0.474  12.884  23.095  0.00  0.00    +0.000 OA
BRANCH  27  33
ATOM     28  C   UNL     1       0.209   9.997  18.194  0.00  0.00    +0.000 C 
ATOM     29  C   UNL     1      -0.049  10.794  19.440  0.00  0.00    +0.000 A 
ATOM     30  C   UNL     1      -0.175  12.184  19.431  0.00  0.00    +0.000 A 
ATOM     31  C   UNL     1      -0.335  12.930  20.627  0.00  0.00    +0.000 A 
ATOM     32  C   UNL     1      -0.276  14.427  20.506  0.00  0.00    +0.000 C 
ATOM     33  C   UNL     1      -0.461  12.247  21.859  0.00  0.00    +0.000 A 
ATOM     34  C   UNL     1      -0.377  10.832  21.861  0.00  0.00    +0.000 A 
ATOM     35  C   UNL     1      -0.592   9.968  23.074  0.00  0.00    +0.000 C 
ATOM     36  C   UNL     1      -0.144  10.133  20.659  0.00  0.00    +0.000 A 
ENDBRANCH  27  33
ENDBRANCH   1  27
TORSDOF 5
ENDMDL
MODEL 6
REMARK VINA RESULT:      -7.8      6.191      9.212
REMARK  Name = 
REMARK  8 active torsions:
REMARK  status: ('A' for Active; 'I' for Inactive)
REMARK    1  A    between atoms: C_1  and  C_2
REMARK    2  A    between atoms: C_4  and  C_5
REMARK    3  A    between atoms: C_6  and  O_7
REMARK    4  A    between atoms: O_7  and  C_8
REMARK    5  A    between atoms: N_11  and  C_12
REMARK    6  A    between atoms: N_15  and  C_16
REMARK    7  A    between atoms: C_16  and  C_17
REMARK    8  A    between atoms: C_33  and  C_34
REMARK                            x       y       z     vdW  Elec       q    Type
REMARK                         _______ _______ _______ _____ _____    ______ ____
ROOT
ATOM      1  C   UNL     1       3.862   5.186  19.739  0.00  0.00    +0.000 A 
ATOM      2  C   UNL     1       3.428   6.446  19.532  0.00  0.00    +0.000 A 
ATOM      3  C   UNL     1       2.027   6.834  19.981  0.00  0.00    +0.000 A 
ATOM      4  N   UNL     1       1.670   8.179  19.856  0.00  0.00    +0.000 N 
ATOM      5  N   UNL     1       1.202   5.949  20.477  0.00  0.00    +0.000 NA
ATOM      6  C   UNL     1       1.638   4.653  20.585  0.00  0.00    +0.000 A 
ATOM      7  N   UNL     1       0.950   3.569  20.892  0.00  0.00    +0.000 NA
ATOM      8  C   UNL     1       1.884   2.582  20.892  0.00  0.00    +0.000 A 
ATOM      9  N   UNL     1       3.130   2.965  20.631  0.00  0.00    +0.000 NA
ATOM     10  N   UNL     1       2.966   4.276  20.315  0.00  0.00    +0.000 N 
ATOM     11  H   UNL     1       1.871   8.574  18.943  0.00  0.00    +0.000 HD
ENDROOT
BRANCH   4  12
ATOM     12  C   UNL     1       0.540   8.847  20.535  0.00  0.00    +0.000 C 
ATOM     13  C   UNL     1      -0.400   9.550  19.541  0.00  0.00    +0.000 C 
ATOM     14  C   UNL     1       0.242  10.768  18.850  0.00  0.00    +0.000 C 
ATOM     15  N   UNL     1       0.965  11.757  19.705  0.00  0.00    +0.000 NA
ATOM     16  C   UNL     1       1.730  11.077  20.758  0.00  0.00    +0.000 C 
ATOM     17  C   UNL     1       1.002   9.939  21.488  0.00  0.00    +0.000 C 
BRANCH  15  18
ATOM     18  C   UNL     1       1.833  12.569  18.785  0.00  0.00    +0.000 C 
BRANCH  18  19
ATOM     19  C   UNL     1       1.808  14.075  18.562  0.00  0.00    +0.000 A 
ATOM     20  C   UNL     1       0.799  15.012  18.802  0.00  0.00    +0.000 A 
ATOM     21  F   UNL     1      -0.420  14.657  19.214  0.00  0.00    +0.000 F 
ATOM     22  C   UNL     1       1.007  16.396  18.647  0.00  0.00    +0.000 A 
ATOM     23  C   UNL     1       2.239  16.899  18.241  0.00  0.00    +0.000 A 
ATOM     24  C   UNL     1       3.265  16.002  17.990  0.00  0.00    +0.000 A 
ATOM     25  C   UNL     1       3.044  14.630  18.153  0.00  0.00    +0.000 A 
ATOM     26  F   UNL     1       4.093  13.809  17.947  0.00  0.00    +0.000 F 
ENDBRANCH  18  19
ENDBRANCH  15  18
ENDBRANCH   4  12
BRANCH   1  27
ATOM     27  O   UNL     1       5.183   4.842  19.396  0.00  0.00    +0.000 OA
BRANCH  27  33
ATOM     28  C   UNL     1       6.875   4.943  13.924  0.00  0.00    +0.000 C 
ATOM     29  C   UNL     1       6.440   4.821  15.355  0.00  0.00    +0.000 A 
ATOM     30  C   UNL     1       5.358   4.030  15.748  0.00  0.00    +0.000 A 
ATOM     31  C   UNL     1       4.908   3.990  17.092  0.00  0.00    +0.000 A 
ATOM     32  C   UNL     1       3.627   3.248  17.356  0.00  0.00    +0.000 C 
ATOM     33  C   UNL     1       5.623   4.698  18.085  0.00  0.00    +0.000 A 
ATOM     34  C   UNL     1       6.748   5.466  17.693  0.00  0.00    +0.000 A 
ATOM     35  C   UNL     1       7.662   6.187  18.645  0.00  0.00    +0.000 C 
ATOM     36  C   UNL     1       7.119   5.537  16.334  0.00  0.00    +0.000 A 
ENDBRANCH  27  33
ENDBRANCH   1  27
TORSDOF 5
ENDMDL
MODEL 7
REMARK VINA RESULT:      -7.8      1.672      2.814
REMARK  Name = 
REMARK  8 active torsions:
REMARK  status: ('A' for Active; 'I' for Inactive)
REMARK    1  A    between atoms: C_1  and  C_2
REMARK    2  A    between atoms: C_4  and  C_5
REMARK    3  A    between atoms: C_6  and  O_7
REMARK    4  A    between atoms: O_7  and  C_8
REMARK    5  A    between atoms: N_11  and  C_12
REMARK    6  A    between atoms: N_15  and  C_16
REMARK    7  A    between atoms: C_16  and  C_17
REMARK    8  A    between atoms: C_33  and  C_34
REMARK                            x       y       z     vdW  Elec       q    Type
REMARK                         _______ _______ _______ _____ _____    ______ ____
ROOT
ATOM      1  C   UNL     1      -1.470  13.236  23.263  0.00  0.00    +0.000 A 
ATOM      2  C   UNL     1      -2.621  12.540  23.164  0.00  0.00    +0.000 A 
ATOM      3  C   UNL     1      -3.848  13.016  23.928  0.00  0.00    +0.000 A 
ATOM      4  N   UNL     1      -5.044  12.334  23.696  0.00  0.00    +0.000 N 
ATOM      5  N   UNL     1      -3.785  14.031  24.750  0.00  0.00    +0.000 NA
ATOM      6  C   UNL     1      -2.576  14.661  24.905  0.00  0.00    +0.000 A 
ATOM      7  N   UNL     1      -2.226  15.582  25.782  0.00  0.00    +0.000 NA
ATOM      8  C   UNL     1      -0.939  15.870  25.454  0.00  0.00    +0.000 A 
ATOM      9  N   UNL     1      -0.448  15.213  24.408  0.00  0.00    +0.000 NA
ATOM     10  N   UNL     1      -1.452  14.346  24.118  0.00  0.00    +0.000 N 
ATOM     11  H   UNL     1      -4.959  11.324  23.758  0.00  0.00    +0.000 HD
ENDROOT
BRANCH   4  12
ATOM     12  C   UNL     1      -6.401  12.818  24.026  0.00  0.00    +0.000 C 
ATOM     13  C   UNL     1      -7.467  12.246  23.076  0.00  0.00    +0.000 C 
ATOM     14  C   UNL     1      -7.349  12.774  21.634  0.00  0.00    +0.000 C 
ATOM     15  N   UNL     1      -7.183  14.246  21.440  0.00  0.00    +0.000 NA
ATOM     16  C   UNL     1      -6.289  14.810  22.459  0.00  0.00    +0.000 C 
ATOM     17  C   UNL     1      -6.522  14.329  23.898  0.00  0.00    +0.000 C 
BRANCH  15  18
ATOM     18  C   UNL     1      -6.669  14.441  20.040  0.00  0.00    +0.000 C 
BRANCH  18  19
ATOM     19  C   UNL     1      -6.035  13.404  19.124  0.00  0.00    +0.000 A 
ATOM     20  C   UNL     1      -4.940  12.560  19.328  0.00  0.00    +0.000 A 
ATOM     21  F   UNL     1      -4.183  12.627  20.426  0.00  0.00    +0.000 F 
ATOM     22  C   UNL     1      -4.574  11.567  18.399  0.00  0.00    +0.000 A 
ATOM     23  C   UNL     1      -5.292  11.380  17.222  0.00  0.00    +0.000 A 
ATOM     24  C   UNL     1      -6.383  12.199  16.982  0.00  0.00    +0.000 A 
ATOM     25  C   UNL     1      -6.737  13.178  17.916  0.00  0.00    +0.000 A 
ATOM     26  F   UNL     1      -7.840  13.909  17.655  0.00  0.00    +0.000 F 
ENDBRANCH  18  19
ENDBRANCH  15  18
ENDBRANCH   4  12
BRANCH   1  27
ATOM     27  O   UNL     1      -0.354  12.845  22.500  0.00  0.00    +0.000 OA
BRANCH  27  33
ATOM     28  C   UNL     1      -1.419  10.071  17.601  0.00  0.00    +0.000 C 
ATOM     29  C   UNL     1      -1.054  10.754  18.887  0.00  0.00    +0.000 A 
ATOM     30  C   UNL     1      -0.676  10.050  20.032  0.00  0.00    +0.000 A 
ATOM     31  C   UNL     1      -0.415  10.705  21.263  0.00  0.00    +0.000 A 
ATOM     32  C   UNL     1      -0.196   9.828  22.465  0.00  0.00    +0.000 C 
ATOM     33  C   UNL     1      -0.450  12.117  21.318  0.00  0.00    +0.000 A 
ATOM     34  C   UNL     1      -0.791  12.834  20.143  0.00  0.00    +0.000 A 
ATOM     35  C   UNL     1      -0.771  14.333  20.024  0.00  0.00    +0.000 C 
ATOM     36  C   UNL     1      -1.115  12.141  18.959  0.00  0.00    +0.000 A 
ENDBRANCH  27  33
ENDBRANCH   1  27
TORSDOF 5
ENDMDL
MODEL 8
REMARK VINA RESULT:      -7.7      1.932      3.073
REMARK  Name = 
REMARK  8 active torsions:
REMARK  status: ('A' for Active; 'I' for Inactive)
REMARK    1  A    between atoms: C_1  and  C_2
REMARK    2  A    between atoms: C_4  and  C_5
REMARK    3  A    between atoms: C_6  and  O_7
REMARK    4  A    between atoms: O_7  and  C_8
REMARK    5  A    between atoms: N_11  and  C_12
REMARK    6  A    between atoms: N_15  and  C_16
REMARK    7  A    between atoms: C_16  and  C_17
REMARK    8  A    between atoms: C_33  and  C_34
REMARK                            x       y       z     vdW  Elec       q    Type
REMARK                         _______ _______ _______ _____ _____    ______ ____
ROOT
ATOM      1  C   UNL     1      -3.969  14.334  23.052  0.00  0.00    +0.000 A 
ATOM      2  C   UNL     1      -4.390  13.184  22.485  0.00  0.00    +0.000 A 
ATOM      3  C   UNL     1      -5.863  13.018  22.140  0.00  0.00    +0.000 A 
ATOM      4  N   UNL     1      -6.225  11.862  21.445  0.00  0.00    +0.000 N 
ATOM      5  N   UNL     1      -6.744  13.928  22.467  0.00  0.00    +0.000 NA
ATOM      6  C   UNL     1      -6.301  15.044  23.131  0.00  0.00    +0.000 A 
ATOM      7  N   UNL     1      -7.005  16.002  23.702  0.00  0.00    +0.000 NA
ATOM      8  C   UNL     1      -6.062  16.864  24.167  0.00  0.00    +0.000 A 
ATOM      9  N   UNL     1      -4.800  16.534  23.908  0.00  0.00    +0.000 NA
ATOM     10  N   UNL     1      -4.935  15.305  23.345  0.00  0.00    +0.000 N 
ATOM     11  H   UNL     1      -5.858  11.007  21.851  0.00  0.00    +0.000 HD
ENDROOT
BRANCH   4  12
ATOM     12  C   UNL     1      -7.487  11.652  20.703  0.00  0.00    +0.000 C 
ATOM     13  C   UNL     1      -7.425  10.413  19.795  0.00  0.00    +0.000 C 
ATOM     14  C   UNL     1      -6.452  10.570  18.610  0.00  0.00    +0.000 C 
ATOM     15  N   UNL     1      -6.526  11.828  17.808  0.00  0.00    +0.000 NA
ATOM     16  C   UNL     1      -6.752  12.990  18.677  0.00  0.00    +0.000 C 
ATOM     17  C   UNL     1      -7.811  12.812  19.774  0.00  0.00    +0.000 C 
BRANCH  15  18
ATOM     18  C   UNL     1      -5.241  11.920  17.032  0.00  0.00    +0.000 C 
BRANCH  18  19
ATOM     19  C   UNL     1      -3.852  11.470  17.466  0.00  0.00    +0.000 A 
ATOM     20  C   UNL     1      -3.119  11.768  18.618  0.00  0.00    +0.000 A 
ATOM     21  F   UNL     1      -3.550  12.642  19.530  0.00  0.00    +0.000 F 
ATOM     22  C   UNL     1      -1.886  11.150  18.904  0.00  0.00    +0.000 A 
ATOM     23  C   UNL     1      -1.336  10.206  18.043  0.00  0.00    +0.000 A 
ATOM     24  C   UNL     1      -2.031   9.885  16.889  0.00  0.00    +0.000 A 
ATOM     25  C   UNL     1      -3.257  10.504  16.620  0.00  0.00    +0.000 A 
ATOM     26  F   UNL     1      -3.914  10.113  15.510  0.00  0.00    +0.000 F 
ENDBRANCH  18  19
ENDBRANCH  15  18
ENDBRANCH   4  12
BRANCH   1  27
ATOM     27  O   UNL     1      -2.598  14.523  23.301  0.00  0.00    +0.000 OA
BRANCH  27  33
ATOM     28  C   UNL     1       0.943  13.884  18.843  0.00  0.00    +0.000 C 
ATOM     29  C   UNL     1       0.090  14.034  20.069  0.00  0.00    +0.000 A 
ATOM     30  C   UNL     1      -0.018  13.033  21.037  0.00  0.00    +0.000 A 
ATOM     31  C   UNL     1      -0.892  13.155  22.147  0.00  0.00    +0.000 A 
ATOM     32  C   UNL     1      -1.057  11.941  23.018  0.00  0.00    +0.000 C 
ATOM     33  C   UNL     1      -1.612  14.358  22.334  0.00  0.00    +0.000 A 
ATOM     34  C   UNL     1      -1.467  15.391  21.375  0.00  0.00    +0.000 A 
ATOM     35  C   UNL     1      -2.087  16.757  21.493  0.00  0.00    +0.000 C 
ATOM     36  C   UNL     1      -0.644  15.201  20.247  0.00  0.00    +0.000 A 
ENDBRANCH  27  33
ENDBRANCH   1  27
TORSDOF 5
ENDMDL
MODEL 9
REMARK VINA RESULT:      -7.7      6.213      9.231
REMARK  Name = 
REMARK  8 active torsions:
REMARK  status: ('A' for Active; 'I' for Inactive)
REMARK    1  A    between atoms: C_1  and  C_2
REMARK    2  A    between atoms: C_4  and  C_5
REMARK    3  A    between atoms: C_6  and  O_7
REMARK    4  A    between atoms: O_7  and  C_8
REMARK    5  A    between atoms: N_11  and  C_12
REMARK    6  A    between atoms: N_15  and  C_16
REMARK    7  A    between atoms: C_16  and  C_17
REMARK    8  A    between atoms: C_33  and  C_34
REMARK                            x       y       z     vdW  Elec       q    Type
REMARK                         _______ _______ _______ _____ _____    ______ ____
ROOT
ATOM      1  C   UNL     1       3.871   5.158  19.739  0.00  0.00    +0.000 A 
ATOM      2  C   UNL     1       3.455   6.425  19.533  0.00  0.00    +0.000 A 
ATOM      3  C   UNL     1       2.062   6.835  19.987  0.00  0.00    +0.000 A 
ATOM      4  N   UNL     1       1.726   8.185  19.863  0.00  0.00    +0.000 N 
ATOM      5  N   UNL     1       1.225   5.964  20.487  0.00  0.00    +0.000 NA
ATOM      6  C   UNL     1       1.642   4.660  20.594  0.00  0.00    +0.000 A 
ATOM      7  N   UNL     1       0.938   3.588  20.904  0.00  0.00    +0.000 NA
ATOM      8  C   UNL     1       1.857   2.586  20.901  0.00  0.00    +0.000 A 
ATOM      9  N   UNL     1       3.107   2.950  20.635  0.00  0.00    +0.000 NA
ATOM     10  N   UNL     1       2.963   4.263  20.319  0.00  0.00    +0.000 N 
ATOM     11  H   UNL     1       1.930   8.577  18.949  0.00  0.00    +0.000 HD
ENDROOT
BRANCH   4  12
ATOM     12  C   UNL     1       0.609   8.872  20.546  0.00  0.00    +0.000 C 
ATOM     13  C   UNL     1      -0.385   9.493  19.551  0.00  0.00    +0.000 C 
ATOM     14  C   UNL     1       0.201  10.679  18.761  0.00  0.00    +0.000 C 
ATOM     15  N   UNL     1       0.936  11.732  19.524  0.00  0.00    +0.000 NA
ATOM     16  C   UNL     1       1.757  11.134  20.583  0.00  0.00    +0.000 C 
ATOM     17  C   UNL     1       1.085  10.030  21.411  0.00  0.00    +0.000 C 
BRANCH  15  18
ATOM     18  C   UNL     1       1.748  12.503  18.521  0.00  0.00    +0.000 C 
BRANCH  18  19
ATOM     19  C   UNL     1       2.082  13.989  18.532  0.00  0.00    +0.000 A 
ATOM     20  C   UNL     1       3.278  14.653  18.246  0.00  0.00    +0.000 A 
ATOM     21  F   UNL     1       4.413  13.999  17.990  0.00  0.00    +0.000 F 
ATOM     22  C   UNL     1       3.361  16.058  18.188  0.00  0.00    +0.000 A 
ATOM     23  C   UNL     1       2.245  16.857  18.418  0.00  0.00    +0.000 A 
ATOM     24  C   UNL     1       1.041  16.236  18.706  0.00  0.00    +0.000 A 
ATOM     25  C   UNL     1       0.973  14.839  18.756  0.00  0.00    +0.000 A 
ATOM     26  F   UNL     1      -0.236  14.290  18.988  0.00  0.00    +0.000 F 
ENDBRANCH  18  19
ENDBRANCH  15  18
ENDBRANCH   4  12
BRANCH   1  27
ATOM     27  O   UNL     1       5.184   4.794  19.391  0.00  0.00    +0.000 OA
BRANCH  27  33
ATOM     28  C   UNL     1       6.863   4.931  13.916  0.00  0.00    +0.000 C 
ATOM     29  C   UNL     1       6.432   4.799  15.347  0.00  0.00    +0.000 A 
ATOM     30  C   UNL     1       5.352   4.005  15.737  0.00  0.00    +0.000 A 
ATOM     31  C   UNL     1       4.905   3.956  17.082  0.00  0.00    +0.000 A 
ATOM     32  C   UNL     1       3.626   3.210  17.345  0.00  0.00    +0.000 C 
ATOM     33  C   UNL     1       5.621   4.659  18.078  0.00  0.00    +0.000 A 
ATOM     34  C   UNL     1       6.745   5.430  17.688  0.00  0.00    +0.000 A 
ATOM     35  C   UNL     1       7.660   6.147  18.643  0.00  0.00    +0.000 C 
ATOM     36  C   UNL     1       7.112   5.510  16.329  0.00  0.00    +0.000 A 
ENDBRANCH  27  33
ENDBRANCH   1  27
TORSDOF 5
ENDMDL
