MODEL 1
REMARK VINA RESULT:      -8.6      0.000      0.000
REMARK  Name = 
REMARK  6 active torsions:
REMARK  status: ('A' for Active; 'I' for Inactive)
REMARK    1  A    between atoms: C_1  and  C_2
REMARK    2  A    between atoms: C_3  and  C_4
REMARK    3  A    between atoms: N_6  and  C_7
REMARK    4  A    between atoms: C_10  and  C_11
REMARK    5  A    between atoms: N_16  and  C_17
REMARK    6  A    between atoms: C_23  and  C_24
REMARK                            x       y       z     vdW  Elec       q    Type
REMARK                         _______ _______ _______ _____ _____    ______ ____
ROOT
ATOM      1  C   UNL     1       1.661   8.158  19.905  0.00  0.00    +0.000 A 
ATOM      2  C   UNL     1       1.333   8.090  21.262  0.00  0.00    +0.000 A 
ATOM      3  C   UNL     1       0.657   9.143  21.888  0.00  0.00    +0.000 A 
ATOM      4  C   UNL     1       0.303  10.281  21.159  0.00  0.00    +0.000 A 
ATOM      5  C   UNL     1       0.674  10.369  19.812  0.00  0.00    +0.000 A 
ATOM      6  C   UNL     1       1.321   9.305  19.184  0.00  0.00    +0.000 A 
ENDROOT
BRANCH   4   7
ATOM      7  C   UNL     1      -0.312  11.420  21.880  0.00  0.00    +0.000 C 
ATOM      8  O   UNL     1      -0.369  11.340  23.106  0.00  0.00    +0.000 OA
ATOM      9  N   UNL     1      -0.752  12.540  21.190  0.00  0.00    +0.000 N 
ATOM     10  C   UNL     1      -1.048  13.751  21.948  0.00  0.00    +0.000 C 
ATOM     11  C   UNL     1      -0.270  14.958  21.397  0.00  0.00    +0.000 C 
ATOM     12  N   UNL     1      -0.432  15.095  19.934  0.00  0.00    +0.000 N 
ATOM     13  C   UNL     1      -0.181  13.850  19.170  0.00  0.00    +0.000 C 
ATOM     14  C   UNL     1      -1.010  12.684  19.749  0.00  0.00    +0.000 C 
BRANCH  12  15
ATOM     15  C   UNL     1      -0.869  16.263  19.327  0.00  0.00    +0.000 A 
ATOM     16  C   UNL     1      -0.109  16.825  18.278  0.00  0.00    +0.000 A 
ATOM     17  C   UNL     1      -0.492  17.990  17.611  0.00  0.00    +0.000 A 
ATOM     18 CL   UNL     1       0.505  18.631  16.362  0.00  0.00    +0.000 Cl
ATOM     19  C   UNL     1      -1.671  18.630  17.947  0.00  0.00    +0.000 A 
ATOM     20  C   UNL     1      -2.449  18.113  18.972  0.00  0.00    +0.000 A 
ATOM     21  C   UNL     1      -2.053  16.959  19.689  0.00  0.00    +0.000 A 
ATOM     22  C   UNL     1      -2.943  16.579  20.847  0.00  0.00    +0.000 C 
ENDBRANCH  12  15
ENDBRANCH   4   7
BRANCH   1  25
ATOM     23  C   UNL     1       2.645   5.877  19.667  0.00  0.00    +0.000 C 
ATOM     24  O   UNL     1       2.132   5.379  20.667  0.00  0.00    +0.000 OA
ATOM     25  N   UNL     1       2.374   7.156  19.223  0.00  0.00    +0.000 N 
ATOM     26  H   UNL     1       2.716   7.377  18.294  0.00  0.00    +0.000 HD
BRANCH  23  29
ATOM     27  C   UNL     1       1.696   3.881  17.531  0.00  0.00    +0.000 C 
ATOM     28  C   UNL     1       3.134   4.246  17.803  0.00  0.00    +0.000 C 
ATOM     29  C   UNL     1       3.582   5.082  18.770  0.00  0.00    +0.000 C 
ATOM     30  S   UNL     1       5.285   5.180  19.145  0.00  0.00    +0.000 S 
ATOM     31  C   UNL     1       5.972   4.958  17.499  0.00  0.00    +0.000 C 
ATOM     32  C   UNL     1       5.269   3.920  16.639  0.00  0.00    +0.000 C 
ATOM     33  O   UNL     1       3.947   3.516  16.964  0.00  0.00    +0.000 OA
ENDBRANCH  23  29
ENDBRANCH   1  25
TORSDOF 4
ENDMDL
MODEL 2
REMARK VINA RESULT:      -8.5      1.689      2.325
REMARK  Name = 
REMARK  6 active torsions:
REMARK  status: ('A' for Active; 'I' for Inactive)
REMARK    1  A    between atoms: C_1  and  C_2
REMARK    2  A    between atoms: C_3  and  C_4
REMARK    3  A    between atoms: N_6  and  C_7
REMARK    4  A    between atoms: C_10  and  C_11
REMARK    5  A    between atoms: N_16  and  C_17
REMARK    6  A    between atoms: C_23  and  C_24
REMARK                            x       y       z     vdW  Elec       q    Type
REMARK                         _______ _______ _______ _____ _____    ______ ____
ROOT
ATOM      1  C   UNL     1       2.464   7.604  18.570  0.00  0.00    +0.000 A 
ATOM      2  C   UNL     1       2.056   7.431  19.896  0.00  0.00    +0.000 A 
ATOM      3  C   UNL     1       1.287   8.407  20.539  0.00  0.00    +0.000 A 
ATOM      4  C   UNL     1       0.919   9.571  19.860  0.00  0.00    +0.000 A 
ATOM      5  C   UNL     1       1.368   9.765  18.548  0.00  0.00    +0.000 A 
ATOM      6  C   UNL     1       2.109   8.776  17.900  0.00  0.00    +0.000 A 
ENDROOT
BRANCH   4   7
ATOM      7  C   UNL     1       0.200  10.629  20.606  0.00  0.00    +0.000 C 
ATOM      8  O   UNL     1      -0.162  10.358  21.751  0.00  0.00    +0.000 OA
ATOM      9  N   UNL     1      -0.002  11.881  20.043  0.00  0.00    +0.000 N 
ATOM     10  C   UNL     1      -0.418  12.976  20.913  0.00  0.00    +0.000 C 
ATOM     11  C   UNL     1       0.529  14.182  20.786  0.00  0.00    +0.000 C 
ATOM     12  N   UNL     1       0.740  14.566  19.374  0.00  0.00    +0.000 N 
ATOM     13  C   UNL     1       1.112  13.444  18.482  0.00  0.00    +0.000 C 
ATOM     14  C   UNL     1       0.112  12.278  18.632  0.00  0.00    +0.000 C 
BRANCH  12  15
ATOM     15  C   UNL     1       0.522  15.851  18.900  0.00  0.00    +0.000 A 
ATOM     16  C   UNL     1      -0.771  16.412  18.986  0.00  0.00    +0.000 A 
ATOM     17  C   UNL     1      -1.063  17.703  18.542  0.00  0.00    +0.000 A 
ATOM     18 CL   UNL     1      -2.673  18.304  18.652  0.00  0.00    +0.000 Cl
ATOM     19  C   UNL     1      -0.064  18.503  18.018  0.00  0.00    +0.000 A 
ATOM     20  C   UNL     1       1.222  17.992  17.916  0.00  0.00    +0.000 A 
ATOM     21  C   UNL     1       1.526  16.671  18.317  0.00  0.00    +0.000 A 
ATOM     22  C   UNL     1       2.940  16.220  18.045  0.00  0.00    +0.000 C 
ENDBRANCH  12  15
ENDBRANCH   4   7
BRANCH   1  25
ATOM     23  C   UNL     1       4.248   5.866  18.407  0.00  0.00    +0.000 C 
ATOM     24  O   UNL     1       4.421   5.704  19.613  0.00  0.00    +0.000 OA
ATOM     25  N   UNL     1       3.270   6.684  17.877  0.00  0.00    +0.000 N 
ATOM     26  H   UNL     1       3.115   6.587  16.879  0.00  0.00    +0.000 HD
BRANCH  23  29
ATOM     27  C   UNL     1       3.465   3.108  17.300  0.00  0.00    +0.000 C 
ATOM     28  C   UNL     1       4.667   3.909  16.868  0.00  0.00    +0.000 C 
ATOM     29  C   UNL     1       5.062   5.102  17.374  0.00  0.00    +0.000 C 
ATOM     30  S   UNL     1       6.628   5.765  16.973  0.00  0.00    +0.000 S 
ATOM     31  C   UNL     1       6.766   5.212  15.270  0.00  0.00    +0.000 C 
ATOM     32  C   UNL     1       6.259   3.803  15.004  0.00  0.00    +0.000 C 
ATOM     33  O   UNL     1       5.368   3.191  15.925  0.00  0.00    +0.000 OA
ENDBRANCH  23  29
ENDBRANCH   1  25
TORSDOF 4
ENDMDL
MODEL 3
REMARK VINA RESULT:      -8.4      3.135      4.196
REMARK  Name = 
REMARK  6 active torsions:
REMARK  status: ('A' for Active; 'I' for Inactive)
REMARK    1  A    between atoms: C_1  and  C_2
REMARK    2  A    between atoms: C_3  and  C_4
REMARK    3  A    between atoms: N_6  and  C_7
REMARK    4  A    between atoms: C_10  and  C_11
REMARK    5  A    between atoms: N_16  and  C_17
REMARK    6  A    between atoms: C_23  and  C_24
REMARK                            x       y       z     vdW  Elec       q    Type
REMARK                         _______ _______ _______ _____ _____    ______ ____
ROOT
ATOM      1  C   UNL     1       2.000   7.633  19.432  0.00  0.00    +0.000 A 
ATOM      2  C   UNL     1       2.088   8.388  18.259  0.00  0.00    +0.000 A 
ATOM      3  C   UNL     1       1.410   9.606  18.142  0.00  0.00    +0.000 A 
ATOM      4  C   UNL     1       0.632  10.081  19.200  0.00  0.00    +0.000 A 
ATOM      5  C   UNL     1       0.506   9.301  20.356  0.00  0.00    +0.000 A 
ATOM      6  C   UNL     1       1.207   8.103  20.481  0.00  0.00    +0.000 A 
ENDROOT
BRANCH   4   7
ATOM      7  C   UNL     1      -0.159  11.318  18.998  0.00  0.00    +0.000 C 
ATOM      8  O   UNL     1      -0.662  11.484  17.888  0.00  0.00    +0.000 OA
ATOM      9  N   UNL     1      -0.355  12.212  20.041  0.00  0.00    +0.000 N 
ATOM     10  C   UNL     1      -1.387  13.232  19.897  0.00  0.00    +0.000 C 
ATOM     11  C   UNL     1      -2.376  13.196  21.074  0.00  0.00    +0.000 C 
ATOM     12  N   UNL     1      -1.679  13.210  22.377  0.00  0.00    +0.000 N 
ATOM     13  C   UNL     1      -0.595  12.206  22.503  0.00  0.00    +0.000 C 
ATOM     14  C   UNL     1       0.380  12.310  21.311  0.00  0.00    +0.000 C 
BRANCH  12  15
ATOM     15  C   UNL     1      -1.949  14.139  23.371  0.00  0.00    +0.000 A 
ATOM     16  C   UNL     1      -1.109  15.266  23.513  0.00  0.00    +0.000 A 
ATOM     17  C   UNL     1      -1.326  16.249  24.480  0.00  0.00    +0.000 A 
ATOM     18 CL   UNL     1      -0.239  17.578  24.610  0.00  0.00    +0.000 Cl
ATOM     19  C   UNL     1      -2.413  16.163  25.331  0.00  0.00    +0.000 A 
ATOM     20  C   UNL     1      -3.264  15.072  25.226  0.00  0.00    +0.000 A 
ATOM     21  C   UNL     1      -3.033  14.044  24.283  0.00  0.00    +0.000 A 
ATOM     22  C   UNL     1      -3.979  12.870  24.361  0.00  0.00    +0.000 C 
ENDBRANCH  12  15
ENDBRANCH   4   7
BRANCH   1  25
ATOM     23  C   UNL     1       2.436   5.248  18.840  0.00  0.00    +0.000 C 
ATOM     24  O   UNL     1       1.820   5.235  17.776  0.00  0.00    +0.000 OA
ATOM     25  N   UNL     1       2.621   6.383  19.603  0.00  0.00    +0.000 N 
ATOM     26  H   UNL     1       3.296   6.297  20.356  0.00  0.00    +0.000 HD
BRANCH  23  29
ATOM     27  C   UNL     1       5.405   4.600  18.387  0.00  0.00    +0.000 C 
ATOM     28  C   UNL     1       4.448   3.768  19.205  0.00  0.00    +0.000 C 
ATOM     29  C   UNL     1       3.126   4.004  19.379  0.00  0.00    +0.000 C 
ATOM     30  S   UNL     1       2.095   2.799  20.112  0.00  0.00    +0.000 S 
ATOM     31  C   UNL     1       3.241   2.109  21.312  0.00  0.00    +0.000 C 
ATOM     32  C   UNL     1       4.668   1.933  20.817  0.00  0.00    +0.000 C 
ATOM     33  O   UNL     1       5.114   2.662  19.684  0.00  0.00    +0.000 OA
ENDBRANCH  23  29
ENDBRANCH   1  25
TORSDOF 4
ENDMDL
MODEL 4
REMARK VINA RESULT:      -8.3      4.106     10.982
REMARK  Name = 
REMARK  6 active torsions:
REMARK  status: ('A' for Active; 'I' for Inactive)
REMARK    1  A    between atoms: C_1  and  C_2
REMARK    2  A    between atoms: C_3  and  C_4
REMARK    3  A    between atoms: N_6  and  C_7
REMARK    4  A    between atoms: C_10  and  C_11
REMARK    5  A    between atoms: N_16  and  C_17
REMARK    6  A    between atoms: C_23  and  C_24
REMARK                            x       y       z     vdW  Elec       q    Type
REMARK                         _______ _______ _______ _____ _____    ______ ____
ROOT
ATOM      1  C   UNL     1       0.526  10.382  20.699  0.00  0.00    +0.000 A 
ATOM      2  C   UNL     1       0.784   9.561  21.801  0.00  0.00    +0.000 A 
ATOM      3  C   UNL     1       1.355   8.295  21.631  0.00  0.00    +0.000 A 
ATOM      4  C   UNL     1       1.674   7.836  20.351  0.00  0.00    +0.000 A 
ATOM      5  C   UNL     1       1.372   8.639  19.244  0.00  0.00    +0.000 A 
ATOM      6  C   UNL     1       0.831   9.912  19.420  0.00  0.00    +0.000 A 
ENDROOT
BRANCH   4   7
ATOM      7  C   UNL     1       2.174   6.450  20.201  0.00  0.00    +0.000 C 
ATOM      8  O   UNL     1       1.607   5.577  20.857  0.00  0.00    +0.000 OA
ATOM      9  N   UNL     1       3.204   6.159  19.317  0.00  0.00    +0.000 N 
ATOM     10  C   UNL     1       3.445   4.764  18.964  0.00  0.00    +0.000 C 
ATOM     11  C   UNL     1       3.429   4.563  17.439  0.00  0.00    +0.000 C 
ATOM     12  N   UNL     1       4.307   5.531  16.749  0.00  0.00    +0.000 N 
ATOM     13  C   UNL     1       4.097   6.943  17.147  0.00  0.00    +0.000 C 
ATOM     14  C   UNL     1       4.152   7.087  18.682  0.00  0.00    +0.000 C 
BRANCH  12  15
ATOM     15  C   UNL     1       5.308   5.149  15.868  0.00  0.00    +0.000 A 
ATOM     16  C   UNL     1       4.961   4.493  14.666  0.00  0.00    +0.000 A 
ATOM     17  C   UNL     1       5.911   4.091  13.726  0.00  0.00    +0.000 A 
ATOM     18 CL   UNL     1       5.410   3.268  12.299  0.00  0.00    +0.000 Cl
ATOM     19  C   UNL     1       7.253   4.356  13.933  0.00  0.00    +0.000 A 
ATOM     20  C   UNL     1       7.639   4.998  15.101  0.00  0.00    +0.000 A 
ATOM     21  C   UNL     1       6.694   5.371  16.085  0.00  0.00    +0.000 A 
ATOM     22  C   UNL     1       7.273   5.961  17.347  0.00  0.00    +0.000 C 
ENDBRANCH  12  15
ENDBRANCH   4   7
BRANCH   1  25
ATOM     23  C   UNL     1       0.521  12.838  21.141  0.00  0.00    +0.000 C 
ATOM     24  O   UNL     1       1.738  12.982  21.244  0.00  0.00    +0.000 OA
ATOM     25  N   UNL     1      -0.082  11.646  20.793  0.00  0.00    +0.000 N 
ATOM     26  H   UNL     1      -1.069  11.707  20.565  0.00  0.00    +0.000 HD
BRANCH  23  29
ATOM     27  C   UNL     1      -0.192  14.826  18.908  0.00  0.00    +0.000 C 
ATOM     28  C   UNL     1      -0.772  14.837  20.301  0.00  0.00    +0.000 C 
ATOM     29  C   UNL     1      -0.439  14.005  21.316  0.00  0.00    +0.000 C 
ATOM     30  S   UNL     1      -0.984  14.324  22.945  0.00  0.00    +0.000 S 
ATOM     31  C   UNL     1      -2.607  15.009  22.593  0.00  0.00    +0.000 C 
ATOM     32  C   UNL     1      -2.670  15.941  21.393  0.00  0.00    +0.000 C 
ATOM     33  O   UNL     1      -1.644  15.897  20.414  0.00  0.00    +0.000 OA
ENDBRANCH  23  29
ENDBRANCH   1  25
TORSDOF 4
ENDMDL
MODEL 5
REMARK VINA RESULT:      -8.2      4.147     10.995
REMARK  Name = 
REMARK  6 active torsions:
REMARK  status: ('A' for Active; 'I' for Inactive)
REMARK    1  A    between atoms: C_1  and  C_2
REMARK    2  A    between atoms: C_3  and  C_4
REMARK    3  A    between atoms: N_6  and  C_7
REMARK    4  A    between atoms: C_10  and  C_11
REMARK    5  A    between atoms: N_16  and  C_17
REMARK    6  A    between atoms: C_23  and  C_24
REMARK                            x       y       z     vdW  Elec       q    Type
REMARK                         _______ _______ _______ _____ _____    ______ ____
ROOT
ATOM      1  C   UNL     1       0.207   9.695  20.650  0.00  0.00    +0.000 A 
ATOM      2  C   UNL     1       0.110   8.695  21.622  0.00  0.00    +0.000 A 
ATOM      3  C   UNL     1       0.824   7.500  21.491  0.00  0.00    +0.000 A 
ATOM      4  C   UNL     1       1.644   7.291  20.379  0.00  0.00    +0.000 A 
ATOM      5  C   UNL     1       1.704   8.272  19.382  0.00  0.00    +0.000 A 
ATOM      6  C   UNL     1       1.014   9.475  19.531  0.00  0.00    +0.000 A 
ENDROOT
BRANCH   4   7
ATOM      7  C   UNL     1       2.297   5.970  20.219  0.00  0.00    +0.000 C 
ATOM      8  O   UNL     1       1.869   5.048  20.913  0.00  0.00    +0.000 OA
ATOM      9  N   UNL     1       3.309   5.788  19.288  0.00  0.00    +0.000 N 
ATOM     10  C   UNL     1       3.696   4.426  18.940  0.00  0.00    +0.000 C 
ATOM     11  C   UNL     1       3.630   4.199  17.419  0.00  0.00    +0.000 C 
ATOM     12  N   UNL     1       4.354   5.251  16.676  0.00  0.00    +0.000 N 
ATOM     13  C   UNL     1       3.998   6.635  17.068  0.00  0.00    +0.000 C 
ATOM     14  C   UNL     1       4.110   6.810  18.597  0.00  0.00    +0.000 C 
BRANCH  12  15
ATOM     15  C   UNL     1       5.350   4.975  15.750  0.00  0.00    +0.000 A 
ATOM     16  C   UNL     1       5.017   4.300  14.555  0.00  0.00    +0.000 A 
ATOM     17  C   UNL     1       5.961   3.999  13.572  0.00  0.00    +0.000 A 
ATOM     18 CL   UNL     1       5.482   3.145  12.155  0.00  0.00    +0.000 Cl
ATOM     19  C   UNL     1       7.279   4.388  13.729  0.00  0.00    +0.000 A 
ATOM     20  C   UNL     1       7.650   5.054  14.888  0.00  0.00    +0.000 A 
ATOM     21  C   UNL     1       6.716   5.326  15.914  0.00  0.00    +0.000 A 
ATOM     22  C   UNL     1       7.288   5.957  17.160  0.00  0.00    +0.000 C 
ENDBRANCH  12  15
ENDBRANCH   4   7
BRANCH   1  25
ATOM     23  C   UNL     1      -0.088  12.106  21.225  0.00  0.00    +0.000 C 
ATOM     24  O   UNL     1       1.071  12.328  21.571  0.00  0.00    +0.000 OA
ATOM     25  N   UNL     1      -0.512  10.902  20.698  0.00  0.00    +0.000 N 
ATOM     26  H   UNL     1      -1.440  10.909  20.286  0.00  0.00    +0.000 HD
BRANCH  23  29
ATOM     27  C   UNL     1      -2.472  12.066  23.164  0.00  0.00    +0.000 C 
ATOM     28  C   UNL     1      -2.172  13.166  22.177  0.00  0.00    +0.000 C 
ATOM     29  C   UNL     1      -1.158  13.185  21.279  0.00  0.00    +0.000 C 
ATOM     30  S   UNL     1      -1.112  14.389  20.013  0.00  0.00    +0.000 S 
ATOM     31  C   UNL     1      -1.799  15.791  20.903  0.00  0.00    +0.000 C 
ATOM     32  C   UNL     1      -2.958  15.464  21.831  0.00  0.00    +0.000 C 
ATOM     33  O   UNL     1      -3.155  14.127  22.266  0.00  0.00    +0.000 OA
ENDBRANCH  23  29
ENDBRANCH   1  25
TORSDOF 4
ENDMDL
MODEL 6
REMARK VINA RESULT:      -8.2      1.736      2.536
REMARK  Name = 
REMARK  6 active torsions:
REMARK  status: ('A' for Active; 'I' for Inactive)
REMARK    1  A    between atoms: C_1  and  C_2
REMARK    2  A    between atoms: C_3  and  C_4
REMARK    3  A    between atoms: N_6  and  C_7
REMARK    4  A    between atoms: C_10  and  C_11
REMARK    5  A    between atoms: N_16  and  C_17
REMARK    6  A    between atoms: C_23  and  C_24
REMARK                            x       y       z     vdW  Elec       q    Type
REMARK                         _______ _______ _______ _____ _____    ______ ____
ROOT
ATOM      1  C   UNL     1       1.470   7.641  20.519  0.00  0.00    +0.000 A 
ATOM      2  C   UNL     1       0.582   7.744  21.593  0.00  0.00    +0.000 A 
ATOM      3  C   UNL     1       0.037   8.981  21.954  0.00  0.00    +0.000 A 
ATOM      4  C   UNL     1       0.379  10.132  21.241  0.00  0.00    +0.000 A 
ATOM      5  C   UNL     1       1.305  10.036  20.195  0.00  0.00    +0.000 A 
ATOM      6  C   UNL     1       1.823   8.797  19.820  0.00  0.00    +0.000 A 
ENDROOT
BRANCH   4   7
ATOM      7  C   UNL     1      -0.130  11.439  21.720  0.00  0.00    +0.000 C 
ATOM      8  O   UNL     1      -0.447  11.514  22.906  0.00  0.00    +0.000 OA
ATOM      9  N   UNL     1      -0.192  12.531  20.867  0.00  0.00    +0.000 N 
ATOM     10  C   UNL     1      -0.388  13.855  21.446  0.00  0.00    +0.000 C 
ATOM     11  C   UNL     1       0.709  14.833  20.989  0.00  0.00    +0.000 C 
ATOM     12  N   UNL     1       0.873  14.824  19.520  0.00  0.00    +0.000 N 
ATOM     13  C   UNL     1       1.021  13.474  18.928  0.00  0.00    +0.000 C 
ATOM     14  C   UNL     1      -0.121  12.549  19.398  0.00  0.00    +0.000 C 
BRANCH  12  15
ATOM     15  C   UNL     1       0.807  15.973  18.745  0.00  0.00    +0.000 A 
ATOM     16  C   UNL     1      -0.413  16.677  18.653  0.00  0.00    +0.000 A 
ATOM     17  C   UNL     1      -0.553  17.846  17.903  0.00  0.00    +0.000 A 
ATOM     18 CL   UNL     1      -2.083  18.631  17.814  0.00  0.00    +0.000 Cl
ATOM     19  C   UNL     1       0.534  18.381  17.235  0.00  0.00    +0.000 A 
ATOM     20  C   UNL     1       1.753  17.721  17.299  0.00  0.00    +0.000 A 
ATOM     21  C   UNL     1       1.901  16.511  18.015  0.00  0.00    +0.000 A 
ATOM     22  C   UNL     1       3.255  15.853  17.904  0.00  0.00    +0.000 C 
ENDBRANCH  12  15
ENDBRANCH   4   7
BRANCH   1  25
ATOM     23  C   UNL     1       2.385   6.035  18.842  0.00  0.00    +0.000 C 
ATOM     24  O   UNL     1       2.311   6.772  17.861  0.00  0.00    +0.000 OA
ATOM     25  N   UNL     1       2.085   6.438  20.128  0.00  0.00    +0.000 N 
ATOM     26  H   UNL     1       2.361   5.795  20.862  0.00  0.00    +0.000 HD
BRANCH  23  29
ATOM     27  C   UNL     1       5.313   5.221  19.300  0.00  0.00    +0.000 C 
ATOM     28  C   UNL     1       4.185   4.270  18.986  0.00  0.00    +0.000 C 
ATOM     29  C   UNL     1       2.898   4.607  18.731  0.00  0.00    +0.000 C 
ATOM     30  S   UNL     1       1.776   3.424  18.103  0.00  0.00    +0.000 S 
ATOM     31  C   UNL     1       2.363   1.961  18.964  0.00  0.00    +0.000 C 
ATOM     32  C   UNL     1       3.875   1.838  19.075  0.00  0.00    +0.000 C 
ATOM     33  O   UNL     1       4.688   2.990  18.908  0.00  0.00    +0.000 OA
ENDBRANCH  23  29
ENDBRANCH   1  25
TORSDOF 4
ENDMDL
MODEL 7
REMARK VINA RESULT:      -8.1      4.045     11.015
REMARK  Name = 
REMARK  6 active torsions:
REMARK  status: ('A' for Active; 'I' for Inactive)
REMARK    1  A    between atoms: C_1  and  C_2
REMARK    2  A    between atoms: C_3  and  C_4
REMARK    3  A    between atoms: N_6  and  C_7
REMARK    4  A    between atoms: C_10  and  C_11
REMARK    5  A    between atoms: N_16  and  C_17
REMARK    6  A    between atoms: C_23  and  C_24
REMARK                            x       y       z     vdW  Elec       q    Type
REMARK                         _______ _______ _______ _____ _____    ______ ____
ROOT
ATOM      1  C   UNL     1       0.528  10.319  20.268  0.00  0.00    +0.000 A 
ATOM      2  C   UNL     1       0.946   9.741  19.066  0.00  0.00    +0.000 A 
ATOM      3  C   UNL     1       1.473   8.445  19.042  0.00  0.00    +0.000 A 
ATOM      4  C   UNL     1       1.590   7.713  20.226  0.00  0.00    +0.000 A 
ATOM      5  C   UNL     1       1.215   8.310  21.436  0.00  0.00    +0.000 A 
ATOM      6  C   UNL     1       0.662   9.591  21.452  0.00  0.00    +0.000 A 
ENDROOT
BRANCH   4   7
ATOM      7  C   UNL     1       2.254   6.390  20.178  0.00  0.00    +0.000 C 
ATOM      8  O   UNL     1       1.830   5.524  20.944  0.00  0.00    +0.000 OA
ATOM      9  N   UNL     1       3.272   6.140  19.270  0.00  0.00    +0.000 N 
ATOM     10  C   UNL     1       3.672   4.757  19.036  0.00  0.00    +0.000 C 
ATOM     11  C   UNL     1       3.615   4.405  17.540  0.00  0.00    +0.000 C 
ATOM     12  N   UNL     1       4.335   5.398  16.715  0.00  0.00    +0.000 N 
ATOM     13  C   UNL     1       3.965   6.807  16.991  0.00  0.00    +0.000 C 
ATOM     14  C   UNL     1       4.068   7.108  18.501  0.00  0.00    +0.000 C 
BRANCH  12  15
ATOM     15  C   UNL     1       5.337   5.055  15.820  0.00  0.00    +0.000 A 
ATOM     16  C   UNL     1       4.992   4.436  14.598  0.00  0.00    +0.000 A 
ATOM     17  C   UNL     1       5.944   4.073  13.643  0.00  0.00    +0.000 A 
ATOM     18 CL   UNL     1       5.447   3.293  12.191  0.00  0.00    +0.000 Cl
ATOM     19  C   UNL     1       7.284   4.344  13.856  0.00  0.00    +0.000 A 
ATOM     20  C   UNL     1       7.667   4.952  15.042  0.00  0.00    +0.000 A 
ATOM     21  C   UNL     1       6.721   5.283  16.041  0.00  0.00    +0.000 A 
ATOM     22  C   UNL     1       7.298   5.838  17.320  0.00  0.00    +0.000 C 
ENDBRANCH  12  15
ENDBRANCH   4   7
BRANCH   1  25
ATOM     23  C   UNL     1       0.667  12.727  20.909  0.00  0.00    +0.000 C 
ATOM     24  O   UNL     1       1.858  12.739  21.216  0.00  0.00    +0.000 OA
ATOM     25  N   UNL     1       0.027  11.629  20.370  0.00  0.00    +0.000 N 
ATOM     26  H   UNL     1      -0.899  11.805  19.994  0.00  0.00    +0.000 HD
BRANCH  23  29
ATOM     27  C   UNL     1      -1.306  13.231  23.210  0.00  0.00    +0.000 C 
ATOM     28  C   UNL     1      -1.027  14.188  22.078  0.00  0.00    +0.000 C 
ATOM     29  C   UNL     1      -0.201  13.970  21.027  0.00  0.00    +0.000 C 
ATOM     30  S   UNL     1      -0.203  15.050  19.654  0.00  0.00    +0.000 S 
ATOM     31  C   UNL     1      -0.499  16.610  20.495  0.00  0.00    +0.000 C 
ATOM     32  C   UNL     1      -1.507  16.552  21.631  0.00  0.00    +0.000 C 
ATOM     33  O   UNL     1      -1.821  15.303  22.229  0.00  0.00    +0.000 OA
ENDBRANCH  23  29
ENDBRANCH   1  25
TORSDOF 4
ENDMDL
MODEL 8
REMARK VINA RESULT:      -8.1      2.221      3.043
REMARK  Name = 
REMARK  6 active torsions:
REMARK  status: ('A' for Active; 'I' for Inactive)
REMARK    1  A    between atoms: C_1  and  C_2
REMARK    2  A    between atoms: C_3  and  C_4
REMARK    3  A    between atoms: N_6  and  C_7
REMARK    4  A    between atoms: C_10  and  C_11
REMARK    5  A    between atoms: N_16  and  C_17
REMARK    6  A    between atoms: C_23  and  C_24
REMARK                            x       y       z     vdW  Elec       q    Type
REMARK                         _______ _______ _______ _____ _____    ______ ____
ROOT
ATOM      1  C   UNL     1       2.503   7.483  18.926  0.00  0.00    +0.000 A 
ATOM      2  C   UNL     1       2.158   6.940  20.167  0.00  0.00    +0.000 A 
ATOM      3  C   UNL     1       1.329   7.643  21.048  0.00  0.00    +0.000 A 
ATOM      4  C   UNL     1       0.837   8.901  20.695  0.00  0.00    +0.000 A 
ATOM      5  C   UNL     1       1.221   9.465  19.472  0.00  0.00    +0.000 A 
ATOM      6  C   UNL     1       2.023   8.749  18.584  0.00  0.00    +0.000 A 
ENDROOT
BRANCH   4   7
ATOM      7  C   UNL     1       0.054   9.661  21.697  0.00  0.00    +0.000 C 
ATOM      8  O   UNL     1       0.074   9.245  22.855  0.00  0.00    +0.000 OA
ATOM      9  N   UNL     1      -0.625  10.817  21.338  0.00  0.00    +0.000 N 
ATOM     10  C   UNL     1      -1.107  11.697  22.396  0.00  0.00    +0.000 C 
ATOM     11  C   UNL     1      -0.600  13.137  22.199  0.00  0.00    +0.000 C 
ATOM     12  N   UNL     1      -0.859  13.627  20.829  0.00  0.00    +0.000 N 
ATOM     13  C   UNL     1      -0.415  12.707  19.755  0.00  0.00    +0.000 C 
ATOM     14  C   UNL     1      -0.977  11.289  19.990  0.00  0.00    +0.000 C 
BRANCH  12  15
ATOM     15  C   UNL     1      -1.539  14.806  20.563  0.00  0.00    +0.000 A 
ATOM     16  C   UNL     1      -2.893  14.926  20.947  0.00  0.00    +0.000 A 
ATOM     17  C   UNL     1      -3.639  16.085  20.724  0.00  0.00    +0.000 A 
ATOM     18 CL   UNL     1      -5.294  16.143  21.193  0.00  0.00    +0.000 Cl
ATOM     19  C   UNL     1      -3.052  17.189  20.133  0.00  0.00    +0.000 A 
ATOM     20  C   UNL     1      -1.723  17.115  19.740  0.00  0.00    +0.000 A 
ATOM     21  C   UNL     1      -0.966  15.933  19.916  0.00  0.00    +0.000 A 
ATOM     22  C   UNL     1       0.429  15.966  19.341  0.00  0.00    +0.000 C 
ENDBRANCH  12  15
ENDBRANCH   4   7
BRANCH   1  25
ATOM     23  C   UNL     1       4.435   6.031  18.301  0.00  0.00    +0.000 C 
ATOM     24  O   UNL     1       4.673   5.594  19.425  0.00  0.00    +0.000 OA
ATOM     25  N   UNL     1       3.363   6.851  18.010  0.00  0.00    +0.000 N 
ATOM     26  H   UNL     1       3.176   6.989  17.022  0.00  0.00    +0.000 HD
BRANCH  23  29
ATOM     27  C   UNL     1       7.043   7.438  17.486  0.00  0.00    +0.000 C 
ATOM     28  C   UNL     1       6.445   6.241  16.788  0.00  0.00    +0.000 C 
ATOM     29  C   UNL     1       5.274   5.635  17.096  0.00  0.00    +0.000 C 
ATOM     30  S   UNL     1       4.577   4.447  16.021  0.00  0.00    +0.000 S 
ATOM     31  C   UNL     1       6.077   3.665  15.418  0.00  0.00    +0.000 C 
ATOM     32  C   UNL     1       7.231   4.613  15.130  0.00  0.00    +0.000 C 
ATOM     33  O   UNL     1       7.239   5.907  15.713  0.00  0.00    +0.000 OA
ENDBRANCH  23  29
ENDBRANCH   1  25
TORSDOF 4
ENDMDL
MODEL 9
REMARK VINA RESULT:      -8.0      1.766      2.540
REMARK  Name = 
REMARK  6 active torsions:
REMARK  status: ('A' for Active; 'I' for Inactive)
REMARK    1  A    between atoms: C_1  and  C_2
REMARK    2  A    between atoms: C_3  and  C_4
REMARK    3  A    between atoms: N_6  and  C_7
REMARK    4  A    between atoms: C_10  and  C_11
REMARK    5  A    between atoms: N_16  and  C_17
REMARK    6  A    between atoms: C_23  and  C_24
REMARK                            x       y       z     vdW  Elec       q    Type
REMARK                         _______ _______ _______ _____ _____    ______ ____
ROOT
ATOM      1  C   UNL     1       1.800   7.765  20.119  0.00  0.00    +0.000 A 
ATOM      2  C   UNL     1       1.382   8.765  19.236  0.00  0.00    +0.000 A 
ATOM      3  C   UNL     1       0.874   9.977  19.718  0.00  0.00    +0.000 A 
ATOM      4  C   UNL     1       0.777  10.200  21.093  0.00  0.00    +0.000 A 
ATOM      5  C   UNL     1       1.151   9.179  21.977  0.00  0.00    +0.000 A 
ATOM      6  C   UNL     1       1.685   7.985  21.493  0.00  0.00    +0.000 A 
ENDROOT
BRANCH   4   7
ATOM      7  C   UNL     1       0.134  11.448  21.565  0.00  0.00    +0.000 C 
ATOM      8  O   UNL     1      -0.254  11.470  22.732  0.00  0.00    +0.000 OA
ATOM      9  N   UNL     1       0.027  12.550  20.729  0.00  0.00    +0.000 N 
ATOM     10  C   UNL     1      -0.313  13.840  21.319  0.00  0.00    +0.000 C 
ATOM     11  C   UNL     1       0.720  14.916  20.943  0.00  0.00    +0.000 C 
ATOM     12  N   UNL     1       0.966  14.954  19.486  0.00  0.00    +0.000 N 
ATOM     13  C   UNL     1       1.260  13.634  18.879  0.00  0.00    +0.000 C 
ATOM     14  C   UNL     1       0.177  12.606  19.267  0.00  0.00    +0.000 C 
BRANCH  12  15
ATOM     15  C   UNL     1       0.846  16.109  18.728  0.00  0.00    +0.000 A 
ATOM     16  C   UNL     1      -0.409  16.752  18.639  0.00  0.00    +0.000 A 
ATOM     17  C   UNL     1      -0.604  17.924  17.907  0.00  0.00    +0.000 A 
ATOM     18 CL   UNL     1      -2.171  18.631  17.820  0.00  0.00    +0.000 Cl
ATOM     19  C   UNL     1       0.458  18.524  17.254  0.00  0.00    +0.000 A 
ATOM     20  C   UNL     1       1.709  17.927  17.316  0.00  0.00    +0.000 A 
ATOM     21  C   UNL     1       1.914  16.714  18.014  0.00  0.00    +0.000 A 
ATOM     22  C   UNL     1       3.301  16.128  17.901  0.00  0.00    +0.000 C 
ENDBRANCH  12  15
ENDBRANCH   4   7
BRANCH   1  25
ATOM     23  C   UNL     1       1.767   5.271  20.031  0.00  0.00    +0.000 C 
ATOM     24  O   UNL     1       0.687   5.108  20.596  0.00  0.00    +0.000 OA
ATOM     25  N   UNL     1       2.281   6.511  19.705  0.00  0.00    +0.000 N 
ATOM     26  H   UNL     1       3.083   6.501  19.083  0.00  0.00    +0.000 HD
BRANCH  23  29
ATOM     27  C   UNL     1       1.947   2.588  21.519  0.00  0.00    +0.000 C 
ATOM     28  C   UNL     1       2.632   2.907  20.213  0.00  0.00    +0.000 C 
ATOM     29  C   UNL     1       2.610   4.095  19.563  0.00  0.00    +0.000 C 
ATOM     30  S   UNL     1       3.683   4.394  18.217  0.00  0.00    +0.000 S 
ATOM     31  C   UNL     1       3.710   2.755  17.481  0.00  0.00    +0.000 C 
ATOM     32  C   UNL     1       3.762   1.602  18.470  0.00  0.00    +0.000 C 
ATOM     33  O   UNL     1       3.372   1.814  19.818  0.00  0.00    +0.000 OA
ENDBRANCH  23  29
ENDBRANCH   1  25
TORSDOF 4
ENDMDL
