MODEL 1
REMARK VINA RESULT:      -6.9      0.000      0.000
REMARK  Name = 
REMARK  13 active torsions:
REMARK  status: ('A' for Active; 'I' for Inactive)
REMARK    1  A    between atoms: C_1  and  C_2
REMARK    2  A    between atoms: C_2  and  C_3
REMARK    3  A    between atoms: C_2  and  C_4
REMARK    4  A    between atoms: C_4  and  N_5
REMARK    5  A    between atoms: N_5  and  C_6
REMARK    6  A    between atoms: N_5  and  S_11
REMARK    7  A    between atoms: C_6  and  C_7
REMARK    8  A    between atoms: N_9  and  O_10
REMARK    9  A    between atoms: S_11  and  C_14
REMARK   10  A    between atoms: C_17  and  O_18
REMARK   11  A    between atoms: O_18  and  C_19
REMARK   12  A    between atoms: C_19  and  C_20
REMARK   13  A    between atoms: C_19  and  C_21
REMARK                            x       y       z     vdW  Elec       q    Type
REMARK                         _______ _______ _______ _____ _____    ______ ____
ROOT
ATOM      1  S   UNL     1       3.805   5.494  19.222  0.00  0.00    +0.000 S 
ATOM      2  O   UNL     1       3.077   4.504  19.997  0.00  0.00    +0.000 OA
ATOM      3  O   UNL     1       5.162   5.850  19.591  0.00  0.00    +0.000 OA
ENDROOT
BRANCH   1   4
ATOM      4  C   UNL     1       2.826   6.970  19.163  0.00  0.00    +0.000 A 
ATOM      5  C   UNL     1       2.760   7.718  17.987  0.00  0.00    +0.000 A 
ATOM      6  C   UNL     1       1.975   8.878  17.953  0.00  0.00    +0.000 A 
ATOM      7  C   UNL     1       1.240   9.274  19.075  0.00  0.00    +0.000 A 
ATOM      8  C   UNL     1       1.273   8.487  20.226  0.00  0.00    +0.000 A 
ATOM      9  C   UNL     1       2.063   7.335  20.273  0.00  0.00    +0.000 A 
BRANCH   7  10
ATOM     10  O   UNL     1       0.586  10.469  18.950  0.00  0.00    +0.000 OA
BRANCH  10  11
ATOM     11  C   UNL     1      -0.832  10.494  19.160  0.00  0.00    +0.000 C 
ATOM     12  C   UNL     1      -1.302  11.876  19.615  0.00  0.00    +0.000 C 
ATOM     13  C   UNL     1      -1.472  10.180  17.807  0.00  0.00    +0.000 C 
ENDBRANCH  10  11
ENDBRANCH   7  10
ENDBRANCH   1   4
BRANCH   1  14
ATOM     14  N   UNL     1       3.811   4.962  17.583  0.00  0.00    +0.000 NA
BRANCH  14  15
ATOM     15  C   UNL     1       5.040   5.378  16.829  0.00  0.00    +0.000 C 
BRANCH  15  17
ATOM     16  C   UNL     1       6.185   4.036  14.983  0.00  0.00    +0.000 C 
ATOM     17  C   UNL     1       6.016   4.237  16.489  0.00  0.00    +0.000 C 
ATOM     18  C   UNL     1       7.384   4.537  17.118  0.00  0.00    +0.000 C 
ENDBRANCH  15  17
ENDBRANCH  14  15
BRANCH  14  19
ATOM     19  C   UNL     1       3.433   3.526  17.434  0.00  0.00    +0.000 C 
BRANCH  19  20
ATOM     20  C   UNL     1       1.961   3.231  17.646  0.00  0.00    +0.000 C 
ATOM     21  O   UNL     1       1.065   3.974  17.241  0.00  0.00    +0.000 OA
ATOM     22  N   UNL     1       1.689   2.064  18.325  0.00  0.00    +0.000 N 
ATOM     23  H   UNL     1       2.343   1.279  18.307  0.00  0.00    +0.000 HD
BRANCH  22  24
ATOM     24  O   UNL     1       0.315   1.729  18.411  0.00  0.00    +0.000 OA
ATOM     25  H   UNL     1      -0.113   2.432  17.878  0.00  0.00    +0.000 HD
ENDBRANCH  22  24
ENDBRANCH  19  20
ENDBRANCH  14  19
ENDBRANCH   1  14
TORSDOF 9
ENDMDL
MODEL 2
REMARK VINA RESULT:      -6.9      2.751      3.995
REMARK  Name = 
REMARK  13 active torsions:
REMARK  status: ('A' for Active; 'I' for Inactive)
REMARK    1  A    between atoms: C_1  and  C_2
REMARK    2  A    between atoms: C_2  and  C_3
REMARK    3  A    between atoms: C_2  and  C_4
REMARK    4  A    between atoms: C_4  and  N_5
REMARK    5  A    between atoms: N_5  and  C_6
REMARK    6  A    between atoms: N_5  and  S_11
REMARK    7  A    between atoms: C_6  and  C_7
REMARK    8  A    between atoms: N_9  and  O_10
REMARK    9  A    between atoms: S_11  and  C_14
REMARK   10  A    between atoms: C_17  and  O_18
REMARK   11  A    between atoms: O_18  and  C_19
REMARK   12  A    between atoms: C_19  and  C_20
REMARK   13  A    between atoms: C_19  and  C_21
REMARK                            x       y       z     vdW  Elec       q    Type
REMARK                         _______ _______ _______ _____ _____    ______ ____
ROOT
ATOM      1  S   UNL     1       4.348   4.765  17.805  0.00  0.00    +0.000 S 
ATOM      2  O   UNL     1       3.542   3.939  16.920  0.00  0.00    +0.000 OA
ATOM      3  O   UNL     1       4.994   4.173  18.961  0.00  0.00    +0.000 OA
ENDROOT
BRANCH   1   4
ATOM      4  C   UNL     1       3.348   6.124  18.345  0.00  0.00    +0.000 A 
ATOM      5  C   UNL     1       2.865   6.161  19.654  0.00  0.00    +0.000 A 
ATOM      6  C   UNL     1       2.083   7.246  20.068  0.00  0.00    +0.000 A 
ATOM      7  C   UNL     1       1.806   8.300  19.192  0.00  0.00    +0.000 A 
ATOM      8  C   UNL     1       2.339   8.277  17.903  0.00  0.00    +0.000 A 
ATOM      9  C   UNL     1       3.111   7.191  17.478  0.00  0.00    +0.000 A 
BRANCH   7  10
ATOM     10  O   UNL     1       0.958   9.257  19.681  0.00  0.00    +0.000 OA
BRANCH  10  11
ATOM     11  C   UNL     1       0.430  10.228  18.769  0.00  0.00    +0.000 C 
ATOM     12  C   UNL     1      -1.079  10.395  18.948  0.00  0.00    +0.000 C 
ATOM     13  C   UNL     1       1.112  11.554  19.111  0.00  0.00    +0.000 C 
ENDBRANCH  10  11
ENDBRANCH   7  10
ENDBRANCH   1   4
BRANCH   1  14
ATOM     14  N   UNL     1       5.556   5.526  16.840  0.00  0.00    +0.000 NA
BRANCH  14  15
ATOM     15  C   UNL     1       6.065   6.808  17.430  0.00  0.00    +0.000 C 
BRANCH  15  17
ATOM     16  C   UNL     1       8.142   8.252  17.775  0.00  0.00    +0.000 C 
ATOM     17  C   UNL     1       7.574   6.834  17.735  0.00  0.00    +0.000 C 
ATOM     18  C   UNL     1       7.829   6.146  19.083  0.00  0.00    +0.000 C 
ENDBRANCH  15  17
ENDBRANCH  14  15
BRANCH  14  19
ATOM     19  C   UNL     1       6.612   4.581  16.373  0.00  0.00    +0.000 C 
BRANCH  19  20
ATOM     20  C   UNL     1       6.863   4.595  14.877  0.00  0.00    +0.000 C 
ATOM     21  O   UNL     1       6.276   3.846  14.094  0.00  0.00    +0.000 OA
ATOM     22  N   UNL     1       7.795   5.513  14.448  0.00  0.00    +0.000 N 
ATOM     23  H   UNL     1       7.977   6.368  14.979  0.00  0.00    +0.000 HD
BRANCH  22  24
ATOM     24  O   UNL     1       7.934   5.611  13.042  0.00  0.00    +0.000 OA
ATOM     25  H   UNL     1       8.755   6.140  12.942  0.00  0.00    +0.000 HD
ENDBRANCH  22  24
ENDBRANCH  19  20
ENDBRANCH  14  19
ENDBRANCH   1  14
TORSDOF 9
ENDMDL
MODEL 3
REMARK VINA RESULT:      -6.8      2.056      2.679
REMARK  Name = 
REMARK  13 active torsions:
REMARK  status: ('A' for Active; 'I' for Inactive)
REMARK    1  A    between atoms: C_1  and  C_2
REMARK    2  A    between atoms: C_2  and  C_3
REMARK    3  A    between atoms: C_2  and  C_4
REMARK    4  A    between atoms: C_4  and  N_5
REMARK    5  A    between atoms: N_5  and  C_6
REMARK    6  A    between atoms: N_5  and  S_11
REMARK    7  A    between atoms: C_6  and  C_7
REMARK    8  A    between atoms: N_9  and  O_10
REMARK    9  A    between atoms: S_11  and  C_14
REMARK   10  A    between atoms: C_17  and  O_18
REMARK   11  A    between atoms: O_18  and  C_19
REMARK   12  A    between atoms: C_19  and  C_20
REMARK   13  A    between atoms: C_19  and  C_21
REMARK                            x       y       z     vdW  Elec       q    Type
REMARK                         _______ _______ _______ _____ _____    ______ ____
ROOT
ATOM      1  S   UNL     1       3.830   5.302  17.504  0.00  0.00    +0.000 S 
ATOM      2  O   UNL     1       4.595   5.903  16.424  0.00  0.00    +0.000 OA
ATOM      3  O   UNL     1       2.892   4.233  17.223  0.00  0.00    +0.000 OA
ENDROOT
BRANCH   1   4
ATOM      4  C   UNL     1       2.975   6.599  18.356  0.00  0.00    +0.000 A 
ATOM      5  C   UNL     1       2.770   7.830  17.730  0.00  0.00    +0.000 A 
ATOM      6  C   UNL     1       2.085   8.842  18.414  0.00  0.00    +0.000 A 
ATOM      7  C   UNL     1       1.586   8.622  19.702  0.00  0.00    +0.000 A 
ATOM      8  C   UNL     1       1.752   7.370  20.294  0.00  0.00    +0.000 A 
ATOM      9  C   UNL     1       2.444   6.357  19.624  0.00  0.00    +0.000 A 
BRANCH   7  10
ATOM     10  O   UNL     1       1.018   9.713  20.301  0.00  0.00    +0.000 OA
BRANCH  10  11
ATOM     11  C   UNL     1       0.595  10.802  19.470  0.00  0.00    +0.000 C 
ATOM     12  C   UNL     1      -0.927  10.839  19.335  0.00  0.00    +0.000 C 
ATOM     13  C   UNL     1       1.055  12.081  20.172  0.00  0.00    +0.000 C 
ENDBRANCH  10  11
ENDBRANCH   7  10
ENDBRANCH   1   4
BRANCH   1  14
ATOM     14  N   UNL     1       4.957   4.738  18.679  0.00  0.00    +0.000 NA
BRANCH  14  15
ATOM     15  C   UNL     1       5.899   5.803  19.158  0.00  0.00    +0.000 C 
BRANCH  15  17
ATOM     16  C   UNL     1       7.512   4.536  17.637  0.00  0.00    +0.000 C 
ATOM     17  C   UNL     1       7.324   5.725  18.579  0.00  0.00    +0.000 C 
ATOM     18  C   UNL     1       7.636   7.025  17.825  0.00  0.00    +0.000 C 
ENDBRANCH  15  17
ENDBRANCH  14  15
BRANCH  14  19
ATOM     19  C   UNL     1       4.321   3.925  19.757  0.00  0.00    +0.000 C 
BRANCH  19  20
ATOM     20  C   UNL     1       4.545   2.429  19.642  0.00  0.00    +0.000 C 
ATOM     21  O   UNL     1       5.106   1.769  20.519  0.00  0.00    +0.000 OA
ATOM     22  N   UNL     1       4.072   1.853  18.485  0.00  0.00    +0.000 N 
ATOM     23  H   UNL     1       3.293   2.267  17.970  0.00  0.00    +0.000 HD
BRANCH  22  24
ATOM     24  O   UNL     1       4.170   0.440  18.438  0.00  0.00    +0.000 OA
ATOM     25  H   UNL     1       4.911   0.254  19.055  0.00  0.00    +0.000 HD
ENDBRANCH  22  24
ENDBRANCH  19  20
ENDBRANCH  14  19
ENDBRANCH   1  14
TORSDOF 9
ENDMDL
MODEL 4
REMARK VINA RESULT:      -6.8      2.739      3.995
REMARK  Name = 
REMARK  13 active torsions:
REMARK  status: ('A' for Active; 'I' for Inactive)
REMARK    1  A    between atoms: C_1  and  C_2
REMARK    2  A    between atoms: C_2  and  C_3
REMARK    3  A    between atoms: C_2  and  C_4
REMARK    4  A    between atoms: C_4  and  N_5
REMARK    5  A    between atoms: N_5  and  C_6
REMARK    6  A    between atoms: N_5  and  S_11
REMARK    7  A    between atoms: C_6  and  C_7
REMARK    8  A    between atoms: N_9  and  O_10
REMARK    9  A    between atoms: S_11  and  C_14
REMARK   10  A    between atoms: C_17  and  O_18
REMARK   11  A    between atoms: O_18  and  C_19
REMARK   12  A    between atoms: C_19  and  C_20
REMARK   13  A    between atoms: C_19  and  C_21
REMARK                            x       y       z     vdW  Elec       q    Type
REMARK                         _______ _______ _______ _____ _____    ______ ____
ROOT
ATOM      1  S   UNL     1       4.471   4.192  17.952  0.00  0.00    +0.000 S 
ATOM      2  O   UNL     1       3.712   3.627  16.848  0.00  0.00    +0.000 OA
ATOM      3  O   UNL     1       5.165   3.318  18.878  0.00  0.00    +0.000 OA
ENDROOT
BRANCH   1   4
ATOM      4  C   UNL     1       3.390   5.253  18.872  0.00  0.00    +0.000 A 
ATOM      5  C   UNL     1       2.747   4.775  20.015  0.00  0.00    +0.000 A 
ATOM      6  C   UNL     1       1.903   5.628  20.735  0.00  0.00    +0.000 A 
ATOM      7  C   UNL     1       1.721   6.956  20.335  0.00  0.00    +0.000 A 
ATOM      8  C   UNL     1       2.412   7.435  19.223  0.00  0.00    +0.000 A 
ATOM      9  C   UNL     1       3.248   6.587  18.490  0.00  0.00    +0.000 A 
BRANCH   7  10
ATOM     10  O   UNL     1       0.804   7.663  21.064  0.00  0.00    +0.000 OA
BRANCH  10  11
ATOM     11  C   UNL     1       1.017   9.069  21.245  0.00  0.00    +0.000 C 
ATOM     12  C   UNL     1       0.123   9.890  20.316  0.00  0.00    +0.000 C 
ATOM     13  C   UNL     1       0.632   9.379  22.693  0.00  0.00    +0.000 C 
ENDBRANCH  10  11
ENDBRANCH   7  10
ENDBRANCH   1   4
BRANCH   1  14
ATOM     14  N   UNL     1       5.618   5.288  17.280  0.00  0.00    +0.000 NA
BRANCH  14  15
ATOM     15  C   UNL     1       7.041   4.878  17.518  0.00  0.00    +0.000 C 
BRANCH  15  17
ATOM     16  C   UNL     1       7.632   7.335  17.884  0.00  0.00    +0.000 C 
ATOM     17  C   UNL     1       7.889   5.890  18.310  0.00  0.00    +0.000 C 
ATOM     18  C   UNL     1       7.588   5.740  19.807  0.00  0.00    +0.000 C 
ENDBRANCH  15  17
ENDBRANCH  14  15
BRANCH  14  19
ATOM     19  C   UNL     1       5.299   5.680  15.876  0.00  0.00    +0.000 C 
BRANCH  19  20
ATOM     20  C   UNL     1       6.157   5.013  14.818  0.00  0.00    +0.000 C 
ATOM     21  O   UNL     1       7.316   5.358  14.583  0.00  0.00    +0.000 OA
ATOM     22  N   UNL     1       5.549   3.984  14.134  0.00  0.00    +0.000 N 
ATOM     23  H   UNL     1       4.794   3.441  14.558  0.00  0.00    +0.000 HD
BRANCH  22  24
ATOM     24  O   UNL     1       6.393   3.283  13.237  0.00  0.00    +0.000 OA
ATOM     25  H   UNL     1       6.918   4.003  12.826  0.00  0.00    +0.000 HD
ENDBRANCH  22  24
ENDBRANCH  19  20
ENDBRANCH  14  19
ENDBRANCH   1  14
TORSDOF 9
ENDMDL
MODEL 5
REMARK VINA RESULT:      -6.8      2.285      3.439
REMARK  Name = 
REMARK  13 active torsions:
REMARK  status: ('A' for Active; 'I' for Inactive)
REMARK    1  A    between atoms: C_1  and  C_2
REMARK    2  A    between atoms: C_2  and  C_3
REMARK    3  A    between atoms: C_2  and  C_4
REMARK    4  A    between atoms: C_4  and  N_5
REMARK    5  A    between atoms: N_5  and  C_6
REMARK    6  A    between atoms: N_5  and  S_11
REMARK    7  A    between atoms: C_6  and  C_7
REMARK    8  A    between atoms: N_9  and  O_10
REMARK    9  A    between atoms: S_11  and  C_14
REMARK   10  A    between atoms: C_17  and  O_18
REMARK   11  A    between atoms: O_18  and  C_19
REMARK   12  A    between atoms: C_19  and  C_20
REMARK   13  A    between atoms: C_19  and  C_21
REMARK                            x       y       z     vdW  Elec       q    Type
REMARK                         _______ _______ _______ _____ _____    ______ ____
ROOT
ATOM      1  S   UNL     1       3.550   4.847  18.452  0.00  0.00    +0.000 S 
ATOM      2  O   UNL     1       2.902   4.282  17.280  0.00  0.00    +0.000 OA
ATOM      3  O   UNL     1       3.626   4.079  19.680  0.00  0.00    +0.000 OA
ENDROOT
BRANCH   1   4
ATOM      4  C   UNL     1       2.786   6.407  18.801  0.00  0.00    +0.000 A 
ATOM      5  C   UNL     1       2.661   7.365  17.794  0.00  0.00    +0.000 A 
ATOM      6  C   UNL     1       2.047   8.590  18.084  0.00  0.00    +0.000 A 
ATOM      7  C   UNL     1       1.538   8.848  19.361  0.00  0.00    +0.000 A 
ATOM      8  C   UNL     1       1.622   7.861  20.342  0.00  0.00    +0.000 A 
ATOM      9  C   UNL     1       2.244   6.640  20.065  0.00  0.00    +0.000 A 
BRANCH   7  10
ATOM     10  O   UNL     1       1.045  10.111  19.547  0.00  0.00    +0.000 OA
BRANCH  10  11
ATOM     11  C   UNL     1      -0.364  10.266  19.759  0.00  0.00    +0.000 C 
ATOM     12  C   UNL     1      -0.666  11.510  20.594  0.00  0.00    +0.000 C 
ATOM     13  C   UNL     1      -0.991  10.442  18.375  0.00  0.00    +0.000 C 
ENDBRANCH  10  11
ENDBRANCH   7  10
ENDBRANCH   1   4
BRANCH   1  14
ATOM     14  N   UNL     1       5.151   5.289  17.991  0.00  0.00    +0.000 NA
BRANCH  14  15
ATOM     15  C   UNL     1       6.066   5.506  19.160  0.00  0.00    +0.000 C 
BRANCH  15  17
ATOM     16  C   UNL     1       7.823   7.101  18.216  0.00  0.00    +0.000 C 
ATOM     17  C   UNL     1       7.549   5.715  18.799  0.00  0.00    +0.000 C 
ATOM     18  C   UNL     1       8.407   5.513  20.055  0.00  0.00    +0.000 C 
ENDBRANCH  15  17
ENDBRANCH  14  15
BRANCH  14  19
ATOM     19  C   UNL     1       5.705   4.429  16.904  0.00  0.00    +0.000 C 
BRANCH  19  20
ATOM     20  C   UNL     1       6.167   5.181  15.671  0.00  0.00    +0.000 C 
ATOM     21  O   UNL     1       5.496   6.065  15.137  0.00  0.00    +0.000 OA
ATOM     22  N   UNL     1       7.400   4.808  15.186  0.00  0.00    +0.000 N 
ATOM     23  H   UNL     1       8.110   4.404  15.801  0.00  0.00    +0.000 HD
BRANCH  22  24
ATOM     24  O   UNL     1       7.884   5.597  14.112  0.00  0.00    +0.000 OA
ATOM     25  H   UNL     1       7.709   6.512  14.421  0.00  0.00    +0.000 HD
ENDBRANCH  22  24
ENDBRANCH  19  20
ENDBRANCH  14  19
ENDBRANCH   1  14
TORSDOF 9
ENDMDL
MODEL 6
REMARK VINA RESULT:      -6.8      2.677      3.665
REMARK  Name = 
REMARK  13 active torsions:
REMARK  status: ('A' for Active; 'I' for Inactive)
REMARK    1  A    between atoms: C_1  and  C_2
REMARK    2  A    between atoms: C_2  and  C_3
REMARK    3  A    between atoms: C_2  and  C_4
REMARK    4  A    between atoms: C_4  and  N_5
REMARK    5  A    between atoms: N_5  and  C_6
REMARK    6  A    between atoms: N_5  and  S_11
REMARK    7  A    between atoms: C_6  and  C_7
REMARK    8  A    between atoms: N_9  and  O_10
REMARK    9  A    between atoms: S_11  and  C_14
REMARK   10  A    between atoms: C_17  and  O_18
REMARK   11  A    between atoms: O_18  and  C_19
REMARK   12  A    between atoms: C_19  and  C_20
REMARK   13  A    between atoms: C_19  and  C_21
REMARK                            x       y       z     vdW  Elec       q    Type
REMARK                         _______ _______ _______ _____ _____    ______ ____
ROOT
ATOM      1  S   UNL     1       4.549   3.934  18.501  0.00  0.00    +0.000 S 
ATOM      2  O   UNL     1       3.680   2.890  17.983  0.00  0.00    +0.000 OA
ATOM      3  O   UNL     1       5.436   3.655  19.614  0.00  0.00    +0.000 OA
ENDROOT
BRANCH   1   4
ATOM      4  C   UNL     1       3.540   5.331  18.912  0.00  0.00    +0.000 A 
ATOM      5  C   UNL     1       3.430   6.400  18.022  0.00  0.00    +0.000 A 
ATOM      6  C   UNL     1       2.622   7.493  18.359  0.00  0.00    +0.000 A 
ATOM      7  C   UNL     1       1.908   7.509  19.561  0.00  0.00    +0.000 A 
ATOM      8  C   UNL     1       1.985   6.410  20.416  0.00  0.00    +0.000 A 
ATOM      9  C   UNL     1       2.798   5.320  20.094  0.00  0.00    +0.000 A 
BRANCH   7  10
ATOM     10  O   UNL     1       1.227   8.668  19.819  0.00  0.00    +0.000 OA
BRANCH  10  11
ATOM     11  C   UNL     1       1.028   9.050  21.186  0.00  0.00    +0.000 C 
ATOM     12  C   UNL     1       0.990  10.570  21.338  0.00  0.00    +0.000 C 
ATOM     13  C   UNL     1      -0.333   8.483  21.596  0.00  0.00    +0.000 C 
ENDBRANCH  10  11
ENDBRANCH   7  10
ENDBRANCH   1   4
BRANCH   1  14
ATOM     14  N   UNL     1       5.499   4.511  17.184  0.00  0.00    +0.000 NA
BRANCH  14  15
ATOM     15  C   UNL     1       6.975   4.465  17.452  0.00  0.00    +0.000 C 
BRANCH  15  17
ATOM     16  C   UNL     1       6.733   7.007  17.434  0.00  0.00    +0.000 C 
ATOM     17  C   UNL     1       7.617   5.818  17.810  0.00  0.00    +0.000 C 
ATOM     18  C   UNL     1       7.908   5.857  19.316  0.00  0.00    +0.000 C 
ENDBRANCH  15  17
ENDBRANCH  14  15
BRANCH  14  19
ATOM     19  C   UNL     1       5.077   3.949  15.868  0.00  0.00    +0.000 C 
BRANCH  19  20
ATOM     20  C   UNL     1       5.793   4.535  14.666  0.00  0.00    +0.000 C 
ATOM     21  O   UNL     1       5.967   5.746  14.518  0.00  0.00    +0.000 OA
ATOM     22  N   UNL     1       6.241   3.616  13.745  0.00  0.00    +0.000 N 
ATOM     23  H   UNL     1       6.465   2.657  14.021  0.00  0.00    +0.000 HD
BRANCH  22  24
ATOM     24  O   UNL     1       7.017   4.156  12.690  0.00  0.00    +0.000 OA
ATOM     25  H   UNL     1       7.919   3.830  12.896  0.00  0.00    +0.000 HD
ENDBRANCH  22  24
ENDBRANCH  19  20
ENDBRANCH  14  19
ENDBRANCH   1  14
TORSDOF 9
ENDMDL
MODEL 7
REMARK VINA RESULT:      -6.7      2.037      3.830
REMARK  Name = 
REMARK  13 active torsions:
REMARK  status: ('A' for Active; 'I' for Inactive)
REMARK    1  A    between atoms: C_1  and  C_2
REMARK    2  A    between atoms: C_2  and  C_3
REMARK    3  A    between atoms: C_2  and  C_4
REMARK    4  A    between atoms: C_4  and  N_5
REMARK    5  A    between atoms: N_5  and  C_6
REMARK    6  A    between atoms: N_5  and  S_11
REMARK    7  A    between atoms: C_6  and  C_7
REMARK    8  A    between atoms: N_9  and  O_10
REMARK    9  A    between atoms: S_11  and  C_14
REMARK   10  A    between atoms: C_17  and  O_18
REMARK   11  A    between atoms: O_18  and  C_19
REMARK   12  A    between atoms: C_19  and  C_20
REMARK   13  A    between atoms: C_19  and  C_21
REMARK                            x       y       z     vdW  Elec       q    Type
REMARK                         _______ _______ _______ _____ _____    ______ ____
ROOT
ATOM      1  S   UNL     1       4.000   3.919  18.178  0.00  0.00    +0.000 S 
ATOM      2  O   UNL     1       3.126   3.215  17.253  0.00  0.00    +0.000 OA
ATOM      3  O   UNL     1       4.450   3.264  19.392  0.00  0.00    +0.000 OA
ENDROOT
BRANCH   1   4
ATOM      4  C   UNL     1       3.217   5.448  18.613  0.00  0.00    +0.000 A 
ATOM      5  C   UNL     1       2.823   5.682  19.931  0.00  0.00    +0.000 A 
ATOM      6  C   UNL     1       2.214   6.899  20.260  0.00  0.00    +0.000 A 
ATOM      7  C   UNL     1       2.022   7.886  19.288  0.00  0.00    +0.000 A 
ATOM      8  C   UNL     1       2.470   7.660  17.987  0.00  0.00    +0.000 A 
ATOM      9  C   UNL     1       3.068   6.443  17.647  0.00  0.00    +0.000 A 
BRANCH   7  10
ATOM     10  O   UNL     1       1.336   8.992  19.709  0.00  0.00    +0.000 OA
BRANCH  10  11
ATOM     11  C   UNL     1       1.078  10.035  18.760  0.00  0.00    +0.000 C 
ATOM     12  C   UNL     1      -0.320   9.904  18.157  0.00  0.00    +0.000 C 
ATOM     13  C   UNL     1       1.154  11.351  19.537  0.00  0.00    +0.000 C 
ENDBRANCH  10  11
ENDBRANCH   7  10
ENDBRANCH   1   4
BRANCH   1  14
ATOM     14  N   UNL     1       5.386   4.426  17.290  0.00  0.00    +0.000 NA
BRANCH  14  15
ATOM     15  C   UNL     1       5.099   4.688  15.840  0.00  0.00    +0.000 C 
BRANCH  15  17
ATOM     16  C   UNL     1       5.470   3.825  13.466  0.00  0.00    +0.000 C 
ATOM     17  C   UNL     1       6.082   4.034  14.851  0.00  0.00    +0.000 C 
ATOM     18  C   UNL     1       7.333   4.913  14.727  0.00  0.00    +0.000 C 
ENDBRANCH  15  17
ENDBRANCH  14  15
BRANCH  14  19
ATOM     19  C   UNL     1       6.167   5.492  17.983  0.00  0.00    +0.000 C 
BRANCH  19  20
ATOM     20  C   UNL     1       7.452   5.019  18.634  0.00  0.00    +0.000 C 
ATOM     21  O   UNL     1       8.272   4.306  18.052  0.00  0.00    +0.000 OA
ATOM     22  N   UNL     1       7.645   5.446  19.928  0.00  0.00    +0.000 N 
ATOM     23  H   UNL     1       7.221   6.312  20.267  0.00  0.00    +0.000 HD
BRANCH  22  24
ATOM     24  O   UNL     1       8.902   5.108  20.488  0.00  0.00    +0.000 OA
ATOM     25  H   UNL     1       9.533   5.575  19.900  0.00  0.00    +0.000 HD
ENDBRANCH  22  24
ENDBRANCH  19  20
ENDBRANCH  14  19
ENDBRANCH   1  14
TORSDOF 9
ENDMDL
MODEL 8
REMARK VINA RESULT:      -6.7      2.698      4.141
REMARK  Name = 
REMARK  13 active torsions:
REMARK  status: ('A' for Active; 'I' for Inactive)
REMARK    1  A    between atoms: C_1  and  C_2
REMARK    2  A    between atoms: C_2  and  C_3
REMARK    3  A    between atoms: C_2  and  C_4
REMARK    4  A    between atoms: C_4  and  N_5
REMARK    5  A    between atoms: N_5  and  C_6
REMARK    6  A    between atoms: N_5  and  S_11
REMARK    7  A    between atoms: C_6  and  C_7
REMARK    8  A    between atoms: N_9  and  O_10
REMARK    9  A    between atoms: S_11  and  C_14
REMARK   10  A    between atoms: C_17  and  O_18
REMARK   11  A    between atoms: O_18  and  C_19
REMARK   12  A    between atoms: C_19  and  C_20
REMARK   13  A    between atoms: C_19  and  C_21
REMARK                            x       y       z     vdW  Elec       q    Type
REMARK                         _______ _______ _______ _____ _____    ______ ____
ROOT
ATOM      1  S   UNL     1       4.256   3.810  18.354  0.00  0.00    +0.000 S 
ATOM      2  O   UNL     1       3.402   3.013  17.488  0.00  0.00    +0.000 OA
ATOM      3  O   UNL     1       4.935   3.189  19.474  0.00  0.00    +0.000 OA
ENDROOT
BRANCH   1   4
ATOM      4  C   UNL     1       3.302   5.178  18.953  0.00  0.00    +0.000 A 
ATOM      5  C   UNL     1       2.556   5.050  20.125  0.00  0.00    +0.000 A 
ATOM      6  C   UNL     1       1.814   6.143  20.590  0.00  0.00    +0.000 A 
ATOM      7  C   UNL     1       1.836   7.363  19.906  0.00  0.00    +0.000 A 
ATOM      8  C   UNL     1       2.629   7.492  18.766  0.00  0.00    +0.000 A 
ATOM      9  C   UNL     1       3.363   6.403  18.288  0.00  0.00    +0.000 A 
BRANCH   7  10
ATOM     10  O   UNL     1       1.002   8.325  20.405  0.00  0.00    +0.000 OA
BRANCH  10  11
ATOM     11  C   UNL     1       0.824   8.402  21.825  0.00  0.00    +0.000 C 
ATOM     12  C   UNL     1       1.778   9.419  22.451  0.00  0.00    +0.000 C 
ATOM     13  C   UNL     1      -0.613   8.876  22.053  0.00  0.00    +0.000 C 
ENDBRANCH  10  11
ENDBRANCH   7  10
ENDBRANCH   1   4
BRANCH   1  14
ATOM     14  N   UNL     1       5.439   4.565  17.354  0.00  0.00    +0.000 NA
BRANCH  14  15
ATOM     15  C   UNL     1       6.807   4.589  17.969  0.00  0.00    +0.000 C 
BRANCH  15  17
ATOM     16  C   UNL     1       8.239   5.648  19.799  0.00  0.00    +0.000 C 
ATOM     17  C   UNL     1       7.152   5.871  18.749  0.00  0.00    +0.000 C 
ATOM     18  C   UNL     1       7.612   6.954  17.763  0.00  0.00    +0.000 C 
ENDBRANCH  15  17
ENDBRANCH  14  15
BRANCH  14  19
ATOM     19  C   UNL     1       5.390   4.101  15.937  0.00  0.00    +0.000 C 
BRANCH  19  20
ATOM     20  C   UNL     1       6.008   5.054  14.933  0.00  0.00    +0.000 C 
ATOM     21  O   UNL     1       5.711   6.249  14.876  0.00  0.00    +0.000 OA
ATOM     22  N   UNL     1       6.935   4.492  14.084  0.00  0.00    +0.000 N 
ATOM     23  H   UNL     1       7.469   3.665  14.360  0.00  0.00    +0.000 HD
BRANCH  22  24
ATOM     24  O   UNL     1       7.601   5.409  13.234  0.00  0.00    +0.000 OA
ATOM     25  H   UNL     1       7.974   6.059  13.867  0.00  0.00    +0.000 HD
ENDBRANCH  22  24
ENDBRANCH  19  20
ENDBRANCH  14  19
ENDBRANCH   1  14
TORSDOF 9
ENDMDL
MODEL 9
REMARK VINA RESULT:      -6.7      2.119      3.343
REMARK  Name = 
REMARK  13 active torsions:
REMARK  status: ('A' for Active; 'I' for Inactive)
REMARK    1  A    between atoms: C_1  and  C_2
REMARK    2  A    between atoms: C_2  and  C_3
REMARK    3  A    between atoms: C_2  and  C_4
REMARK    4  A    between atoms: C_4  and  N_5
REMARK    5  A    between atoms: N_5  and  C_6
REMARK    6  A    between atoms: N_5  and  S_11
REMARK    7  A    between atoms: C_6  and  C_7
REMARK    8  A    between atoms: N_9  and  O_10
REMARK    9  A    between atoms: S_11  and  C_14
REMARK   10  A    between atoms: C_17  and  O_18
REMARK   11  A    between atoms: O_18  and  C_19
REMARK   12  A    between atoms: C_19  and  C_20
REMARK   13  A    between atoms: C_19  and  C_21
REMARK                            x       y       z     vdW  Elec       q    Type
REMARK                         _______ _______ _______ _____ _____    ______ ____
ROOT
ATOM      1  S   UNL     1       4.116   5.862  18.123  0.00  0.00    +0.000 S 
ATOM      2  O   UNL     1       5.231   5.888  19.056  0.00  0.00    +0.000 OA
ATOM      3  O   UNL     1       4.357   5.994  16.699  0.00  0.00    +0.000 OA
ENDROOT
BRANCH   1   4
ATOM      4  C   UNL     1       2.957   7.106  18.622  0.00  0.00    +0.000 A 
ATOM      5  C   UNL     1       2.480   8.030  17.691  0.00  0.00    +0.000 A 
ATOM      6  C   UNL     1       1.558   9.002  18.099  0.00  0.00    +0.000 A 
ATOM      7  C   UNL     1       1.094   9.037  19.418  0.00  0.00    +0.000 A 
ATOM      8  C   UNL     1       1.539   8.073  20.324  0.00  0.00    +0.000 A 
ATOM      9  C   UNL     1       2.468   7.107  19.929  0.00  0.00    +0.000 A 
BRANCH   7  10
ATOM     10  O   UNL     1       0.268  10.085  19.718  0.00  0.00    +0.000 OA
BRANCH  10  11
ATOM     11  C   UNL     1       0.678  11.405  19.338  0.00  0.00    +0.000 C 
ATOM     12  C   UNL     1      -0.492  12.207  18.769  0.00  0.00    +0.000 C 
ATOM     13  C   UNL     1       1.164  12.089  20.617  0.00  0.00    +0.000 C 
ENDBRANCH  10  11
ENDBRANCH   7  10
ENDBRANCH   1   4
BRANCH   1  14
ATOM     14  N   UNL     1       3.255   4.394  18.392  0.00  0.00    +0.000 NA
BRANCH  14  15
ATOM     15  C   UNL     1       1.781   4.515  18.139  0.00  0.00    +0.000 C 
BRANCH  15  17
ATOM     16  C   UNL     1       0.573   2.363  18.793  0.00  0.00    +0.000 C 
ATOM     17  C   UNL     1       0.880   3.812  19.170  0.00  0.00    +0.000 C 
ATOM     18  C   UNL     1       1.562   3.846  20.545  0.00  0.00    +0.000 C 
ENDBRANCH  15  17
ENDBRANCH  14  15
BRANCH  14  19
ATOM     19  C   UNL     1       3.910   3.209  17.765  0.00  0.00    +0.000 C 
BRANCH  19  20
ATOM     20  C   UNL     1       4.207   2.067  18.718  0.00  0.00    +0.000 C 
ATOM     21  O   UNL     1       3.747   0.934  18.566  0.00  0.00    +0.000 OA
ATOM     22  N   UNL     1       5.036   2.383  19.770  0.00  0.00    +0.000 N 
ATOM     23  H   UNL     1       5.716   3.143  19.697  0.00  0.00    +0.000 HD
BRANCH  22  24
ATOM     24  O   UNL     1       5.412   1.287  20.585  0.00  0.00    +0.000 OA
ATOM     25  H   UNL     1       6.310   1.070  20.255  0.00  0.00    +0.000 HD
ENDBRANCH  22  24
ENDBRANCH  19  20
ENDBRANCH  14  19
ENDBRANCH   1  14
TORSDOF 9
ENDMDL
